data_image0
_chemical_formula_structural       FeS2FeSFeHFeS3HCHSCSFeS2HC3FeSHSFeSFeS2FeSFeS3C9H7CHC6H4SHC8H4C6H4NC2HC2NH5C2SHCHC2HCH7CHSH4C2H7C2H2SH3C2HCH2C2HNHCNH2CH3CH2C2HC3HCH2NCH3NC5H4C2H4C3H3CH2C2HCHC2NHC2FeH3CH2C4HCH7CHCH3NHC5H4CH3FeS2CH2FeS2FeS2FeS2FeSFeS4FeS2FeSCHFeS3CH2CNSC8H4C2HCHC6H4C6H7C7H4FeCH2CSCHCH2C3H4C2H2CNH2SC2HCH9CHCH3C2H4NHCHCH3NC9H14C4HCHCH4C2HSC2H5C2HFeHCH2CH2FeCHCHSCH2SFeS3FeSFeS2H2FeS2FeSFeS2FeS2FeS3FeS4H2C6H4C6H4CHC2HCHC6H4C2HCH2C6H5C3SH9CH2FeCHCHCHCHCNH2CH3CH2CHCNH2C5HC2HC5NHCHC2HCH3C2HCH2SNCH2FeNC9H15C2HC2H3C2H2CSCHCH2C3H2CHCH4FeC3H4FeS2FeS2FeSHS2HSFeS2FeSFeHS3HSNHSFeS2FeSFeHS2HC4HC3FeH2C2NHC6H6C6H4C6H4C6H4C2H2NC4H2CH8SC2HCH2NH5CHC2HCH2CHC2HCH2C2H2CH7C4HCHCHC2HCFeC2SHC2H2FeNC4HCHC3H2CHCH11SCH2CHCH2NC3H2NCNH2CHCH2CH4C2HCH2CHCH4CH2CH4CHCSFeS2FeSFeCS2C2SFeS2FeSFeSFeS3HSFeS2FeSFeHS2HSHCH2C6H4CHC2HC6H5C6H4CHC7H4C2HNH2C2HC5H4CNH4CHNHSCHCH2C4H5C2H17SH4CH2CH3C3H3CH4C2H2FeHFeNC9H16CH2NH2CNHCNH3CHC2SH2C2HCHC3HCH2C5H2CHCHFeS2FeSFeHFeS3FeSFeS2FeSFeS5FeS2FeSFeS3HCH2C2H5C6H3C7H6SCHC6HCH6C6H5CH2C3H3CH4CHC2H2CH2CH2SH2C2NCHC2H2CH3CFeCHCH2C2HCHCSH5CNC8H7CH2C3H6C3H3NHCNC4HC3HCHCH2C2H2CH6C2HC2H4NCHSFeS2FeS2Fe2S4FeS2FeHFeS4FeS2FeSFeS2CSCH3C7H5SC6H4C2HC7H2CHC2H2C2H3C6H6C2H6NCSHC3HC3H7C2HCH5CH3C8H8C3HNC7H2CHCHCH2CH7CH2C2H2C4HFeHCH5CH3CNHCH10FeH2C2H3C3SHCHNHCHCNC5H2S2FeS2CSFeHFeS3FeS2FeCSHFeSCS2FeS2FeS2CFeS3CH2CH6FeHNC6HCH2CHC7H4C6H3C3HC8H4CHC6H4CNC9H16C2H3NCHC3SCHCH4C2H2NH2CHCH2C2HFeH4CHCHCHFeSC5H4C2HCHCH5CHCH5CNH3SH3CH2CH3CNCNH3C3H2CHFeS2FeS2FeSFeS2FeSHFeS2FeSFeS4FeS2FeSFeSHSC2HCHCHCH4C7H4C6H4C6H4C6H5C3H2SCNC9H14C2HCH2CHFeCH5CH2CNC4HC3H8NCH2C2H3SCH3CH2C3H5CHCH3NHC2NHCH2CHSHCHCHC2HCSCH4NCH6C5H3CH3CH2C2H2FeS2FeHNHFeS3HSFeSCSFeS2FeSFeS3FeS2FeSFeHFeS3H2C6H4C6H4C3SC7H4C6H4C2NH2CHC4H2CH3C3HCHCHC2H2CHNC4HC2H2CH4C2H2CH2C2HCNH8C4NC6H2SH9CFeHCH3CHC4H3FeH3SFeC2HC6H4C2H2C2H2CHSH2CSH4CHCHC2HCHSHCH3CSCH2C2SH10C2HSC2FeS2FeSFeS2FeSHFeS2FeSHS3FeS2HSFeCFeS4H2CHCH4C7H4C6H4CH2CHC6H5C6H5CH3SCHC2HCH3NCHC2SHCH4CHCFeSH2C2H3C2HNFeHCHCH5NC9H6C2H5CHFeC3H6CH2CHC4H4CHC2H2C2H2NHCH2CHNCSH2C3HCHCHCH2CNCHCH3C3FeS2HSFeSFeS4HSFeS3FeSFeS4FeS2FeSFeHSHC8H4C2HCHC6H8C6H4CSHC7H4C2HCNFeCHCFeH6CHCSC2HCFeCNC9HCH13CH3C5H4C2H3C2NC9H14NHC2HCH3CH3NHCH3CHCHC4H3CHCHCH5CH4SHFeS2FeS2FeSFeS2FeCFeS2FeS4FeS2FeSHFe2S3CSC3HSHCHC6H4C6H4FeHC6H5C2H2C6H3SH2C3HSH3CH2CHNHC2HC3NHC8HCH5CH7CH4CNH2NH2CHCHC2HC5H4C2H3NH2C2HC3H3CH2CH3CH2CH2CH5C2H2CH3CSCH2C2H4FeS2FeSFeSFeS3NCSFeS2FeSH2FeS3FeSFeS2FeSFeS3CSCHCHCHC6H4C6H7CHC6H6CHC2HC7H4C2H3FeCH2C3HSCH3CH5CHCHCH3C2H2SNCH3NC9H11CH3C3HNC9H14CHC2H2CHNHCH4CHCH2C4H4FeSHFeS2FeSHS2FeS3FeSFeS3C2FeS2FeS2HFeS3HCSCHC3HCFeHCHSC7H4C6H4C9H4C6H5CH4CNH7C3H2CH5C5FeCHNC4H3CHCNHCHCH4C2HCHCH3CH3NC2H2CH3C5H3C2H4C3H3C2H2C2NCHNH2CH2CH3CHCHCH5C3H2NH3C2HSH5C2FeH6C3HCHCHC2H2CFeSFeS2FeS4H2FeS2FeSFeHSHFeSHFeS2FeSCS2HSH3CHC6H5NH2C7H4C6H3CNC6H2CHC2HCHCFeH2CHNC9H11CH2CH2SH2NC3H2NCNH4CSH4NC5HCHCHCH3CH2CH3C2H4CHCHSC2HCHC2H3C4HC2H2NCH2CH2CFeH2C2SCH2CH3C3H5CHCHCH4CH2
_chemical_formula_sum              "Fe192 S384 H1728 C1440 N96"
_cell_length_a       52.36
_cell_length_b       52.5924
_cell_length_c       51.6997
_cell_angle_alpha    89.5266
_cell_angle_beta     89.1571
_cell_angle_gamma    89.8081

_space_group_name_H-M_alt    "P 1"
_space_group_IT_number       1

loop_
  _space_group_symop_operation_xyz
  'x, y, z'

loop_
  _atom_site_type_symbol
  _atom_site_label
  _atom_site_symmetry_multiplicity
  _atom_site_fract_x
  _atom_site_fract_y
  _atom_site_fract_z
  _atom_site_occupancy
  Fe  Fe1       1.0  0.37998  0.21968  0.11436  1.0000
  S   S1        1.0  0.33997  0.21406  0.12982  1.0000
  S   S2        1.0  0.41342  0.22899  0.14034  1.0000
  Fe  Fe2       1.0  0.36540  0.20345  0.05950  1.0000
  S   S3        1.0  0.32440  0.19723  0.07064  1.0000
  Fe  Fe3       1.0  0.32798  0.23347  0.09289  1.0000
  H   H1        1.0  0.28609  0.23184  0.05156  1.0000
  Fe  Fe4       1.0  0.33997  0.17830  0.10631  1.0000
  S   S4        1.0  0.32339  0.14001  0.11757  1.0000
  S   S5        1.0  0.36808  0.24150  0.07897  1.0000
  S   S6        1.0  0.38078  0.18216  0.09356  1.0000
  H   H2        1.0  0.05683  0.19141  0.26877  1.0000
  C   C1        1.0  0.52446  0.22031  0.51490  1.0000
  H   H3        1.0  0.30632  0.06945  0.40746  1.0000
  S   S7        1.0  0.05808  0.16945  0.38565  1.0000
  C   C2        1.0  0.37113  0.06663  0.38531  1.0000
  S   S8        1.0  0.38456  0.06681  0.19268  1.0000
  Fe  Fe5       1.0  0.36051  0.15613  0.49452  1.0000
  S   S9        1.0  0.35524  0.19695  0.48268  1.0000
  S   S10       1.0  0.34436  0.12207  0.47355  1.0000
  H   H4        1.0  0.32155  0.07031  0.24307  1.0000
  C   C3        1.0  0.44513  0.21513  0.37255  1.0000
  C   C4        1.0  0.30066  0.14284  0.23190  1.0000
  C   C5        1.0  0.04040  0.27293  0.25490  1.0000
  Fe  Fe6       1.0  0.39660  0.20167  0.49300  1.0000
  S   S11       1.0  0.42565  0.22611  0.47165  1.0000
  H   H5        1.0  0.26871  0.04544  0.23423  1.0000
  S   S12       1.0  0.40271  0.16024  0.50109  1.0000
  Fe  Fe7       1.0  0.19808  0.04288  0.38504  1.0000
  S   S13       1.0  0.19808  0.05317  0.34287  1.0000
  Fe  Fe8       1.0  0.21878  0.09481  0.40098  1.0000
  S   S14       1.0  0.21918  0.10914  0.35990  1.0000
  S   S15       1.0  0.23076  0.12264  0.43194  1.0000
  Fe  Fe9       1.0  0.18109  0.09014  0.35649  1.0000
  S   S16       1.0  0.14687  0.10391  0.33404  1.0000
  Fe  Fe10      1.0  0.23612  0.07103  0.35027  1.0000
  S   S17       1.0  0.27220  0.07166  0.32557  1.0000
  S   S18       1.0  0.17895  0.07891  0.39832  1.0000
  S   S19       1.0  0.23787  0.05767  0.39167  1.0000
  C   C6        1.0  0.42042  0.15066  0.14272  1.0000
  C   C7        1.0  0.42627  0.21886  0.39160  1.0000
  C   C8        1.0  0.31670  0.06301  0.22367  1.0000
  C   C9        1.0  0.31234  0.12251  0.46327  1.0000
  C   C10       1.0  0.29880  0.14530  0.46047  1.0000
  C   C11       1.0  0.27388  0.14512  0.45060  1.0000
  C   C12       1.0  0.26235  0.12221  0.44344  1.0000
  C   C13       1.0  0.27574  0.09940  0.44663  1.0000
  C   C14       1.0  0.30066  0.09956  0.45645  1.0000
  H   H6        1.0  0.30774  0.16309  0.46542  1.0000
  H   H7        1.0  0.26358  0.16283  0.44817  1.0000
  H   H8        1.0  0.26680  0.08160  0.44168  1.0000
  H   H9        1.0  0.31096  0.08184  0.45875  1.0000
  H   H10       1.0  0.49196  0.17270  0.48484  1.0000
  H   H11       1.0  0.45862  0.24818  0.31224  1.0000
  H   H12       1.0  0.41568  0.20278  0.39942  1.0000
  C   C15       1.0  0.09583  0.14084  0.25936  1.0000
  H   H13       1.0  0.40480  0.12438  0.04001  1.0000
  C   C16       1.0  0.08247  0.15026  0.37196  1.0000
  C   C17       1.0  0.10608  0.14795  0.38431  1.0000
  C   C18       1.0  0.12591  0.13326  0.37327  1.0000
  C   C19       1.0  0.12222  0.12100  0.34971  1.0000
  C   C20       1.0  0.09848  0.12291  0.33772  1.0000
  C   C21       1.0  0.07876  0.13752  0.34871  1.0000
  H   H14       1.0  0.10914  0.15767  0.40236  1.0000
  H   H15       1.0  0.14420  0.13186  0.38270  1.0000
  H   H16       1.0  0.09531  0.11313  0.31973  1.0000
  H   H17       1.0  0.06067  0.13868  0.33917  1.0000
  S   S20       1.0  0.50948  0.17575  0.39839  1.0000
  H   H18       1.0  0.46398  0.20099  0.32325  1.0000
  C   C22       1.0  0.43119  0.13929  0.09855  1.0000
  C   C23       1.0  0.43604  0.26357  0.39254  1.0000
  C   C24       1.0  0.48717  0.18972  0.41990  1.0000
  C   C25       1.0  0.46604  0.17541  0.42841  1.0000
  C   C26       1.0  0.44743  0.18615  0.44490  1.0000
  C   C27       1.0  0.44960  0.21146  0.45257  1.0000
  C   C28       1.0  0.47084  0.22572  0.44426  1.0000
  C   C29       1.0  0.48970  0.21484  0.42812  1.0000
  H   H19       1.0  0.46400  0.15596  0.42211  1.0000
  H   H20       1.0  0.43104  0.17506  0.45102  1.0000
  H   H21       1.0  0.47261  0.24533  0.45012  1.0000
  H   H22       1.0  0.50595  0.22601  0.42185  1.0000
  C   C30       1.0  0.34078  0.11994  0.13833  1.0000
  C   C31       1.0  0.33805  0.09350  0.13634  1.0000
  C   C32       1.0  0.35132  0.07702  0.15298  1.0000
  C   C33       1.0  0.36707  0.08693  0.17201  1.0000
  C   C34       1.0  0.36937  0.11339  0.17436  1.0000
  C   C35       1.0  0.35635  0.12988  0.15749  1.0000
  H   H23       1.0  0.32588  0.08574  0.12165  1.0000
  H   H24       1.0  0.34963  0.05667  0.15085  1.0000
  H   H25       1.0  0.38127  0.12116  0.18928  1.0000
  H   H26       1.0  0.35794  0.15026  0.15961  1.0000
  N   N1        1.0  0.43244  0.13105  0.12599  1.0000
  C   C36       1.0  0.29365  0.11416  0.18733  1.0000
  C   C37       1.0  0.41736  0.12572  0.07959  1.0000
  H   H27       1.0  0.23845  0.19344  0.49875  1.0000
  C   C38       1.0  0.33962  0.10816  0.40181  1.0000
  C   C39       1.0  0.41868  0.26053  0.15118  1.0000
  N   N2        1.0  0.32952  0.09168  0.38112  1.0000
  H   H28       1.0  0.33275  0.06818  0.21035  1.0000
  H   H29       1.0  0.09747  0.12410  0.24735  1.0000
  H   H30       1.0  0.19586  0.27028  0.10376  1.0000
  H   H31       1.0  0.39846  0.10790  0.12711  1.0000
  H   H32       1.0  0.26838  0.06743  0.18104  1.0000
  C   C40       1.0  0.27653  0.24983  0.04871  1.0000
  C   C41       1.0  0.07471  0.05725  0.36367  1.0000
  S   S21       1.0  0.35062  0.16225  0.53632  1.0000
  H   H33       1.0  0.45371  0.17379  0.10361  1.0000
  C   C42       1.0  0.30432  0.08203  0.39020  1.0000
  H   H34       1.0  0.46406  0.23350  0.50949  1.0000
  C   C43       1.0  0.07539  0.15757  0.25628  1.0000
  C   C44       1.0  0.43898  0.26544  0.16796  1.0000
  H   H35       1.0  0.31853  0.05916  0.29863  1.0000
  C   C45       1.0  0.10986  0.04172  0.33698  1.0000
  H   H36       1.0  0.12972  0.13223  0.28084  1.0000
  H   H37       1.0  0.49259  0.24776  0.30605  1.0000
  H   H38       1.0  0.45083  0.18849  0.05888  1.0000
  H   H39       1.0  0.29905  0.10792  0.25291  1.0000
  H   H40       1.0  0.48698  0.19198  0.34762  1.0000
  H   H41       1.0  0.30227  0.06289  0.17500  1.0000
  H   H42       1.0  0.06113  0.15386  0.24179  1.0000
  C   C46       1.0  0.44350  0.16203  0.09020  1.0000
  H   H43       1.0  0.29431  0.07101  0.37525  1.0000
  S   S22       1.0  0.38847  0.21204  0.53452  1.0000
  H   H44       1.0  0.34302  0.09718  0.41996  1.0000
  H   H45       1.0  0.12428  0.07053  0.37629  1.0000
  H   H46       1.0  0.25308  0.13704  0.50105  1.0000
  H   H47       1.0  0.06034  0.22274  0.33451  1.0000
  C   C47       1.0  0.45950  0.12781  0.13355  1.0000
  C   C48       1.0  0.41921  0.10656  0.13137  1.0000
  H   H48       1.0  0.47016  0.14605  0.13297  1.0000
  H   H49       1.0  0.46108  0.12031  0.15370  1.0000
  H   H50       1.0  0.46961  0.11428  0.12045  1.0000
  H   H51       1.0  0.40022  0.15398  0.13730  1.0000
  H   H52       1.0  0.42768  0.09073  0.11991  1.0000
  H   H53       1.0  0.42041  0.10079  0.15214  1.0000
  H   H54       1.0  0.29637  0.14993  0.16682  1.0000
  C   C49       1.0  0.27964  0.26942  0.06648  1.0000
  C   C50       1.0  0.02912  0.08670  0.36292  1.0000
  H   H55       1.0  0.06182  0.18864  0.33377  1.0000
  H   H56       1.0  0.52193  0.23498  0.34220  1.0000
  S   S23       1.0  0.29901  0.26556  0.09374  1.0000
  H   H57       1.0  0.12880  0.03200  0.33647  1.0000
  H   H58       1.0  0.31645  0.09732  0.34200  1.0000
  H   H59       1.0  0.04685  0.20596  0.30831  1.0000
  C   C51       1.0  0.06326  0.20611  0.32164  1.0000
  C   C52       1.0  0.05437  0.05141  0.34683  1.0000
  H   H60       1.0  0.40782  0.24551  0.41712  1.0000
  C   C53       1.0  0.03699  0.24149  0.40449  1.0000
  H   H61       1.0  0.07292  0.23110  0.27737  1.0000
  H   H62       1.0  0.11141  0.05024  0.40184  1.0000
  C   C54       1.0  0.44195  0.17068  0.06462  1.0000
  C   C55       1.0  0.28651  0.06033  0.18947  1.0000
  H   H63       1.0  0.29162  0.10434  0.16922  1.0000
  N   N3        1.0  0.29217  0.07328  0.21418  1.0000
  H   H64       1.0  0.05578  0.03562  0.33364  1.0000
  C   C56       1.0  0.29998  0.15486  0.20781  1.0000
  N   N4        1.0  0.48203  0.20232  0.52939  1.0000
  H   H65       1.0  0.50825  0.22448  0.37253  1.0000
  H   H66       1.0  0.31301  0.12441  0.36216  1.0000
  C   C57       1.0  0.45991  0.23579  0.36268  1.0000
  H   H67       1.0  0.11296  0.06154  0.32987  1.0000
  H   H68       1.0  0.08554  0.08468  0.39348  1.0000
  H   H69       1.0  0.45431  0.18716  0.50326  1.0000
  C   C58       1.0  0.50545  0.23759  0.35582  1.0000
  H   H70       1.0  0.12644  0.16891  0.30833  1.0000
  H   H71       1.0  0.09787  0.03184  0.32270  1.0000
  C   C59       1.0  0.42181  0.24297  0.40165  1.0000
  C   C60       1.0  0.11816  0.05081  0.38135  1.0000
  H   H72       1.0  0.26982  0.18006  0.49369  1.0000
  C   C61       1.0  0.42820  0.15700  0.04660  1.0000
  C   C62       1.0  0.03204  0.06613  0.34635  1.0000
  C   C63       1.0  0.04847  0.09268  0.38000  1.0000
  H   H73       1.0  0.42044  0.14496  0.16351  1.0000
  C   C64       1.0  0.30439  0.04514  0.29367  1.0000
  H   H74       1.0  0.43017  0.16941  0.14124  1.0000
  H   H75       1.0  0.31631  0.04191  0.22524  1.0000
  N   N5        1.0  0.48078  0.23246  0.34332  1.0000
  C   C65       1.0  0.34656  0.07009  0.37437  1.0000
  H   H76       1.0  0.45111  0.24993  0.17416  1.0000
  H   H77       1.0  0.44824  0.19576  0.36651  1.0000
  H   H78       1.0  0.25305  0.07524  0.22746  1.0000
  N   N6        1.0  0.08820  0.20713  0.30773  1.0000
  C   C66       1.0  0.08897  0.23032  0.29120  1.0000
  C   C67       1.0  0.27978  0.04637  0.30469  1.0000
  C   C68       1.0  0.10831  0.20957  0.32753  1.0000
  C   C69       1.0  0.09122  0.18433  0.29132  1.0000
  C   C70       1.0  0.07309  0.17904  0.27191  1.0000
  H   H79       1.0  0.04665  0.21670  0.45063  1.0000
  H   H80       1.0  0.49763  0.20473  0.31746  1.0000
  H   H81       1.0  0.08755  0.24804  0.30281  1.0000
  H   H82       1.0  0.10702  0.23129  0.27958  1.0000
  C   C71       1.0  0.29420  0.10127  0.21162  1.0000
  C   C72       1.0  0.11405  0.14553  0.27807  1.0000
  H   H83       1.0  0.30250  0.17527  0.20623  1.0000
  H   H84       1.0  0.10534  0.22677  0.33964  1.0000
  H   H85       1.0  0.10825  0.19294  0.34108  1.0000
  H   H86       1.0  0.12764  0.21139  0.31846  1.0000
  C   C73       1.0  0.41596  0.13459  0.05405  1.0000
  C   C74       1.0  0.33898  0.05204  0.35572  1.0000
  C   C75       1.0  0.07105  0.07837  0.38036  1.0000
  H   H87       1.0  0.04630  0.10908  0.39247  1.0000
  H   H88       1.0  0.40695  0.10852  0.08405  1.0000
  H   H89       1.0  0.27578  0.07243  0.25302  1.0000
  C   C76       1.0  0.47761  0.25051  0.32132  1.0000
  H   H90       1.0  0.29103  0.09784  0.39537  1.0000
  H   H91       1.0  0.50648  0.25727  0.36337  1.0000
  C   C77       1.0  0.29788  0.11645  0.23385  1.0000
  C   C78       1.0  0.50651  0.18633  0.48962  1.0000
  H   H92       1.0  0.30362  0.15399  0.24913  1.0000
  C   C79       1.0  0.50425  0.20278  0.51127  1.0000
  H   H93       1.0  0.35774  0.11763  0.39578  1.0000
  C   C80       1.0  0.46933  0.22760  0.52947  1.0000
  C   C81       1.0  0.27155  0.06642  0.23298  1.0000
  N   N7        1.0  0.09834  0.04163  0.36340  1.0000
  H   H94       1.0  0.26505  0.20446  0.51681  1.0000
  C   C82       1.0  0.48223  0.20639  0.33246  1.0000
  C   C83       1.0  0.45482  0.26013  0.37337  1.0000
  Fe  Fe11      1.0  0.34756  0.20354  0.52500  1.0000
  H   H95       1.0  0.47017  0.16351  0.52313  1.0000
  H   H96       1.0  0.32595  0.12364  0.40707  1.0000
  H   H97       1.0  0.34420  0.11522  0.35013  1.0000
  C   C84       1.0  0.29643  0.14057  0.18562  1.0000
  H   H98       1.0  0.37865  0.07933  0.39960  1.0000
  H   H99       1.0  0.32064  0.05344  0.34652  1.0000
  C   C85       1.0  0.32568  0.10787  0.35787  1.0000
  C   C86       1.0  0.46242  0.18323  0.52267  1.0000
  C   C87       1.0  0.11189  0.16690  0.29389  1.0000
  C   C88       1.0  0.37886  0.02907  0.35939  1.0000
  H   H100      1.0  0.18982  0.26797  0.13811  1.0000
  C   C89       1.0  0.38693  0.04635  0.37784  1.0000
  H   H101      1.0  0.47930  0.27072  0.32714  1.0000
  H   H102      1.0  0.23844  0.26761  0.14120  1.0000
  H   H103      1.0  0.24260  0.02904  0.30645  1.0000
  H   H104      1.0  0.04794  0.22409  0.40629  1.0000
  H   H105      1.0  0.52392  0.23358  0.53073  1.0000
  H   H106      1.0  0.28444  0.03938  0.19227  1.0000
  H   H107      1.0  0.13578  0.03883  0.38051  1.0000
  C   C90       1.0  0.26163  0.02821  0.29808  1.0000
  H   H108      1.0  0.24027  0.27193  0.10699  1.0000
  C   C91       1.0  0.04455  0.25881  0.38520  1.0000
  H   H109      1.0  0.40564  0.04408  0.38631  1.0000
  H   H110      1.0  0.06088  0.25464  0.37283  1.0000
  H   H111      1.0  0.03420  0.24322  0.46855  1.0000
  N   N8        1.0  0.25058  0.16764  0.52871  1.0000
  H   H112      1.0  0.22206  0.15047  0.50456  1.0000
  C   C92       1.0  0.25617  0.18722  0.50863  1.0000
  C   C93       1.0  0.03879  0.27551  0.30159  1.0000
  C   C94       1.0  0.35491  0.03191  0.34837  1.0000
  C   C95       1.0  0.23950  0.14529  0.51554  1.0000
  C   C96       1.0  0.52770  0.18748  0.47283  1.0000
  H   H113      1.0  0.28789  0.14992  0.52582  1.0000
  H   H114      1.0  0.23478  0.12978  0.52956  1.0000
  H   H115      1.0  0.35123  0.15356  0.03680  1.0000
  H   H116      1.0  0.46578  0.27662  0.36747  1.0000
  C   C97       1.0  0.02907  0.22462  0.45991  1.0000
  H   H117      1.0  0.52880  0.17507  0.45616  1.0000
  H   H118      1.0  0.34840  0.26285  0.53618  1.0000
  H   H119      1.0  0.26037  0.23606  0.96049  1.0000
  Fe  Fe12      1.0  0.49405  0.14482  0.73260  1.0000
  S   S24       1.0  0.47981  0.18499  0.73383  1.0000
  S   S25       1.0  0.47022  0.11132  0.74588  1.0000
  C   C98       1.0  0.19241  0.18169  0.57228  1.0000
  H   H120      1.0  0.08915  0.26138  0.83637  1.0000
  H   H121      1.0  0.18914  0.21063  0.60143  1.0000
  Fe  Fe13      1.0  0.49672  0.18839  0.69364  1.0000
  S   S26       1.0  0.47547  0.20920  0.66175  1.0000
  S   S27       1.0  0.50810  0.14737  0.69141  1.0000
  Fe  Fe14      1.0  0.33445  0.07247  0.86949  1.0000
  S   S28       1.0  0.37186  0.05897  0.85277  1.0000
  S   S29       1.0  0.29616  0.07353  0.84972  1.0000
  Fe  Fe15      1.0  0.35754  0.08520  0.92220  1.0000
  S   S30       1.0  0.39671  0.07245  0.90972  1.0000
  S   S31       1.0  0.34626  0.09579  0.96332  1.0000
  Fe  Fe16      1.0  0.38848  0.09302  0.87234  1.0000
  S   S32       1.0  0.41691  0.12147  0.85605  1.0000
  Fe  Fe17      1.0  0.37673  0.03958  0.89145  1.0000
  S   S33       1.0  0.35053  0.10823  0.88628  1.0000
  S   S34       1.0  0.33804  0.05062  0.90665  1.0000
  S   S35       1.0  0.18647  0.05278  0.68271  1.0000
  S   S36       1.0  0.41665  0.15142  0.57303  1.0000
  Fe  Fe18      1.0  0.11626  0.17761  0.71676  1.0000
  S   S37       1.0  0.10632  0.17146  0.67526  1.0000
  S   S38       1.0  0.13741  0.14796  0.74027  1.0000
  Fe  Fe19      1.0  0.08696  0.22789  0.71945  1.0000
  S   S39       1.0  0.07460  0.22483  0.67822  1.0000
  C   C99       1.0  0.49073  0.19628  0.55594  1.0000
  H   H122      1.0  0.06341  0.27369  0.81768  1.0000
  Fe  Fe20      1.0  0.11513  0.21310  0.66984  1.0000
  S   S40       1.0  0.13533  0.22853  0.63375  1.0000
  S   S41       1.0  0.07621  0.18771  0.72979  1.0000
  S   S42       1.0  0.12812  0.21841  0.71060  1.0000
  C   C100      1.0  0.15427  0.25627  0.63530  1.0000
  H   H123      1.0  0.36177  0.05489  0.00949  1.0000
  H   H124      1.0  0.13260  0.27074  0.91242  1.0000
  C   C101      1.0  0.52065  0.09577  0.84602  1.0000
  N   N9        1.0  0.51835  0.08641  0.81910  1.0000
  S   S43       1.0  0.07720  0.26526  0.73879  1.0000
  C   C102      1.0  0.22625  0.21060  0.58283  1.0000
  C   C103      1.0  0.09018  0.04587  0.68972  1.0000
  C   C104      1.0  0.17357  0.07928  0.69923  1.0000
  C   C105      1.0  0.16507  0.10029  0.68481  1.0000
  C   C106      1.0  0.15442  0.12161  0.69721  1.0000
  C   C107      1.0  0.15213  0.12209  0.72418  1.0000
  C   C108      1.0  0.16097  0.10124  0.73866  1.0000
  C   C109      1.0  0.17162  0.07988  0.72624  1.0000
  H   H125      1.0  0.16687  0.10012  0.66394  1.0000
  H   H126      1.0  0.14830  0.13777  0.68587  1.0000
  H   H127      1.0  0.15943  0.10153  0.75955  1.0000
  H   H128      1.0  0.17837  0.06396  0.73757  1.0000
  C   C110      1.0  0.28911  0.05215  0.82466  1.0000
  C   C111      1.0  0.16169  0.26619  0.65902  1.0000
  H   H129      1.0  0.33574  0.12100  0.73440  1.0000
  C   C112      1.0  0.25730  0.03303  0.79674  1.0000
  H   H130      1.0  0.09975  0.12042  0.71295  1.0000
  C   C113      1.0  0.43326  0.16815  0.59700  1.0000
  C   C114      1.0  0.42917  0.19407  0.60136  1.0000
  C   C115      1.0  0.44251  0.20650  0.62104  1.0000
  C   C116      1.0  0.45997  0.19315  0.63650  1.0000
  C   C117      1.0  0.46445  0.16739  0.63172  1.0000
  C   C118      1.0  0.45102  0.15493  0.61218  1.0000
  H   H131      1.0  0.41548  0.20445  0.58984  1.0000
  H   H132      1.0  0.43898  0.22648  0.62456  1.0000
  H   H133      1.0  0.47819  0.15699  0.64309  1.0000
  H   H134      1.0  0.45442  0.13491  0.60879  1.0000
  C   C119      1.0  0.45391  0.11499  0.77562  1.0000
  C   C120      1.0  0.43720  0.09592  0.78456  1.0000
  C   C121      1.0  0.42523  0.09786  0.80902  1.0000
  C   C122      1.0  0.43007  0.11884  0.82465  1.0000
  C   C123      1.0  0.44643  0.13807  0.81546  1.0000
  C   C124      1.0  0.45820  0.13625  0.79096  1.0000
  H   H135      1.0  0.43373  0.07948  0.77268  1.0000
  H   H136      1.0  0.41262  0.08297  0.81594  1.0000
  H   H137      1.0  0.45016  0.15439  0.82744  1.0000
  H   H138      1.0  0.47098  0.15110  0.78423  1.0000
  H   H139      1.0  0.51749  0.08022  0.86046  1.0000
  H   H140      1.0  0.50077  0.17759  0.55656  1.0000
  H   H141      1.0  0.28619  0.17522  0.54815  1.0000
  C   C125      1.0  0.37265  0.16807  0.00406  1.0000
  C   C126      1.0  0.35771  0.14999  0.01718  1.0000
  C   C127      1.0  0.35067  0.12745  0.00475  1.0000
  C   C128      1.0  0.35843  0.12278  0.97911  1.0000
  C   C129      1.0  0.37402  0.14049  0.96620  1.0000
  C   C130      1.0  0.38107  0.16309  0.97866  1.0000
  C   C131      1.0  0.37147  0.03754  0.00363  1.0000
  H   H142      1.0  0.33864  0.11384  0.01491  1.0000
  H   H143      1.0  0.38017  0.13707  0.94645  1.0000
  H   H144      1.0  0.39273  0.17695  0.96843  1.0000
  H   H145      1.0  0.35386  0.12363  0.77821  1.0000
  Fe  Fe21      1.0  0.06705  0.18378  0.68783  1.0000
  C   C132      1.0  0.30726  0.03468  0.81559  1.0000
  H   H146      1.0  0.42574  0.18858  0.71614  1.0000
  H   H147      1.0  0.07057  0.11093  0.72943  1.0000
  C   C133      1.0  0.16106  0.26931  0.61237  1.0000
  S   S44       1.0  0.38004  0.19742  0.01850  1.0000
  C   C134      1.0  0.09014  0.09921  0.66789  1.0000
  H   H148      1.0  0.08084  0.04464  0.67129  1.0000
  C   C135      1.0  0.20144  0.20181  0.58690  1.0000
  H   H149      1.0  0.50602  0.11063  0.85055  1.0000
  H   H150      1.0  0.36506  0.25700  0.97109  1.0000
  C   C136      1.0  0.05021  0.27644  0.86767  1.0000
  C   C137      1.0  0.33028  0.27063  0.54268  1.0000
  C   C138      1.0  0.26423  0.05148  0.81489  1.0000
  H   H151      1.0  0.35976  0.13572  0.69671  1.0000
  H   H152      1.0  0.40949  0.16045  0.65393  1.0000
  H   H153      1.0  0.15702  0.25613  0.67676  1.0000
  H   H154      1.0  0.51575  0.10424  0.78120  1.0000
  C   C139      1.0  0.39704  0.15349  0.67019  1.0000
  C   C140      1.0  0.43394  0.14290  0.69491  1.0000
  H   H155      1.0  0.04674  0.22778  0.76725  1.0000
  H   H156      1.0  0.44574  0.14665  0.71206  1.0000
  C   C141      1.0  0.23356  0.17875  0.54887  1.0000
  N   N10       1.0  0.07797  0.09213  0.69303  1.0000
  H   H157      1.0  0.12721  0.04757  0.75401  1.0000
  H   H158      1.0  0.42586  0.19221  0.68191  1.0000
  S   S45       1.0  0.52382  0.21582  0.78531  1.0000
  C   C142      1.0  0.36877  0.13748  0.71525  1.0000
  C   C143      1.0  0.49236  0.07565  0.81657  1.0000
  H   H159      1.0  0.08782  0.08434  0.65301  1.0000
  C   C144      1.0  0.39366  0.14782  0.71797  1.0000
  H   H160      1.0  0.42204  0.15676  0.74714  1.0000
  H   H161      1.0  0.47737  0.08923  0.82334  1.0000
  H   H162      1.0  0.39682  0.14174  0.78414  1.0000
  H   H163      1.0  0.27156  0.14543  0.55646  1.0000
  H   H164      1.0  0.50386  0.21087  0.56354  1.0000
  H   H165      1.0  0.52498  0.06309  0.77216  1.0000
  H   H166      1.0  0.39322  0.13307  0.66632  1.0000
  H   H167      1.0  0.26115  0.20693  0.56167  1.0000
  H   H168      1.0  0.04045  0.10433  0.68127  1.0000
  C   C145      1.0  0.40325  0.14922  0.74348  1.0000
  H   H169      1.0  0.37889  0.16446  0.66885  1.0000
  C   C146      1.0  0.28545  0.26518  0.55328  1.0000
  H   H170      1.0  0.03486  0.15020  0.72786  1.0000
  H   H171      1.0  0.23323  0.22630  0.59422  1.0000
  H   H172      1.0  0.39647  0.19561  0.69996  1.0000
  C   C147      1.0  0.30889  0.25490  0.54489  1.0000
  C   C148      1.0  0.41454  0.18447  0.69859  1.0000
  H   H173      1.0  0.38718  0.05464  0.96901  1.0000
  H   H174      1.0  0.44589  0.14842  0.67787  1.0000
  H   H175      1.0  0.05779  0.25710  0.87169  1.0000
  H   H176      1.0  0.48774  0.07112  0.79618  1.0000
  N   N11       1.0  0.40932  0.15694  0.69567  1.0000
  H   H177      1.0  0.19978  0.15490  0.54279  1.0000
  C   C149      1.0  0.24211  0.19929  0.56416  1.0000
  H   H178      1.0  0.49010  0.05789  0.82824  1.0000
  C   C150      1.0  0.35466  0.12891  0.73682  1.0000
  H   H179      1.0  0.08185  0.11710  0.65980  1.0000
  H   H180      1.0  0.52467  0.22457  0.61756  1.0000
  H   H181      1.0  0.42647  0.16412  0.02695  1.0000
  N   N12       1.0  0.28733  0.15187  0.94495  1.0000
  C   C151      1.0  0.26398  0.14858  0.92936  1.0000
  C   C152      1.0  0.30959  0.14588  0.92796  1.0000
  C   C153      1.0  0.28627  0.13298  0.96642  1.0000
  C   C154      1.0  0.29010  0.17775  0.95567  1.0000
  C   C155      1.0  0.31164  0.18380  0.97075  1.0000
  C   C156      1.0  0.27169  0.19740  0.95202  1.0000
  C   C157      1.0  0.31464  0.20784  0.98156  1.0000
  C   C158      1.0  0.27489  0.22146  0.96292  1.0000
  C   C159      1.0  0.29634  0.22665  0.97760  1.0000
  H   H182      1.0  0.26387  0.16178  0.91240  1.0000
  H   H183      1.0  0.26272  0.12897  0.92141  1.0000
  H   H184      1.0  0.24632  0.15162  0.94121  1.0000
  H   H185      1.0  0.31165  0.16000  0.91193  1.0000
  H   H186      1.0  0.30790  0.12665  0.91927  1.0000
  H   H187      1.0  0.32786  0.14558  0.93859  1.0000
  H   H188      1.0  0.27011  0.13702  0.98001  1.0000
  H   H189      1.0  0.28422  0.11320  0.95917  1.0000
  H   H190      1.0  0.30398  0.13282  0.97797  1.0000
  H   H191      1.0  0.32625  0.16983  0.97457  1.0000
  H   H192      1.0  0.25455  0.19465  0.94107  1.0000
  H   H193      1.0  0.33113  0.21170  0.99339  1.0000
  H   H194      1.0  0.50790  0.12456  0.80731  1.0000
  H   H195      1.0  0.36183  0.25199  0.01851  1.0000
  C   C160      1.0  0.20809  0.17027  0.55346  1.0000
  C   C161      1.0  0.36477  0.13042  0.76155  1.0000
  C   C162      1.0  0.09060  0.06908  0.70361  1.0000
  C   C163      1.0  0.38897  0.14064  0.76486  1.0000
  H   H196      1.0  0.43087  0.12197  0.69430  1.0000
  C   C164      1.0  0.05158  0.26800  0.76099  1.0000
  H   H197      1.0  0.17306  0.17497  0.57563  1.0000
  C   C165      1.0  0.38581  0.03748  0.98074  1.0000
  H   H198      1.0  0.09795  0.26030  0.88330  1.0000
  H   H199      1.0  0.11103  0.10233  0.67013  1.0000
  H   H200      1.0  0.23795  0.03239  0.78970  1.0000
  H   H201      1.0  0.26883  0.25314  0.55507  1.0000
  C   C166      1.0  0.52088  0.10872  0.80147  1.0000
  C   C167      1.0  0.04016  0.24662  0.77239  1.0000
  H   H202      1.0  0.47438  0.19514  0.56993  1.0000
  S   S46       1.0  0.03267  0.16290  0.67280  1.0000
  C   C168      1.0  0.35147  0.26854  0.98189  1.0000
  C   C169      1.0  0.10410  0.06898  0.72729  1.0000
  H   H203      1.0  0.25781  0.23796  0.01404  1.0000
  H   H204      1.0  0.10618  0.08581  0.73892  1.0000
  H   H205      1.0  0.06985  0.13147  0.70172  1.0000
  H   H206      1.0  0.25010  0.06500  0.82175  1.0000
  H   H207      1.0  0.52504  0.18543  0.64400  1.0000
  C   C170      1.0  0.07962  0.11458  0.71016  1.0000
  C   C171      1.0  0.26060  0.25337  0.02737  1.0000
  H   H208      1.0  0.04065  0.08150  0.70730  1.0000
  Fe  Fe22      1.0  0.51908  0.19449  0.74777  1.0000
  H   H209      1.0  0.29850  0.24511  0.98643  1.0000
  C   C172      1.0  0.05045  0.08713  0.68887  1.0000
  H   H210      1.0  0.04725  0.07191  0.67455  1.0000
  H   H211      1.0  0.09918  0.27602  0.65021  1.0000
  C   C173      1.0  0.11636  0.04701  0.73630  1.0000
  H   H212      1.0  0.32658  0.03529  0.82264  1.0000
  H   H213      1.0  0.15550  0.26170  0.59392  1.0000
  Fe  Fe23      1.0  0.39233  0.17017  0.54214  1.0000
  C   C174      1.0  0.27500  0.15919  0.54033  1.0000
  H   H214      1.0  0.03264  0.27335  0.85614  1.0000
  C   C175      1.0  0.34970  0.26565  0.00865  1.0000
  H   H215      1.0  0.45138  0.22749  0.54135  1.0000
  S   S47       1.0  0.31050  0.22234  0.53737  1.0000
  C   C176      1.0  0.24800  0.27657  0.02346  1.0000
  H   H216      1.0  0.48157  0.24275  0.53742  1.0000
  H   H217      1.0  0.44596  0.18343  0.53659  1.0000
  S   S48       1.0  0.17708  0.37346  0.06847  1.0000
  Fe  Fe24      1.0  0.46328  0.35703  0.20673  1.0000
  S   S49       1.0  0.45042  0.36493  0.24759  1.0000
  S   S50       1.0  0.43347  0.34236  0.17879  1.0000
  S   S51       1.0  0.50460  0.39443  0.25562  1.0000
  Fe  Fe25      1.0  0.49031  0.35431  0.25875  1.0000
  S   S52       1.0  0.49559  0.33431  0.29726  1.0000
  Fe  Fe26      1.0  0.46576  0.40419  0.24094  1.0000
  S   S53       1.0  0.44558  0.43844  0.25773  1.0000
  S   S54       1.0  0.47610  0.39747  0.19943  1.0000
  H   H218      1.0  0.11473  0.46827  0.23643  1.0000
  H   H219      1.0  0.52769  0.30396  0.26257  1.0000
  Fe  Fe27      1.0  0.18803  0.46418  0.35590  1.0000
  S   S55       1.0  0.22823  0.44967  0.35893  1.0000
  S   S56       1.0  0.15523  0.43815  0.34604  1.0000
  Fe  Fe28      1.0  0.22933  0.47141  0.39602  1.0000
  S   S57       1.0  0.25074  0.45797  0.43120  1.0000
  Fe  Fe29      1.0  0.23913  0.48665  0.33974  1.0000
  S   S58       1.0  0.26926  0.48575  0.30807  1.0000
  S   S59       1.0  0.18813  0.48308  0.39496  1.0000
  Fe  Fe30      1.0  0.08836  0.33951  0.18339  1.0000
  S   S60       1.0  0.07887  0.38109  0.18224  1.0000
  S   S61       1.0  0.10190  0.31828  0.14791  1.0000
  Fe  Fe31      1.0  0.07264  0.33383  0.24012  1.0000
  S   S62       1.0  0.06199  0.37511  0.24322  1.0000
  S   S63       1.0  0.06862  0.31084  0.27707  1.0000
  S   S64       1.0  0.24384  0.50728  0.37711  1.0000
  Fe  Fe32      1.0  0.09830  0.38226  0.22091  1.0000
  S   S65       1.0  0.12773  0.41240  0.22966  1.0000
  S   S66       1.0  0.05157  0.32781  0.20323  1.0000
  S   S67       1.0  0.11039  0.34130  0.22029  1.0000
  S   S68       1.0  0.19730  0.38711  0.51589  1.0000
  H   H220      1.0  0.16703  0.34949  0.18279  1.0000
  H   H221      1.0  0.21736  0.33438  0.49863  1.0000
  C   C177      1.0  0.21218  0.40680  0.49225  1.0000
  C   C178      1.0  0.19786  0.41647  0.47160  1.0000
  C   C179      1.0  0.20935  0.43229  0.45267  1.0000
  C   C180      1.0  0.23527  0.43836  0.45427  1.0000
  C   C181      1.0  0.24954  0.42862  0.47480  1.0000
  C   C182      1.0  0.23807  0.41294  0.49367  1.0000
  H   H222      1.0  0.17783  0.41176  0.47025  1.0000
  H   H223      1.0  0.19820  0.43965  0.43681  1.0000
  H   H224      1.0  0.26967  0.43299  0.47595  1.0000
  H   H225      1.0  0.24950  0.40546  0.50903  1.0000
  C   C183      1.0  0.14907  0.42982  0.31359  1.0000
  C   C184      1.0  0.16314  0.44024  0.29290  1.0000
  C   C185      1.0  0.15670  0.43439  0.26727  1.0000
  C   C186      1.0  0.13628  0.41799  0.26213  1.0000
  C   C187      1.0  0.12244  0.40734  0.28284  1.0000
  C   C188      1.0  0.12878  0.41330  0.30845  1.0000
  H   H226      1.0  0.17885  0.45294  0.29661  1.0000
  H   H227      1.0  0.16748  0.44272  0.25135  1.0000
  H   H228      1.0  0.10665  0.39474  0.27912  1.0000
  H   H229      1.0  0.11783  0.40512  0.32433  1.0000
  C   C189      1.0  0.20264  0.33740  0.19913  1.0000
  H   H230      1.0  0.22940  0.50414  0.45483  1.0000
  C   C190      1.0  0.06277  0.36822  0.05889  1.0000
  C   C191      1.0  0.03115  0.28148  0.38177  1.0000
  H   H231      1.0  0.03698  0.29487  0.36678  1.0000
  C   C192      1.0  0.27988  0.38008  0.43640  1.0000
  H   H232      1.0  0.13154  0.51529  0.30949  1.0000
  C   C193      1.0  0.43088  0.46079  0.23725  1.0000
  C   C194      1.0  0.41576  0.48001  0.24827  1.0000
  C   C195      1.0  0.40337  0.49791  0.23251  1.0000
  C   C196      1.0  0.40616  0.49677  0.20562  1.0000
  C   C197      1.0  0.42132  0.47757  0.19457  1.0000
  C   C198      1.0  0.43373  0.45964  0.21035  1.0000
  H   H233      1.0  0.41330  0.48081  0.26907  1.0000
  H   H234      1.0  0.28396  0.35439  0.50930  1.0000
  H   H235      1.0  0.42357  0.47664  0.17376  1.0000
  H   H236      1.0  0.44550  0.44501  0.20168  1.0000
  C   C199      1.0  0.22980  0.49193  0.49474  1.0000
  C   C200      1.0  0.42830  0.31056  0.16871  1.0000
  H   H237      1.0  0.12568  0.37802  0.04465  1.0000
  C   C201      1.0  0.40798  0.30562  0.15199  1.0000
  H   H238      1.0  0.43282  0.28221  0.40081  1.0000
  H   H239      1.0  0.39595  0.32111  0.14558  1.0000
  C   C202      1.0  0.15672  0.35779  0.09087  1.0000
  C   C203      1.0  0.14877  0.37034  0.11346  1.0000
  C   C204      1.0  0.13172  0.35856  0.13107  1.0000
  C   C205      1.0  0.12289  0.33398  0.12634  1.0000
  C   C206      1.0  0.13118  0.32131  0.10401  1.0000
  C   C207      1.0  0.14797  0.33317  0.08632  1.0000
  H   H240      1.0  0.15556  0.38936  0.11723  1.0000
  H   H241      1.0  0.12564  0.36841  0.14840  1.0000
  H   H242      1.0  0.12455  0.30221  0.10038  1.0000
  H   H243      1.0  0.15425  0.32310  0.06934  1.0000
  H   H244      1.0  0.10220  0.40096  0.05511  1.0000
  C   C208      1.0  0.18879  0.32609  0.15636  1.0000
  C   C209      1.0  0.26666  0.29250  0.06284  1.0000
  C   C210      1.0  0.25728  0.38630  0.42395  1.0000
  S   S69       1.0  0.19869  0.49973  0.33401  1.0000
  H   H245      1.0  0.14053  0.48352  0.31936  1.0000
  H   H246      1.0  0.17429  0.32789  0.14187  1.0000
  H   H247      1.0  0.07251  0.44813  0.23345  1.0000
  H   H248      1.0  0.24094  0.31391  0.03880  1.0000
  H   H249      1.0  0.26916  0.30777  0.07645  1.0000
  H   H250      1.0  0.27580  0.29697  0.49833  1.0000
  H   H251      1.0  0.19921  0.34723  0.21723  1.0000
  H   H252      1.0  0.22513  0.30946  0.47571  1.0000
  H   H253      1.0  0.29745  0.38953  0.43060  1.0000
  C   C211      1.0  0.22514  0.32362  0.19515  1.0000
  H   H254      1.0  0.31169  0.50911  0.37073  1.0000
  H   H255      1.0  0.25468  0.45368  0.52332  1.0000
  Fe  Fe33      1.0  0.04355  0.36964  0.20460  1.0000
  C   C212      1.0  0.27978  0.36234  0.45672  1.0000
  H   H256      1.0  0.19992  0.33004  0.10464  1.0000
  C   C213      1.0  0.23448  0.37488  0.43180  1.0000
  H   H257      1.0  0.49599  0.45775  0.23826  1.0000
  C   C214      1.0  0.09280  0.48042  0.29812  1.0000
  H   H258      1.0  0.04428  0.28485  0.31921  1.0000
  C   C215      1.0  0.23205  0.32003  0.49278  1.0000
  H   H259      1.0  0.11036  0.37483  0.07555  1.0000
  C   C216      1.0  0.19300  0.28155  0.12174  1.0000
  N   N13       1.0  0.10028  0.49162  0.32309  1.0000
  H   H260      1.0  0.25727  0.40065  0.40873  1.0000
  H   H261      1.0  0.23923  0.32281  0.21029  1.0000
  C   C217      1.0  0.09627  0.47276  0.34434  1.0000
  H   H262      1.0  0.26499  0.33291  0.52796  1.0000
  H   H263      1.0  0.13296  0.50697  0.34294  1.0000
  H   H264      1.0  0.25623  0.29386  0.12699  1.0000
  C   C218      1.0  0.06164  0.35980  0.08509  1.0000
  H   H265      1.0  0.04253  0.44892  0.27086  1.0000
  H   H266      1.0  0.08948  0.52347  0.34689  1.0000
  C   C219      1.0  0.28255  0.51493  0.29812  1.0000
  H   H267      1.0  0.10533  0.47869  0.36269  1.0000
  C   C220      1.0  0.10706  0.38035  0.05511  1.0000
  N   N14       1.0  0.08658  0.36509  0.04337  1.0000
  H   H268      1.0  0.23377  0.33020  0.10810  1.0000
  H   H269      1.0  0.39124  0.51223  0.24118  1.0000
  C   C221      1.0  0.03969  0.36318  0.10040  1.0000
  C   C222      1.0  0.06103  0.45793  0.27231  1.0000
  C   C223      1.0  0.10918  0.48027  0.27593  1.0000
  C   C224      1.0  0.27606  0.31149  0.48247  1.0000
  C   C225      1.0  0.50184  0.51775  0.19456  1.0000
  H   H270      1.0  0.29769  0.35862  0.46617  1.0000
  C   C226      1.0  0.19494  0.51499  0.47494  1.0000
  C   C227      1.0  0.21701  0.31754  0.10554  1.0000
  H   H271      1.0  0.21891  0.30841  0.08627  1.0000
  C   C228      1.0  0.25688  0.35025  0.46519  1.0000
  C   C229      1.0  0.44376  0.29031  0.17675  1.0000
  C   C230      1.0  0.21910  0.50398  0.47322  1.0000
  C   C231      1.0  0.48565  0.49723  0.23355  1.0000
  C   C232      1.0  0.10158  0.46912  0.25284  1.0000
  N   N15       1.0  0.21508  0.29840  0.12671  1.0000
  H   H272      1.0  0.27216  0.30166  0.46397  1.0000
  C   C233      1.0  0.22957  0.31092  0.17178  1.0000
  H   H273      1.0  0.31057  0.49723  0.27317  1.0000
  C   C234      1.0  0.04770  0.28485  0.27767  1.0000
  C   C235      1.0  0.18128  0.51400  0.49826  1.0000
  H   H274      1.0  0.21682  0.38046  0.42257  1.0000
  C   C236      1.0  0.23410  0.35722  0.45219  1.0000
  H   H275      1.0  0.29637  0.40785  0.24671  1.0000
  H   H276      1.0  0.25078  0.36132  0.51526  1.0000
  H   H277      1.0  0.21558  0.34991  0.45782  1.0000
  C   C237      1.0  0.30318  0.51501  0.28051  1.0000
  C   C238      1.0  0.21128  0.31160  0.15169  1.0000
  H   H278      1.0  0.52105  0.45578  0.19747  1.0000
  C   C239      1.0  0.07776  0.45765  0.25113  1.0000
  H   H279      1.0  0.30576  0.45204  0.25902  1.0000
  H   H280      1.0  0.51397  0.31289  0.34414  1.0000
  S   S70       1.0  0.50250  0.34340  0.21834  1.0000
  N   N16       1.0  0.25720  0.33214  0.48730  1.0000
  C   C240      1.0  0.26460  0.34584  0.51088  1.0000
  H   H281      1.0  0.07578  0.46948  0.34897  1.0000
  H   H282      1.0  0.29603  0.31858  0.48160  1.0000
  Fe  Fe34      1.0  0.51410  0.38471  0.21455  1.0000
  N   N17       1.0  0.37560  0.39869  0.20334  1.0000
  C   C241      1.0  0.38283  0.41281  0.17935  1.0000
  C   C242      1.0  0.39863  0.39550  0.21935  1.0000
  C   C243      1.0  0.36722  0.37291  0.19555  1.0000
  C   C244      1.0  0.35596  0.41305  0.21817  1.0000
  C   C245      1.0  0.36064  0.43851  0.22569  1.0000
  C   C246      1.0  0.33219  0.40230  0.22618  1.0000
  C   C247      1.0  0.34270  0.45238  0.24012  1.0000
  C   C248      1.0  0.31437  0.41635  0.24067  1.0000
  C   C249      1.0  0.31961  0.44132  0.24764  1.0000
  H   H283      1.0  0.39222  0.43123  0.18340  1.0000
  H   H284      1.0  0.39680  0.40187  0.16728  1.0000
  H   H285      1.0  0.36578  0.41690  0.16739  1.0000
  H   H286      1.0  0.40705  0.41395  0.22491  1.0000
  H   H287      1.0  0.41392  0.38484  0.20883  1.0000
  H   H288      1.0  0.39418  0.38496  0.23762  1.0000
  H   H289      1.0  0.34996  0.37383  0.18328  1.0000
  H   H290      1.0  0.38231  0.36288  0.18401  1.0000
  H   H291      1.0  0.36336  0.36044  0.21265  1.0000
  H   H292      1.0  0.37838  0.44784  0.22068  1.0000
  H   H293      1.0  0.32694  0.38304  0.22165  1.0000
  H   H294      1.0  0.34685  0.47180  0.24559  1.0000
  H   H295      1.0  0.17494  0.29232  0.11902  1.0000
  H   H296      1.0  0.07788  0.35085  0.09423  1.0000
  H   H297      1.0  0.33092  0.27785  0.04361  1.0000
  C   C250      1.0  0.51871  0.31067  0.30273  1.0000
  C   C251      1.0  0.49792  0.47467  0.22622  1.0000
  H   H298      1.0  0.45947  0.29381  0.18957  1.0000
  C   C252      1.0  0.51387  0.49501  0.18734  1.0000
  C   C253      1.0  0.18453  0.33867  0.17973  1.0000
  H   H299      1.0  0.10474  0.45403  0.33913  1.0000
  H   H300      1.0  0.47460  0.49639  0.25135  1.0000
  H   H301      1.0  0.23309  0.30623  0.50922  1.0000
  C   C254      1.0  0.48725  0.51956  0.21788  1.0000
  C   C255      1.0  0.06827  0.46934  0.29542  1.0000
  H   H302      1.0  0.04747  0.27986  0.23640  1.0000
  H   H303      1.0  0.34497  0.51917  0.33783  1.0000
  C   C256      1.0  0.51195  0.47352  0.20318  1.0000
  S   S71       1.0  0.39089  0.51898  0.18542  1.0000
  C   C257      1.0  0.12746  0.49971  0.32361  1.0000
  H   H304      1.0  0.24831  0.48324  0.49166  1.0000
  C   C258      1.0  0.08425  0.51433  0.32835  1.0000
  H   H305      1.0  0.16221  0.52208  0.49933  1.0000
  H   H306      1.0  0.12828  0.48789  0.27603  1.0000
  C   C259      1.0  0.23849  0.28234  0.12562  1.0000
  C   C260      1.0  0.52419  0.30383  0.32834  1.0000
  C   C261      1.0  0.09445  0.33794  0.04316  1.0000
  H   H307      1.0  0.05465  0.46907  0.31130  1.0000
  H   H308      1.0  0.09864  0.33044  0.06275  1.0000
  C   C262      1.0  0.21645  0.49068  0.51889  1.0000
  H   H309      1.0  0.03943  0.35671  0.12041  1.0000
  C   C263      1.0  0.25075  0.29602  0.04148  1.0000
  H   H310      1.0  0.52442  0.49385  0.16918  1.0000
  H   H311      1.0  0.06360  0.50956  0.32977  1.0000
  H   H312      1.0  0.18665  0.52387  0.45796  1.0000
  H   H313      1.0  0.24744  0.30074  0.16993  1.0000
  Fe  Fe35      1.0  0.20252  0.51743  0.37334  1.0000
  C   C264      1.0  0.19179  0.50203  0.51994  1.0000
  C   C265      1.0  0.40315  0.28077  0.14330  1.0000
  C   C266      1.0  0.04059  0.38044  0.04911  1.0000
  H   H314      1.0  0.26700  0.48426  0.53293  1.0000
  H   H315      1.0  0.38750  0.27731  0.13038  1.0000
  H   H316      1.0  0.20970  0.44220  0.53365  1.0000
  H   H317      1.0  0.23476  0.49724  0.74011  1.0000
  Fe  Fe36      1.0  0.32875  0.47730  0.84980  1.0000
  S   S72       1.0  0.32819  0.49073  0.89087  1.0000
  S   S73       1.0  0.29175  0.48182  0.82817  1.0000
  Fe  Fe37      1.0  0.38283  0.45609  0.85438  1.0000
  S   S74       1.0  0.38598  0.46759  0.89584  1.0000
  S   S75       1.0  0.41683  0.44043  0.83215  1.0000
  Fe  Fe38      1.0  0.34568  0.45280  0.90011  1.0000
  S   S76       1.0  0.33282  0.42930  0.93503  1.0000
  H   H318      1.0  0.27127  0.31756  0.94010  1.0000
  S   S77       1.0  0.34400  0.43834  0.85946  1.0000
  S   S78       1.0  0.36736  0.49383  0.84058  1.0000
  H   H319      1.0  0.25949  0.41549  0.66032  1.0000
  S   S79       1.0  0.16892  0.31854  0.01798  1.0000
  Fe  Fe39      1.0  0.19942  0.36949  0.97284  1.0000
  S   S80       1.0  0.18763  0.33095  0.95870  1.0000
  S   S81       1.0  0.21615  0.39723  0.94337  1.0000
  Fe  Fe40      1.0  0.15194  0.33675  0.98268  1.0000
  S   S82       1.0  0.11198  0.32280  0.97382  1.0000
  Fe  Fe41      1.0  0.20551  0.31660  0.99525  1.0000
  H   H320      1.0  0.29561  0.46912  0.94395  1.0000
  S   S83       1.0  0.16209  0.37646  0.99417  1.0000
  S   S84       1.0  0.21965  0.35470  0.00783  1.0000
  S   S85       1.0  0.50340  0.37749  0.88931  1.0000
  H   H321      1.0  0.17840  0.30306  0.59554  1.0000
  S   S86       1.0  0.03982  0.37327  0.88992  1.0000
  N   N18       1.0  0.46972  0.49714  0.87309  1.0000
  H   H322      1.0  0.44345  0.47951  0.90050  1.0000
  S   S87       1.0  0.25642  0.39412  0.56023  1.0000
  Fe  Fe42      1.0  0.21446  0.35475  0.60736  1.0000
  S   S88       1.0  0.25391  0.36828  0.61746  1.0000
  S   S89       1.0  0.19300  0.33421  0.63971  1.0000
  Fe  Fe43      1.0  0.24191  0.40528  0.59938  1.0000
  S   S90       1.0  0.25502  0.44447  0.61088  1.0000
  Fe  Fe44      1.0  0.26460  0.35577  0.57733  1.0000
  H   H323      1.0  0.03964  0.38765  0.02958  1.0000
  S   S91       1.0  0.20172  0.39302  0.59199  1.0000
  S   S92       1.0  0.22602  0.33969  0.56829  1.0000
  H   H324      1.0  0.25735  0.45026  0.97122  1.0000
  C   C267      1.0  0.18062  0.30308  0.63707  1.0000
  C   C268      1.0  0.12046  0.32995  0.88925  1.0000
  C   C269      1.0  0.46626  0.52172  0.88672  1.0000
  C   C270      1.0  0.13194  0.31064  0.90357  1.0000
  H   H325      1.0  0.29810  0.50304  0.94283  1.0000
  C   C271      1.0  0.28973  0.48688  0.95395  1.0000
  C   C272      1.0  0.33576  0.28602  0.96910  1.0000
  C   C273      1.0  0.50480  0.33072  0.82805  1.0000
  Fe  Fe45      1.0  0.36821  0.50421  0.88243  1.0000
  H   H326      1.0  0.09273  0.29111  0.81948  1.0000
  H   H327      1.0  0.43132  0.49566  0.85846  1.0000
  C   C274      1.0  0.28315  0.33355  0.98588  1.0000
  C   C275      1.0  0.25362  0.42423  0.67842  1.0000
  N   N19       1.0  0.22709  0.47816  0.54216  1.0000
  H   H328      1.0  0.23731  0.51434  0.55822  1.0000
  C   C276      1.0  0.09233  0.33706  0.95032  1.0000
  C   C277      1.0  0.07103  0.32367  0.94151  1.0000
  C   C278      1.0  0.05491  0.33442  0.92281  1.0000
  C   C279      1.0  0.05971  0.35887  0.91316  1.0000
  C   C280      1.0  0.08078  0.37241  0.92229  1.0000
  C   C281      1.0  0.09712  0.36154  0.94074  1.0000
  H   H329      1.0  0.06730  0.30468  0.94881  1.0000
  H   H330      1.0  0.26117  0.45957  0.55630  1.0000
  H   H331      1.0  0.08464  0.39134  0.91484  1.0000
  H   H332      1.0  0.11346  0.37203  0.94742  1.0000
  H   H333      1.0  0.25426  0.52191  0.72707  1.0000
  H   H334      1.0  0.14747  0.37960  0.65461  1.0000
  C   C282      1.0  0.44062  0.42342  0.84885  1.0000
  C   C283      1.0  0.46525  0.42204  0.83799  1.0000
  C   C284      1.0  0.48459  0.40819  0.85033  1.0000
  C   C285      1.0  0.47952  0.39560  0.87374  1.0000
  C   C286      1.0  0.45500  0.39744  0.88498  1.0000
  C   C287      1.0  0.43558  0.41138  0.87261  1.0000
  H   H335      1.0  0.46944  0.43171  0.81988  1.0000
  H   H336      1.0  0.50337  0.40734  0.84162  1.0000
  H   H337      1.0  0.45091  0.38789  0.90318  1.0000
  H   H338      1.0  0.41666  0.41246  0.88125  1.0000
  C   C288      1.0  0.30105  0.41801  0.93629  1.0000
  C   C289      1.0  0.28468  0.42165  0.91547  1.0000
  C   C290      1.0  0.25901  0.41404  0.91754  1.0000
  C   C291      1.0  0.24932  0.40311  0.94050  1.0000
  C   C292      1.0  0.26582  0.39901  0.96120  1.0000
  C   C293      1.0  0.29163  0.40636  0.95904  1.0000
  H   H339      1.0  0.29168  0.43063  0.89785  1.0000
  H   H340      1.0  0.24649  0.41706  0.90134  1.0000
  H   H341      1.0  0.25843  0.39122  0.97921  1.0000
  H   H342      1.0  0.30414  0.40376  0.97533  1.0000
  C   C294      1.0  0.20498  0.49757  0.65975  1.0000
  C   C295      1.0  0.22850  0.50568  0.64965  1.0000
  C   C296      1.0  0.24359  0.48913  0.63472  1.0000
  C   C297      1.0  0.23515  0.46447  0.62948  1.0000
  C   C298      1.0  0.21138  0.45645  0.63904  1.0000
  C   C299      1.0  0.19636  0.47299  0.65423  1.0000
  H   H343      1.0  0.07074  0.39510  0.68038  1.0000
  H   H344      1.0  0.26192  0.49546  0.62722  1.0000
  H   H345      1.0  0.20477  0.43742  0.63514  1.0000
  H   H346      1.0  0.17815  0.46661  0.66198  1.0000
  C   C300      1.0  0.49759  0.38808  0.76889  1.0000
  C   C301      1.0  0.12883  0.37293  0.66117  1.0000
  H   H347      1.0  0.19111  0.46170  0.55503  1.0000
  H   H348      1.0  0.47472  0.30750  0.77545  1.0000
  N   N20       1.0  0.26143  0.48846  0.95659  1.0000
  C   C302      1.0  0.06983  0.30228  0.68216  1.0000
  C   C303      1.0  0.31644  0.29777  0.01017  1.0000
  C   C304      1.0  0.46064  0.32016  0.82426  1.0000
  C   C305      1.0  0.24922  0.48345  0.93145  1.0000
  H   H349      1.0  0.10258  0.37031  0.00493  1.0000
  H   H350      1.0  0.12192  0.29990  0.64252  1.0000
  C   C306      1.0  0.22694  0.47413  0.88269  1.0000
  H   H351      1.0  0.47253  0.41963  0.76100  1.0000
  H   H352      1.0  0.33778  0.28747  0.94831  1.0000
  H   H353      1.0  0.21326  0.41433  0.72933  1.0000
  H   H354      1.0  0.51867  0.35514  0.77962  1.0000
  H   H355      1.0  0.29362  0.34548  0.99986  1.0000
  H   H356      1.0  0.10928  0.30665  0.71358  1.0000
  H   H357      1.0  0.05170  0.30897  0.75900  1.0000
  H   H358      1.0  0.50807  0.31334  0.77937  1.0000
  S   S93       1.0  0.18619  0.51764  0.67950  1.0000
  C   C307      1.0  0.26387  0.51370  0.79748  1.0000
  C   C308      1.0  0.11370  0.29881  0.69407  1.0000
  H   H359      1.0  0.03889  0.32375  0.91578  1.0000
  C   C309      1.0  0.08102  0.35540  0.67808  1.0000
  H   H360      1.0  0.50125  0.34624  0.84221  1.0000
  H   H361      1.0  0.51351  0.39603  0.75789  1.0000
  N   N21       1.0  0.30089  0.31914  0.96873  1.0000
  H   H362      1.0  0.45548  0.33368  0.84002  1.0000
  H   H363      1.0  0.04815  0.32769  0.86090  1.0000
  H   H364      1.0  0.22702  0.39449  0.68811  1.0000
  H   H365      1.0  0.27786  0.45570  0.67222  1.0000
  H   H366      1.0  0.52334  0.33470  0.81820  1.0000
  C   C310      1.0  0.12438  0.34686  0.66360  1.0000
  H   H367      1.0  0.29673  0.29543  0.93497  1.0000
  C   C311      1.0  0.22739  0.49642  0.56390  1.0000
  C   C312      1.0  0.48006  0.35377  0.79634  1.0000
  H   H368      1.0  0.27368  0.28989  0.96047  1.0000
  C   C313      1.0  0.45688  0.36793  0.79787  1.0000
  H   H369      1.0  0.30206  0.48378  0.69429  1.0000
  H   H370      1.0  0.20151  0.44895  0.90346  1.0000
  C   C314      1.0  0.10002  0.32458  0.87308  1.0000
  H   H371      1.0  0.06221  0.34997  0.68485  1.0000
  C   C315      1.0  0.50036  0.36464  0.78148  1.0000
  C   C316      1.0  0.12352  0.28570  0.90126  1.0000
  H   H372      1.0  0.12702  0.34937  0.89123  1.0000
  C   C317      1.0  0.17413  0.29269  0.61322  1.0000
  H   H373      1.0  0.13401  0.30310  0.68974  1.0000
  H   H374      1.0  0.27363  0.50923  0.90897  1.0000
  C   C318      1.0  0.22791  0.46698  0.92900  1.0000
  C   C319      1.0  0.21708  0.46241  0.90491  1.0000
  H   H375      1.0  0.50754  0.31267  0.83908  1.0000
  H   H376      1.0  0.49275  0.29007  0.79920  1.0000
  C   C320      1.0  0.28347  0.29096  0.55988  1.0000
  H   H377      1.0  0.44396  0.31782  0.81140  1.0000
  H   H378      1.0  0.43656  0.40200  0.78686  1.0000
  H   H379      1.0  0.29162  0.49730  0.74810  1.0000
  H   H380      1.0  0.26411  0.47320  0.99553  1.0000
  H   H381      1.0  0.30452  0.35240  0.94406  1.0000
  H   H382      1.0  0.44055  0.36167  0.80917  1.0000
  H   H383      1.0  0.23753  0.48842  0.58088  1.0000
  C   C321      1.0  0.50678  0.51452  0.84687  1.0000
  C   C322      1.0  0.31767  0.30117  0.98284  1.0000
  C   C323      1.0  0.21095  0.45610  0.54972  1.0000
  C   C324      1.0  0.10336  0.28002  0.88483  1.0000
  H   H384      1.0  0.06646  0.32764  0.83095  1.0000
  C   C325      1.0  0.48999  0.30915  0.79009  1.0000
  H   H385      1.0  0.21969  0.45661  0.94519  1.0000
  C   C326      1.0  0.04291  0.29236  0.76778  1.0000
  H   H386      1.0  0.32823  0.51673  0.80468  1.0000
  C   C327      1.0  0.22750  0.42364  0.71717  1.0000
  C   C328      1.0  0.45426  0.39127  0.78500  1.0000
  H   H387      1.0  0.23372  0.50447  0.70623  1.0000
  C   C329      1.0  0.47457  0.40135  0.77059  1.0000
  Fe  Fe46      1.0  0.18138  0.35779  0.02803  1.0000
  C   C330      1.0  0.09051  0.29939  0.87074  1.0000
  C   C331      1.0  0.10188  0.29704  0.64914  1.0000
  S   S94       1.0  0.23005  0.28128  0.99530  1.0000
  H   H388      1.0  0.11307  0.41050  0.66528  1.0000
  C   C332      1.0  0.30490  0.30668  0.55789  1.0000
  C   C333      1.0  0.25434  0.51438  0.96514  1.0000
  H   H389      1.0  0.09171  0.34062  0.86306  1.0000
  H   H390      1.0  0.29940  0.48692  0.97298  1.0000
  Fe  Fe47      1.0  0.21724  0.37923  0.55373  1.0000
  N   N22       1.0  0.26746  0.48403  0.71758  1.0000
  C   C334      1.0  0.28210  0.47963  0.74156  1.0000
  C   C335      1.0  0.28502  0.49593  0.69818  1.0000
  C   C336      1.0  0.28507  0.30487  0.95023  1.0000
  C   C337      1.0  0.25650  0.45961  0.70901  1.0000
  H   H391      1.0  0.34488  0.30860  0.54756  1.0000
  C   C338      1.0  0.23803  0.44681  0.72469  1.0000
  H   H392      1.0  0.26549  0.29853  0.56689  1.0000
  C   C339      1.0  0.23525  0.41240  0.69404  1.0000
  C   C340      1.0  0.25355  0.47019  0.97728  1.0000
  C   C341      1.0  0.07900  0.27919  0.83087  1.0000
  H   H393      1.0  0.26977  0.47304  0.75797  1.0000
  H   H394      1.0  0.27510  0.49979  0.67966  1.0000
  C   C342      1.0  0.45154  0.49607  0.85144  1.0000
  H   H395      1.0  0.27062  0.34656  0.97463  1.0000
  C   C343      1.0  0.49603  0.49473  0.86238  1.0000
  H   H396      1.0  0.45361  0.51260  0.83804  1.0000
  H   H397      1.0  0.23162  0.45464  0.74293  1.0000
  H   H398      1.0  0.21901  0.46995  0.86395  1.0000
  H   H399      1.0  0.29240  0.51457  0.70498  1.0000
  H   H400      1.0  0.23512  0.52466  0.65329  1.0000
  H   H401      1.0  0.21877  0.44578  0.56679  1.0000
  H   H402      1.0  0.06477  0.30955  0.70176  1.0000
  H   H403      1.0  0.46215  0.45773  0.88245  1.0000
  H   H404      1.0  0.11218  0.27771  0.69557  1.0000
  H   H405      1.0  0.20792  0.50132  0.57111  1.0000
  H   H406      1.0  0.08939  0.30467  0.63367  1.0000
  S   S95       1.0  0.30293  0.33918  0.56572  1.0000
  C   C344      1.0  0.51088  0.47215  0.86517  1.0000
  H   H407      1.0  0.03610  0.36278  0.97115  1.0000
  H   H408      1.0  0.24747  0.50288  0.80415  1.0000
  C   C345      1.0  0.24726  0.49097  0.88452  1.0000
  H   H409      1.0  0.32886  0.32914  0.93902  1.0000
  C   C346      1.0  0.26411  0.44751  0.68561  1.0000
  H   H410      1.0  0.30333  0.30825  0.02238  1.0000
  H   H411      1.0  0.18017  0.29718  0.67833  1.0000
  N   N23       1.0  0.06895  0.29298  0.85375  1.0000
  C   C347      1.0  0.28826  0.50751  0.80656  1.0000
  C   C348      1.0  0.10032  0.33720  0.67196  1.0000
  C   C349      1.0  0.46286  0.47662  0.89186  1.0000
  H   H412      1.0  0.04417  0.28505  0.88639  1.0000
  H   H413      1.0  0.50415  0.45572  0.87590  1.0000
  N   N24       1.0  0.09629  0.30940  0.67433  1.0000
  C   C350      1.0  0.05476  0.31573  0.84445  1.0000
  N   N25       1.0  0.48358  0.32890  0.80950  1.0000
  H   H414      1.0  0.03739  0.31046  0.83365  1.0000
  H   H415      1.0  0.23293  0.47206  0.98249  1.0000
  C   C351      1.0  0.17485  0.28944  0.65985  1.0000
  H   H416      1.0  0.47658  0.47565  0.90808  1.0000
  C   C352      1.0  0.10951  0.39026  0.66715  1.0000
  H   H417      1.0  0.27003  0.32060  0.99672  1.0000
  H   H418      1.0  0.32936  0.34858  0.96736  1.0000
  C   C353      1.0  0.31660  0.33802  0.95417  1.0000
  H   H419      1.0  0.29722  0.46496  0.73859  1.0000
  H   H420      1.0  0.14012  0.33428  0.65893  1.0000
  H   H421      1.0  0.08009  0.39409  0.01428  1.0000
  H   H422      1.0  0.46394  0.30134  0.83372  1.0000
  C   C354      1.0  0.08569  0.38152  0.67563  1.0000
  C   C355      1.0  0.25806  0.49588  0.90855  1.0000
  H   H423      1.0  0.45466  0.47864  0.83972  1.0000
  C   C356      1.0  0.24668  0.50261  0.72300  1.0000
  H   H424      1.0  0.05563  0.30929  0.66797  1.0000
  H   H425      1.0  0.25498  0.49985  0.86709  1.0000
  C   C357      1.0  0.30938  0.52154  0.79793  1.0000
  H   H426      1.0  0.48067  0.52399  0.90212  1.0000
  C   C358      1.0  0.32825  0.29650  0.54913  1.0000
  H   H427      1.0  0.14723  0.31507  0.91670  1.0000
  H   H428      1.0  0.07935  0.32577  0.03482  1.0000
  H   H429      1.0  0.11219  0.33493  0.03138  1.0000
  H   H430      1.0  0.23323  0.51636  0.96735  1.0000
  C   C359      1.0  0.08436  0.37342  0.01595  1.0000
  H   H431      1.0  0.06959  0.36231  0.00577  1.0000
  H   H432      1.0  0.52545  0.33671  0.97625  1.0000
  C   C360      1.0  0.33227  0.28025  0.02274  1.0000
  H   H433      1.0  0.26304  0.51900  0.98407  1.0000
  H   H434      1.0  0.44692  0.52326  0.89598  1.0000
  H   H435      1.0  0.52713  0.36918  0.96651  1.0000
  H   H436      1.0  0.06759  0.28126  0.68353  1.0000
  C   C361      1.0  0.25364  0.46864  0.53835  1.0000
  H   H437      1.0  0.18030  0.50124  0.53746  1.0000
  C   C362      1.0  0.38034  0.77284  0.49711  1.0000
  S   S96       1.0  0.23676  0.68220  0.51153  1.0000
  Fe  Fe48      1.0  0.18575  0.70806  0.46384  1.0000
  S   S97       1.0  0.22668  0.70175  0.45189  1.0000
  S   S98       1.0  0.15522  0.72007  0.43548  1.0000
  Fe  Fe49      1.0  0.22390  0.66495  0.47420  1.0000
  S   S99       1.0  0.24040  0.62619  0.46420  1.0000
  Fe  Fe50      1.0  0.23557  0.71966  0.49020  1.0000
  C   C363      1.0  0.45661  0.55171  0.20462  1.0000
  S   S100      1.0  0.18223  0.66967  0.48312  1.0000
  S   S101      1.0  0.19460  0.72806  0.50080  1.0000
  C   C364      1.0  0.27577  0.76343  0.51950  1.0000
  C   C365      1.0  0.33706  0.76570  0.48461  1.0000
  S   S102      1.0  0.05497  0.67746  0.19498  1.0000
  Fe  Fe51      1.0  0.36011  0.60973  0.18942  1.0000
  S   S103      1.0  0.36767  0.62417  0.22927  1.0000
  S   S104      1.0  0.34610  0.63895  0.16050  1.0000
  Fe  Fe52      1.0  0.37973  0.55664  0.20295  1.0000
  S   S105      1.0  0.38797  0.56690  0.24400  1.0000
  Fe  Fe53      1.0  0.35029  0.58736  0.24274  1.0000
  S   S106      1.0  0.32068  0.58979  0.27480  1.0000
  Fe  Fe54      1.0  0.40457  0.60254  0.22661  1.0000
  S   S107      1.0  0.44191  0.61638  0.24270  1.0000
  S   S108      1.0  0.34036  0.57411  0.20293  1.0000
  S   S109      1.0  0.39872  0.59112  0.18556  1.0000
  H   H438      1.0  0.32408  0.59736  0.33874  1.0000
  S   S110      1.0  0.18984  0.73603  0.07657  1.0000
  Fe  Fe55      1.0  0.21270  0.67727  0.11631  1.0000
  S   S111      1.0  0.21058  0.71635  0.13334  1.0000
  S   S112      1.0  0.22716  0.64306  0.13857  1.0000
  Fe  Fe56      1.0  0.17282  0.71963  0.11336  1.0000
  S   S113      1.0  0.13718  0.73918  0.12885  1.0000
  Fe  Fe57      1.0  0.22773  0.72905  0.09527  1.0000
  H   H439      1.0  0.07823  0.67879  0.11372  1.0000
  S   S114      1.0  0.17320  0.67926  0.09968  1.0000
  S   S115      1.0  0.23205  0.68967  0.07950  1.0000
  H   H440      1.0  0.24203  0.59987  0.37523  1.0000
  S   S116      1.0  0.18722  0.55700  0.38091  1.0000
  H   H441      1.0  0.26889  0.60643  0.26547  1.0000
  C   C366      1.0  0.31464  0.53798  0.27275  1.0000
  H   H442      1.0  0.27882  0.69342  0.04394  1.0000
  H   H443      1.0  0.28522  0.61815  0.34148  1.0000
  C   C367      1.0  0.46456  0.63110  0.22199  1.0000
  C   C368      1.0  0.46159  0.63134  0.19519  1.0000
  C   C369      1.0  0.47947  0.64402  0.17921  1.0000
  C   C370      1.0  0.50040  0.65652  0.18994  1.0000
  C   C371      1.0  0.50386  0.65549  0.21669  1.0000
  C   C372      1.0  0.48601  0.64274  0.23266  1.0000
  H   H444      1.0  0.44538  0.62207  0.18681  1.0000
  H   H445      1.0  0.47689  0.64458  0.15850  1.0000
  H   H446      1.0  0.05126  0.73289  0.25657  1.0000
  H   H447      1.0  0.48849  0.64248  0.25340  1.0000
  C   C373      1.0  0.30547  0.56095  0.28262  1.0000
  H   H448      1.0  0.33290  0.75721  0.50406  1.0000
  C   C374      1.0  0.28440  0.56097  0.29967  1.0000
  C   C375      1.0  0.19832  0.61054  0.52818  1.0000
  H   H449      1.0  0.27729  0.57875  0.30723  1.0000
  C   C376      1.0  0.31330  0.63925  0.15290  1.0000
  C   C377      1.0  0.30265  0.66089  0.14113  1.0000
  C   C378      1.0  0.27635  0.66200  0.13594  1.0000
  C   C379      1.0  0.26061  0.64134  0.14227  1.0000
  C   C380      1.0  0.27147  0.61936  0.15311  1.0000
  C   C381      1.0  0.29769  0.61837  0.15857  1.0000
  H   H450      1.0  0.31461  0.67706  0.13649  1.0000
  H   H451      1.0  0.26818  0.67905  0.12757  1.0000
  H   H452      1.0  0.25948  0.60316  0.15747  1.0000
  H   H453      1.0  0.30588  0.60142  0.16697  1.0000
  H   H454      1.0  0.44618  0.56945  0.20992  1.0000
  C   C382      1.0  0.07716  0.69439  0.17553  1.0000
  C   C383      1.0  0.10107  0.68341  0.17001  1.0000
  C   C384      1.0  0.11959  0.69683  0.15546  1.0000
  C   C385      1.0  0.11431  0.72141  0.14651  1.0000
  C   C386      1.0  0.09033  0.73232  0.15182  1.0000
  C   C387      1.0  0.07179  0.71886  0.16625  1.0000
  H   H455      1.0  0.10535  0.66447  0.17711  1.0000
  H   H456      1.0  0.13804  0.68827  0.15146  1.0000
  H   H457      1.0  0.08608  0.75120  0.14464  1.0000
  H   H458      1.0  0.05342  0.72745  0.17018  1.0000
  C   C388      1.0  0.22665  0.57574  0.51759  1.0000
  H   H459      1.0  0.04162  0.72997  0.05884  1.0000
  C   C389      1.0  0.09581  0.72048  0.47079  1.0000
  C   C390      1.0  0.22381  0.60659  0.44264  1.0000
  C   C391      1.0  0.23094  0.58092  0.44031  1.0000
  C   C392      1.0  0.21926  0.56526  0.42203  1.0000
  C   C393      1.0  0.20049  0.57527  0.40581  1.0000
  C   C394      1.0  0.19293  0.60074  0.40863  1.0000
  C   C395      1.0  0.20450  0.61636  0.42702  1.0000
  H   H460      1.0  0.24585  0.57321  0.45235  1.0000
  H   H461      1.0  0.22511  0.54561  0.42009  1.0000
  H   H462      1.0  0.17838  0.60858  0.39619  1.0000
  H   H463      1.0  0.19887  0.63611  0.42866  1.0000
  C   C396      1.0  0.14995  0.75252  0.42793  1.0000
  C   C397      1.0  0.04164  0.71784  0.07580  1.0000
  H   H464      1.0  0.12097  0.74429  0.40003  1.0000
  N   N26       1.0  0.08925  0.71744  0.25828  1.0000
  H   H465      1.0  0.06275  0.72008  0.22672  1.0000
  H   H466      1.0  0.48275  0.71872  0.19535  1.0000
  C   C398      1.0  0.28881  0.63557  0.22495  1.0000
  C   C399      1.0  0.10310  0.73995  0.24791  1.0000
  H   H467      1.0  0.25071  0.56727  0.37803  1.0000
  C   C400      1.0  0.28718  0.61862  0.36291  1.0000
  C   C401      1.0  0.25569  0.77386  0.04721  1.0000
  C   C402      1.0  0.06219  0.68926  0.10610  1.0000
  C   C403      1.0  0.28498  0.59570  0.40313  1.0000
  C   C404      1.0  0.29889  0.77360  0.06319  1.0000
  H   H468      1.0  0.24213  0.56285  0.52432  1.0000
  H   H469      1.0  0.28907  0.58339  0.22964  1.0000
  H   H470      1.0  0.49151  0.74615  0.28287  1.0000
  H   H471      1.0  0.06921  0.71402  0.51468  1.0000
  C   C405      1.0  0.25027  0.60322  0.25595  1.0000
  N   N27       1.0  0.08796  0.70695  0.06771  1.0000
  H   H472      1.0  0.12301  0.69409  0.25462  1.0000
  H   H473      1.0  0.44207  0.53670  0.20141  1.0000
  H   H474      1.0  0.09920  0.74013  0.08864  1.0000
  H   H475      1.0  0.30483  0.60058  0.40862  1.0000
  C   C406      1.0  0.49432  0.56400  0.22763  1.0000
  H   H476      1.0  0.27967  0.57794  0.41364  1.0000
  N   N28       1.0  0.10017  0.73395  0.49544  1.0000
  H   H477      1.0  0.11495  0.69621  0.09707  1.0000
  S   S117      1.0  0.26252  0.75431  0.09615  1.0000
  C   C407      1.0  0.29905  0.65894  0.21708  1.0000
  H   H478      1.0  0.38727  0.75663  0.48520  1.0000
  C   C408      1.0  0.06297  0.71740  0.24806  1.0000
  H   H479      1.0  0.31233  0.76838  0.07802  1.0000
  H   H480      1.0  0.10495  0.70131  0.47066  1.0000
  C   C409      1.0  0.10231  0.69360  0.25008  1.0000
  C   C410      1.0  0.27300  0.53798  0.30755  1.0000
  C   C411      1.0  0.13106  0.75911  0.41001  1.0000
  C   C412      1.0  0.33676  0.55928  0.33757  1.0000
  H   H481      1.0  0.13773  0.74653  0.48294  1.0000
  H   H482      1.0  0.34236  0.75000  0.47126  1.0000
  H   H483      1.0  0.22893  0.64399  0.20035  1.0000
  H   H484      1.0  0.06133  0.75547  0.52711  1.0000
  H   H485      1.0  0.25705  0.53799  0.32108  1.0000
  C   C413      1.0  0.24838  0.64734  0.20604  1.0000
  C   C414      1.0  0.09668  0.73374  0.06833  1.0000
  H   H486      1.0  0.27477  0.58364  0.19833  1.0000
  H   H487      1.0  0.24735  0.68411  0.18739  1.0000
  H   H488      1.0  0.07506  0.71818  0.46714  1.0000
  H   H489      1.0  0.21010  0.56386  0.51218  1.0000
  H   H490      1.0  0.10651  0.71777  0.29589  1.0000
  H   H491      1.0  0.30644  0.62606  0.36758  1.0000
  H   H492      1.0  0.18140  0.59905  0.52315  1.0000
  H   H493      1.0  0.30120  0.62280  0.23539  1.0000
  H   H494      1.0  0.25390  0.58287  0.34746  1.0000
  H   H495      1.0  0.23698  0.61837  0.26278  1.0000
  H   H496      1.0  0.03831  0.67592  0.13778  1.0000
  H   H497      1.0  0.10620  0.72605  0.20829  1.0000
  H   H498      1.0  0.08296  0.74699  0.05905  1.0000
  H   H499      1.0  0.05293  0.69919  0.25245  1.0000
  H   H500      1.0  0.50411  0.56854  0.20897  1.0000
  H   H501      1.0  0.48573  0.58221  0.23447  1.0000
  H   H502      1.0  0.10039  0.68998  0.22903  1.0000
  S   S118      1.0  0.26425  0.75183  0.49000  1.0000
  H   H503      1.0  0.31860  0.77366  0.47787  1.0000
  H   H504      1.0  0.09956  0.69861  0.51705  1.0000
  H   H505      1.0  0.10399  0.67023  0.07732  1.0000
  H   H506      1.0  0.50908  0.55830  0.24183  1.0000
  C   C415      1.0  0.09002  0.71760  0.51677  1.0000
  H   H507      1.0  0.35105  0.56351  0.32275  1.0000
  H   H508      1.0  0.07775  0.69927  0.29427  1.0000
  C   C416      1.0  0.25632  0.58549  0.36860  1.0000
  H   H509      1.0  0.31888  0.66322  0.22085  1.0000
  H   H510      1.0  0.12911  0.76254  0.19073  1.0000
  H   H511      1.0  0.24300  0.58454  0.26317  1.0000
  C   C417      1.0  0.06402  0.70442  0.08321  1.0000
  C   C418      1.0  0.30102  0.57346  0.36532  1.0000
  C   C419      1.0  0.22762  0.59805  0.21626  1.0000
  H   H512      1.0  0.09383  0.67649  0.25965  1.0000
  H   H513      1.0  0.47253  0.53766  0.26638  1.0000
  H   H514      1.0  0.44432  0.52841  0.24892  1.0000
  C   C420      1.0  0.12346  0.76228  0.21105  1.0000
  H   H515      1.0  0.10412  0.73076  0.45382  1.0000
  H   H516      1.0  0.17742  0.76700  0.45462  1.0000
  H   H517      1.0  0.07533  0.68025  0.03932  1.0000
  H   H518      1.0  0.21263  0.61141  0.22339  1.0000
  C   C421      1.0  0.27058  0.58283  0.21946  1.0000
  C   C422      1.0  0.26332  0.62874  0.21914  1.0000
  H   H519      1.0  0.10316  0.76287  0.28339  1.0000
  H   H520      1.0  0.23349  0.58500  0.49934  1.0000
  Fe  Fe58      1.0  0.19503  0.68909  0.51912  1.0000
  H   H521      1.0  0.26255  0.56372  0.22406  1.0000
  Fe  Fe59      1.0  0.19248  0.69536  0.06417  1.0000
  N   N29       1.0  0.41092  0.68363  0.15540  1.0000
  C   C423      1.0  0.42091  0.69428  0.13055  1.0000
  C   C424      1.0  0.40979  0.65562  0.15265  1.0000
  C   C425      1.0  0.38455  0.69352  0.15923  1.0000
  C   C426      1.0  0.42667  0.69004  0.17801  1.0000
  C   C427      1.0  0.41904  0.68199  0.20326  1.0000
  C   C428      1.0  0.45002  0.70373  0.17580  1.0000
  C   C429      1.0  0.43373  0.68742  0.22488  1.0000
  C   C430      1.0  0.46453  0.70909  0.19759  1.0000
  C   C431      1.0  0.45640  0.70099  0.22205  1.0000
  H   H522      1.0  0.44018  0.68647  0.12566  1.0000
  H   H523      1.0  0.40838  0.68941  0.11408  1.0000
  H   H524      1.0  0.42204  0.71541  0.13115  1.0000
  H   H525      1.0  0.40115  0.64622  0.16998  1.0000
  H   H526      1.0  0.42917  0.64737  0.14963  1.0000
  H   H527      1.0  0.39778  0.64995  0.13604  1.0000
  H   H528      1.0  0.37458  0.68446  0.17603  1.0000
  H   H529      1.0  0.38455  0.71442  0.16238  1.0000
  H   H530      1.0  0.37228  0.68948  0.14231  1.0000
  H   H531      1.0  0.40197  0.67081  0.20643  1.0000
  H   H532      1.0  0.45796  0.70995  0.15744  1.0000
  H   H533      1.0  0.42797  0.68025  0.24381  1.0000
  H   H534      1.0  0.22090  0.57861  0.22162  1.0000
  H   H535      1.0  0.46816  0.70450  0.23874  1.0000
  H   H536      1.0  0.51992  0.66500  0.22516  1.0000
  H   H537      1.0  0.28460  0.54263  0.38859  1.0000
  C   C432      1.0  0.03927  0.68750  0.12029  1.0000
  H   H538      1.0  0.45078  0.56112  0.25459  1.0000
  H   H539      1.0  0.22834  0.59915  0.19470  1.0000
  N   N30       1.0  0.47472  0.54388  0.22504  1.0000
  H   H540      1.0  0.11537  0.73627  0.05810  1.0000
  H   H541      1.0  0.29226  0.69423  0.19696  1.0000
  C   C433      1.0  0.11049  0.74125  0.22138  1.0000
  N   N31       1.0  0.28284  0.59310  0.37469  1.0000
  H   H542      1.0  0.23565  0.76961  0.04996  1.0000
  C   C434      1.0  0.28409  0.67645  0.20375  1.0000
  N   N32       1.0  0.25299  0.60369  0.22739  1.0000
  H   H543      1.0  0.27204  0.61083  0.41086  1.0000
  H   H544      1.0  0.12671  0.69263  0.06483  1.0000
  H   H545      1.0  0.07542  0.73290  0.29457  1.0000
  C   C435      1.0  0.25876  0.67077  0.19848  1.0000
  H   H546      1.0  0.27305  0.63285  0.37024  1.0000
  C   C436      1.0  0.08828  0.75954  0.49429  1.0000
  C   C437      1.0  0.50593  0.76067  0.28027  1.0000
  S   S119      1.0  0.52122  0.67383  0.16933  1.0000
  H   H547      1.0  0.13763  0.71749  0.50059  1.0000
  H   H548      1.0  0.20367  0.62151  0.51037  1.0000
  C   C438      1.0  0.46004  0.54256  0.24984  1.0000
  C   C439      1.0  0.10885  0.76145  0.26328  1.0000
  H   H549      1.0  0.46618  0.55564  0.18573  1.0000
  C   C440      1.0  0.31453  0.52866  0.36444  1.0000
  H   H550      1.0  0.24726  0.62169  0.52158  1.0000
  C   C441      1.0  0.29886  0.54797  0.37429  1.0000
  C   C442      1.0  0.12807  0.73642  0.49925  1.0000
  C   C443      1.0  0.32089  0.57868  0.34697  1.0000
  H   H551      1.0  0.37605  0.76506  0.51683  1.0000
  C   C444      1.0  0.10919  0.69073  0.07724  1.0000
  H   H552      1.0  0.13230  0.74705  0.51721  1.0000
  H   H553      1.0  0.33088  0.53783  0.25955  1.0000
  C   C445      1.0  0.33332  0.53428  0.34597  1.0000
  C   C446      1.0  0.08730  0.71689  0.28700  1.0000
  C   C447      1.0  0.27299  0.76761  0.06659  1.0000
  C   C448      1.0  0.16283  0.77183  0.44079  1.0000
  C   C449      1.0  0.08340  0.69978  0.04043  1.0000
  H   H554      1.0  0.50368  0.53386  0.18156  1.0000
  H   H555      1.0  0.09345  0.72620  0.53602  1.0000
  C   C450      1.0  0.06867  0.76757  0.51178  1.0000
  H   H556      1.0  0.11094  0.77264  0.46107  1.0000
  C   C451      1.0  0.52762  0.75578  0.26465  1.0000
  H   H557      1.0  0.08651  0.52877  0.31260  1.0000
  Fe  Fe60      1.0  0.11342  0.68985  0.86629  1.0000
  S   S120      1.0  0.12771  0.72901  0.87511  1.0000
  S   S121      1.0  0.14033  0.65779  0.85487  1.0000
  Fe  Fe61      1.0  0.05822  0.70347  0.88038  1.0000
  S   S122      1.0  0.06803  0.74378  0.88942  1.0000
  Fe  Fe62      1.0  0.09297  0.74232  0.85381  1.0000
  H   H558      1.0  0.04818  0.75131  0.82139  1.0000
  Fe  Fe63      1.0  0.10180  0.72714  0.91008  1.0000
  S   S123      1.0  0.11110  0.74361  0.94924  1.0000
  S   S124      1.0  0.08031  0.70324  0.84261  1.0000
  S   S125      1.0  0.09035  0.68674  0.90334  1.0000
  Fe  Fe64      1.0  0.20283  0.55471  0.69327  1.0000
  S   S126      1.0  0.24337  0.56638  0.68567  1.0000
  Fe  Fe65      1.0  0.18990  0.60358  0.72222  1.0000
  S   S127      1.0  0.22965  0.61881  0.71678  1.0000
  S   S128      1.0  0.15785  0.62907  0.73689  1.0000
  Fe  Fe66      1.0  0.22687  0.60469  0.67611  1.0000
  S   S129      1.0  0.24307  0.62792  0.64279  1.0000
  Fe  Fe67      1.0  0.24249  0.57923  0.72692  1.0000
  S   S130      1.0  0.27857  0.57380  0.74981  1.0000
  S   S131      1.0  0.18630  0.59214  0.68054  1.0000
  S   S132      1.0  0.20284  0.56479  0.73561  1.0000
  S   S133      1.0  0.38133  0.54266  0.89641  1.0000
  S   S134      1.0  0.17405  0.67737  0.55587  1.0000
  Fe  Fe68      1.0  0.47423  0.64939  0.84802  1.0000
  S   S135      1.0  0.48496  0.65753  0.88888  1.0000
  S   S136      1.0  0.46160  0.61057  0.83392  1.0000
  Fe  Fe69      1.0  0.48941  0.70327  0.82962  1.0000
  S   S137      1.0  0.48594  0.73094  0.79585  1.0000
  Fe  Fe70      1.0  0.46587  0.69570  0.88330  1.0000
  S   S138      1.0  0.43505  0.71110  0.91056  1.0000
  S   S139      1.0  0.51020  0.66576  0.83025  1.0000
  S   S140      1.0  0.45244  0.68590  0.84351  1.0000
  H   H559      1.0  0.03941  0.59371  0.82494  1.0000
  C   C452      1.0  0.19740  0.55550  0.60807  1.0000
  H   H560      1.0  0.04109  0.69148  0.76615  1.0000
  H   H561      1.0  0.24165  0.53902  0.77348  1.0000
  C   C453      1.0  0.43362  0.74203  0.92397  1.0000
  C   C454      1.0  0.22573  0.58483  0.58553  1.0000
  H   H562      1.0  0.19341  0.74600  0.98739  1.0000
  H   H563      1.0  0.36509  0.55487  0.83688  1.0000
  H   H564      1.0  0.31888  0.74486  0.99325  1.0000
  H   H565      1.0  0.13484  0.67486  0.66328  1.0000
  H   H566      1.0  0.29104  0.74456  0.58057  1.0000
  C   C455      1.0  0.40465  0.56070  0.87946  1.0000
  C   C456      1.0  0.41242  0.58409  0.88954  1.0000
  C   C457      1.0  0.42999  0.59955  0.87588  1.0000
  C   C458      1.0  0.43993  0.59165  0.85202  1.0000
  C   C459      1.0  0.43238  0.56811  0.84206  1.0000
  C   C460      1.0  0.41482  0.55268  0.85573  1.0000
  H   H567      1.0  0.40462  0.59047  0.90789  1.0000
  H   H568      1.0  0.43569  0.61765  0.88374  1.0000
  H   H569      1.0  0.43990  0.56198  0.82352  1.0000
  C   C461      1.0  0.04598  0.67696  0.78026  1.0000
  C   C462      1.0  0.22332  0.64169  0.61915  1.0000
  C   C463      1.0  0.19732  0.63589  0.61781  1.0000
  C   C464      1.0  0.18221  0.64722  0.59857  1.0000
  C   C465      1.0  0.19312  0.66406  0.58036  1.0000
  C   C466      1.0  0.21910  0.66979  0.58172  1.0000
  C   C467      1.0  0.23412  0.65865  0.60106  1.0000
  H   H570      1.0  0.18895  0.62244  0.63133  1.0000
  H   H571      1.0  0.16214  0.64257  0.59750  1.0000
  H   H572      1.0  0.22760  0.68309  0.56810  1.0000
  H   H573      1.0  0.25421  0.66329  0.60205  1.0000
  H   H574      1.0  0.21754  0.69362  0.98294  1.0000
  H   H575      1.0  0.32245  0.55237  0.77339  1.0000
  S   S141      1.0  0.09756  0.77514  0.82567  1.0000
  C   C468      1.0  0.41131  0.74967  0.93727  1.0000
  H   H576      1.0  0.28965  0.53497  0.87187  1.0000
  C   C469      1.0  0.13014  0.72551  0.97039  1.0000
  C   C470      1.0  0.13530  0.73490  0.99512  1.0000
  C   C471      1.0  0.15089  0.72108  0.01218  1.0000
  C   C472      1.0  0.16145  0.69782  0.00453  1.0000
  C   C473      1.0  0.15609  0.68834  0.97992  1.0000
  C   C474      1.0  0.14050  0.70213  0.96288  1.0000
  H   H577      1.0  0.12741  0.75304  0.00097  1.0000
  C   C475      1.0  0.27909  0.73937  0.98491  1.0000
  H   H578      1.0  0.16420  0.67035  0.97390  1.0000
  H   H579      1.0  0.13664  0.69476  0.94385  1.0000
  H   H580      1.0  0.09448  0.59193  0.84711  1.0000
  H   H581      1.0  0.14616  0.65267  0.68707  1.0000
  H   H582      1.0  0.10657  0.61764  0.82814  1.0000
  H   H583      1.0  0.43993  0.74801  0.86787  1.0000
  C   C476      1.0  0.14659  0.65140  0.82188  1.0000
  C   C477      1.0  0.13338  0.66409  0.80231  1.0000
  C   C478      1.0  0.13723  0.65714  0.77633  1.0000
  C   C479      1.0  0.15460  0.63780  0.76967  1.0000
  C   C480      1.0  0.16824  0.62547  0.78917  1.0000
  C   C481      1.0  0.16409  0.63215  0.81522  1.0000
  H   H584      1.0  0.11985  0.67892  0.80719  1.0000
  H   H585      1.0  0.12662  0.66673  0.76132  1.0000
  H   H586      1.0  0.18162  0.61049  0.78423  1.0000
  H   H587      1.0  0.17432  0.62221  0.83028  1.0000
  H   H588      1.0  0.21517  0.75416  0.94732  1.0000
  C   C482      1.0  0.30609  0.54166  0.78026  1.0000
  H   H589      1.0  0.24744  0.74416  0.94179  1.0000
  H   H590      1.0  0.34381  0.61771  0.86113  1.0000
  C   C483      1.0  0.25569  0.72741  0.99221  1.0000
  C   C484      1.0  0.30150  0.73480  0.99861  1.0000
  C   C485      1.0  0.44349  0.77510  0.68034  1.0000
  H   H591      1.0  0.51742  0.60487  0.82769  1.0000
  H   H592      1.0  0.07002  0.71295  0.03052  1.0000
  H   H593      1.0  0.07737  0.66228  0.75762  1.0000
  C   C486      1.0  0.51058  0.75285  0.78870  1.0000
  H   H594      1.0  0.34014  0.60327  0.79069  1.0000
  H   H595      1.0  0.31862  0.71545  0.03081  1.0000
  H   H596      1.0  0.44822  0.74164  0.83505  1.0000
  H   H597      1.0  0.25219  0.55135  0.84819  1.0000
  C   C487      1.0  0.08942  0.60548  0.83132  1.0000
  H   H598      1.0  0.19147  0.54584  0.62581  1.0000
  C   C488      1.0  0.48739  0.76448  0.69462  1.0000
  C   C489      1.0  0.21247  0.58162  0.56196  1.0000
  H   H599      1.0  0.26079  0.52915  0.95098  1.0000
  H   H600      1.0  0.41725  0.75389  0.84241  1.0000
  C   C490      1.0  0.27384  0.57951  0.82708  1.0000
  H   H601      1.0  0.08758  0.64884  0.85912  1.0000
  H   H602      1.0  0.15954  0.65269  0.65492  1.0000
  C   C491      1.0  0.06643  0.66054  0.77552  1.0000
  H   H603      1.0  0.20327  0.65823  0.66948  1.0000
  H   H604      1.0  0.35553  0.56021  0.80422  1.0000
  S   S142      1.0  0.50169  0.71513  0.86921  1.0000
  H   H605      1.0  0.33179  0.55323  0.86465  1.0000
  H   H606      1.0  0.29894  0.60439  0.80720  1.0000
  C   C492      1.0  0.15224  0.66522  0.67061  1.0000
  C   C493      1.0  0.28172  0.54800  0.77135  1.0000
  N   N33       1.0  0.06659  0.62106  0.83814  1.0000
  C   C494      1.0  0.04497  0.60344  0.84306  1.0000
  H   H607      1.0  0.13022  0.73890  0.75667  1.0000
  C   C495      1.0  0.18400  0.55188  0.58532  1.0000
  C   C496      1.0  0.05957  0.63974  0.81781  1.0000
  H   H608      1.0  0.35768  0.58779  0.86997  1.0000
  H   H609      1.0  0.16758  0.53936  0.58551  1.0000
  C   C497      1.0  0.45387  0.75918  0.92135  1.0000
  H   H610      1.0  0.11439  0.74378  0.71202  1.0000
  H   H611      1.0  0.40868  0.53491  0.84759  1.0000
  H   H612      1.0  0.48792  0.77386  0.76130  1.0000
  C   C498      1.0  0.21822  0.57188  0.60813  1.0000
  Fe  Fe71      1.0  0.51977  0.67601  0.87099  1.0000
  C   C499      1.0  0.29187  0.55069  0.85840  1.0000
  H   H613      1.0  0.15511  0.72863  0.03100  1.0000
  C   C500      1.0  0.28937  0.75685  0.56378  1.0000
  H   H614      1.0  0.44063  0.75576  0.67229  1.0000
  H   H615      1.0  0.23630  0.69948  0.95425  1.0000
  C   C501      1.0  0.19141  0.56463  0.56255  1.0000
  C   C502      1.0  0.03198  0.67482  0.80328  1.0000
  H   H616      1.0  0.36684  0.61765  0.80603  1.0000
  C   C503      1.0  0.27080  0.55986  0.84506  1.0000
  H   H617      1.0  0.23813  0.62741  0.55434  1.0000
  C   C504      1.0  0.04836  0.76838  0.80957  1.0000
  S   S143      1.0  0.18242  0.68071  0.02461  1.0000
  H   H618      1.0  0.40625  0.77444  0.87990  1.0000
  H   H619      1.0  0.47132  0.75331  0.91169  1.0000
  H   H620      1.0  0.20385  0.71091  0.95688  1.0000
  H   H621      1.0  0.07897  0.62143  0.87792  1.0000
  H   H622      1.0  0.05542  0.64488  0.87056  1.0000
  C   C505      1.0  0.07226  0.63458  0.86245  1.0000
  N   N34       1.0  0.17187  0.68358  0.67886  1.0000
  C   C506      1.0  0.17915  0.70001  0.65642  1.0000
  C   C507      1.0  0.19499  0.66890  0.68613  1.0000
  C   C508      1.0  0.16122  0.69908  0.70031  1.0000
  C   C509      1.0  0.16957  0.69657  0.72629  1.0000
  C   C510      1.0  0.14087  0.71644  0.69580  1.0000
  C   C511      1.0  0.15859  0.71100  0.74620  1.0000
  C   C512      1.0  0.13001  0.73074  0.71588  1.0000
  C   C513      1.0  0.13888  0.72805  0.74104  1.0000
  H   H623      1.0  0.19250  0.71526  0.66234  1.0000
  H   H624      1.0  0.18891  0.68894  0.64079  1.0000
  H   H625      1.0  0.16245  0.70911  0.64711  1.0000
  H   H626      1.0  0.21031  0.68150  0.69334  1.0000
  H   H627      1.0  0.19048  0.65430  0.70112  1.0000
  H   H628      1.0  0.18413  0.68312  0.73196  1.0000
  H   H629      1.0  0.13287  0.71872  0.67679  1.0000
  C   C514      1.0  0.27889  0.70606  0.02727  1.0000
  H   H630      1.0  0.25752  0.58615  0.81617  1.0000
  H   H631      1.0  0.20775  0.72869  0.01315  1.0000
  C   C515      1.0  0.29799  0.58987  0.82206  1.0000
  C   C516      1.0  0.22193  0.70804  0.96767  1.0000
  C   C517      1.0  0.31604  0.56110  0.85382  1.0000
  H   H632      1.0  0.33530  0.62762  0.81491  1.0000
  H   H633      1.0  0.48565  0.76594  0.84024  1.0000
  H   H634      1.0  0.46765  0.53847  0.87355  1.0000
  H   H635      1.0  0.39560  0.73648  0.93951  1.0000
  H   H636      1.0  0.37586  0.60968  0.85087  1.0000
  H   H637      1.0  0.08633  0.59399  0.81366  1.0000
  C   C518      1.0  0.50633  0.77224  0.77039  1.0000
  C   C519      1.0  0.23380  0.75089  0.95699  1.0000
  C   C520      1.0  0.24222  0.61199  0.54023  1.0000
  H   H638      1.0  0.49626  0.53182  0.84288  1.0000
  H   H639      1.0  0.38264  0.57660  0.81693  1.0000
  H   H640      1.0  0.24030  0.76974  0.96403  1.0000
  N   N35       1.0  0.23141  0.73218  0.97859  1.0000
  H   H641      1.0  0.04991  0.58854  0.85761  1.0000
  C   C521      1.0  0.07319  0.64213  0.79390  1.0000
  N   N36       1.0  0.34596  0.59078  0.83004  1.0000
  C   C522      1.0  0.34698  0.61070  0.80950  1.0000
  C   C523      1.0  0.35622  0.60197  0.85399  1.0000
  C   C524      1.0  0.36301  0.56972  0.82166  1.0000
  C   C525      1.0  0.31994  0.58082  0.83525  1.0000
  H   H642      1.0  0.22838  0.57503  0.62597  1.0000
  C   C526      1.0  0.30136  0.71836  0.01985  1.0000
  C   C527      1.0  0.26055  0.53402  0.78002  1.0000
  C   C528      1.0  0.21194  0.74218  0.99702  1.0000
  H   H643      1.0  0.16501  0.70843  0.76594  1.0000
  C   C529      1.0  0.47744  0.74433  0.71027  1.0000
  H   H644      1.0  0.10136  0.70005  0.02857  1.0000
  C   C530      1.0  0.25640  0.71035  0.01362  1.0000
  H   H645      1.0  0.50994  0.58333  0.86956  1.0000
  H   H646      1.0  0.48567  0.71378  0.73711  1.0000
  C   C531      1.0  0.03850  0.65641  0.82172  1.0000
  C   C532      1.0  0.43770  0.75522  0.84772  1.0000
  H   H647      1.0  0.28057  0.75305  0.96928  1.0000
  H   H648      1.0  0.21834  0.76019  0.00586  1.0000
  C   C533      1.0  0.40910  0.77428  0.94766  1.0000
  H   H649      1.0  0.45726  0.74058  0.71216  1.0000
  H   H650      1.0  0.24171  0.59763  0.58731  1.0000
  H   H651      1.0  0.08948  0.63035  0.78903  1.0000
  H   H652      1.0  0.18034  0.56136  0.54543  1.0000
  H   H653      1.0  0.19209  0.62456  0.54304  1.0000
  H   H654      1.0  0.23942  0.70040  0.02022  1.0000
  C   C534      1.0  0.49361  0.72853  0.72461  1.0000
  C   C535      1.0  0.51993  0.73231  0.72389  1.0000
  H   H655      1.0  0.26986  0.72873  0.54110  1.0000
  C   C536      1.0  0.51430  0.76772  0.69435  1.0000
  C   C537      1.0  0.27729  0.74789  0.54150  1.0000
  H   H656      1.0  0.45428  0.77469  0.80404  1.0000
  H   H657      1.0  0.25959  0.60145  0.54637  1.0000
  H   H658      1.0  0.43515  0.77587  0.70025  1.0000
  H   H659      1.0  0.48076  0.76379  0.64404  1.0000
  N   N37       1.0  0.21993  0.59482  0.53757  1.0000
  C   C538      1.0  0.52873  0.58228  0.86046  1.0000
  H   H660      1.0  0.47772  0.77696  0.87216  1.0000
  S   S144      1.0  0.37340  0.87573  0.50858  1.0000
  Fe  Fe72      1.0  0.09739  0.89754  0.34820  1.0000
  S   S145      1.0  0.08556  0.89014  0.38928  1.0000
  S   S146      1.0  0.11347  0.93469  0.33262  1.0000
  Fe  Fe73      1.0  0.07837  0.84542  0.33076  1.0000
  S   S147      1.0  0.06481  0.83401  0.37077  1.0000
  S   S148      1.0  0.07818  0.82070  0.29504  1.0000
  Fe  Fe74      1.0  0.04971  0.87421  0.37263  1.0000
  Fe  Fe75      1.0  0.10187  0.85081  0.38380  1.0000
  S   S149      1.0  0.12867  0.83639  0.41489  1.0000
  S   S150      1.0  0.06042  0.88426  0.33167  1.0000
  S   S151      1.0  0.11663  0.85957  0.34372  1.0000
  S   S152      1.0  0.38391  0.86379  0.07278  1.0000
  Fe  Fe76      1.0  0.46617  0.83541  0.39878  1.0000
  S   S153      1.0  0.47863  0.87571  0.39280  1.0000
  S   S154      1.0  0.45646  0.82000  0.43867  1.0000
  Fe  Fe77      1.0  0.47891  0.82127  0.34251  1.0000
  H   H661      1.0  0.48477  0.86493  0.45960  1.0000
  Fe  Fe78      1.0  0.45813  0.87362  0.35479  1.0000
  S   S155      1.0  0.42830  0.90235  0.34220  1.0000
  S   S156      1.0  0.50067  0.81824  0.37936  1.0000
  S   S157      1.0  0.44296  0.83430  0.36272  1.0000
  S   S158      1.0  0.33588  0.01033  0.18329  1.0000
  Fe  Fe79      1.0  0.39130  0.97274  0.21431  1.0000
  S   S159      1.0  0.35439  0.95395  0.20358  1.0000
  S   S160      1.0  0.42542  0.95054  0.22900  1.0000
  Fe  Fe80      1.0  0.35759  0.97707  0.16696  1.0000
  S   S161      1.0  0.34495  0.96483  0.12721  1.0000
  Fe  Fe81      1.0  0.33593  0.98879  0.22088  1.0000
  S   S162      1.0  0.29891  0.98619  0.24392  1.0000
  S   S163      1.0  0.39589  0.99348  0.17612  1.0000
  C   C539      1.0  0.38641  0.79439  0.44649  1.0000
  S   S164      1.0  0.18291  0.00552  0.40108  1.0000
  C   C540      1.0  0.06607  0.80880  0.49059  1.0000
  H   H662      1.0  0.32350  0.81045  0.45465  1.0000
  H   H663      1.0  0.16442  0.89017  0.35452  1.0000
  H   H664      1.0  0.47747  0.83652  0.27955  1.0000
  C   C541      1.0  0.37040  0.81785  0.40958  1.0000
  C   C542      1.0  0.42819  0.91637  0.31098  1.0000
  C   C543      1.0  0.40652  0.92998  0.30298  1.0000
  C   C544      1.0  0.40554  0.94088  0.27804  1.0000
  C   C545      1.0  0.42627  0.93820  0.26089  1.0000
  C   C546      1.0  0.44801  0.92472  0.26896  1.0000
  C   C547      1.0  0.44902  0.91394  0.29394  1.0000
  H   H665      1.0  0.39036  0.93202  0.31608  1.0000
  H   H666      1.0  0.38872  0.95122  0.27201  1.0000
  H   H667      1.0  0.46414  0.92272  0.25582  1.0000
  H   H668      1.0  0.46600  0.90402  0.30013  1.0000
  H   H669      1.0  0.30880  0.83267  0.06462  1.0000
  S   S165      1.0  0.49283  0.86049  0.33244  1.0000
  C   C548      1.0  0.37347  0.89217  0.08769  1.0000
  C   C549      1.0  0.38438  0.89982  0.11102  1.0000
  C   C550      1.0  0.37599  0.92217  0.12341  1.0000
  C   C551      1.0  0.35625  0.93665  0.11273  1.0000
  C   C552      1.0  0.34515  0.92878  0.08963  1.0000
  C   C553      1.0  0.35395  0.90685  0.07696  1.0000
  H   H670      1.0  0.39952  0.88856  0.11943  1.0000
  H   H671      1.0  0.38468  0.92815  0.14121  1.0000
  H   H672      1.0  0.32965  0.93975  0.08153  1.0000
  H   H673      1.0  0.34535  0.90114  0.05909  1.0000
  C   C554      1.0  0.52187  0.80268  0.28955  1.0000
  C   C555      1.0  0.50330  0.78393  0.29319  1.0000
  H   H674      1.0  0.40894  0.80421  0.41265  1.0000
  C   C556      1.0  0.33418  0.98665  0.51470  1.0000
  C   C557      1.0  0.13202  0.95460  0.35210  1.0000
  C   C558      1.0  0.13385  0.95056  0.37876  1.0000
  C   C559      1.0  0.14942  0.96640  0.39361  1.0000
  C   C560      1.0  0.16311  0.98644  0.38193  1.0000
  C   C561      1.0  0.16083  0.99076  0.35534  1.0000
  C   C562      1.0  0.14526  0.97496  0.34051  1.0000
  H   H675      1.0  0.12325  0.93527  0.38789  1.0000
  H   H676      1.0  0.15089  0.96318  0.41422  1.0000
  C   C563      1.0  0.34598  0.98190  0.46948  1.0000
  H   H677      1.0  0.14396  0.97814  0.31986  1.0000
  C   C564      1.0  0.33072  0.89070  0.15485  1.0000
  C   C565      1.0  0.34924  0.80568  0.50333  1.0000
  H   H678      1.0  0.25366  0.99569  0.27432  1.0000
  H   H679      1.0  0.27813  0.92096  0.13257  1.0000
  C   C566      1.0  0.13722  0.80403  0.41861  1.0000
  C   C567      1.0  0.15634  0.79746  0.43626  1.0000
  H   H680      1.0  0.14392  0.89126  0.39670  1.0000
  H   H681      1.0  0.22181  0.89196  0.42039  1.0000
  H   H682      1.0  0.16601  0.81222  0.44674  1.0000
  C   C568      1.0  0.39769  0.86136  0.48964  1.0000
  C   C569      1.0  0.40096  0.86856  0.46360  1.0000
  C   C570      1.0  0.41945  0.85651  0.44789  1.0000
  C   C571      1.0  0.43441  0.83688  0.45808  1.0000
  C   C572      1.0  0.43138  0.82991  0.48418  1.0000
  C   C573      1.0  0.41326  0.84227  0.49998  1.0000
  H   H683      1.0  0.38899  0.88331  0.45547  1.0000
  H   H684      1.0  0.42163  0.86196  0.42774  1.0000
  H   H685      1.0  0.44300  0.81482  0.49219  1.0000
  H   H686      1.0  0.41119  0.83682  0.52008  1.0000
  H   H687      1.0  0.22466  0.96162  0.36467  1.0000
  H   H688      1.0  0.43982  0.82965  0.30463  1.0000
  C   C574      1.0  0.28548  0.78825  0.52025  1.0000
  C   C575      1.0  0.42951  0.84290  0.29150  1.0000
  H   H689      1.0  0.17226  0.85811  0.38129  1.0000
  H   H690      1.0  0.21653  0.93391  0.40140  1.0000
  H   H691      1.0  0.26754  0.83948  0.10567  1.0000
  H   H692      1.0  0.40898  0.83761  0.29281  1.0000
  H   H693      1.0  0.33107  0.82941  0.41196  1.0000
  H   H694      1.0  0.49496  0.88392  0.48601  1.0000
  N   N38       1.0  0.43954  0.84148  0.26451  1.0000
  C   C576      1.0  0.36227  0.79588  0.45940  1.0000
  S   S166      1.0  0.37259  0.00582  0.23440  1.0000
  H   H695      1.0  0.08223  0.01436  0.39020  1.0000
  C   C577      1.0  0.20133  0.89429  0.42600  1.0000
  C   C578      1.0  0.49538  0.86429  0.47816  1.0000
  C   C579      1.0  0.52679  0.86060  0.52295  1.0000
  H   H696      1.0  0.12537  0.79886  0.26480  1.0000
  C   C580      1.0  0.34647  0.81948  0.42158  1.0000
  C   C581      1.0  0.18704  0.86375  0.39534  1.0000
  C   C582      1.0  0.26793  0.00933  0.27992  1.0000
  H   H697      1.0  0.28293  0.82312  0.13185  1.0000
  H   H698      1.0  0.43189  0.86226  0.29968  1.0000
  H   H699      1.0  0.19713  0.88017  0.44168  1.0000
  H   H700      1.0  0.33195  0.91168  0.53424  1.0000
  H   H701      1.0  0.35824  0.92742  0.50217  1.0000
  H   H702      1.0  0.34628  0.89369  0.16808  1.0000
  H   H703      1.0  0.32888  0.80697  0.09638  1.0000
  C   C583      1.0  0.38657  0.97300  0.05345  1.0000
  C   C584      1.0  0.12476  0.78478  0.40528  1.0000
  H   H704      1.0  0.20614  0.85999  0.38642  1.0000
  C   C585      1.0  0.46705  0.84812  0.26498  1.0000
  H   H705      1.0  0.38574  0.95521  0.06530  1.0000
  H   H706      1.0  0.47690  0.84481  0.24614  1.0000
  H   H707      1.0  0.32757  0.79024  0.03791  1.0000
  H   H708      1.0  0.28393  0.80048  0.50343  1.0000
  H   H709      1.0  0.39122  0.01348  0.35353  1.0000
  C   C586      1.0  0.17856  0.90477  0.35724  1.0000
  H   H710      1.0  0.32647  0.99919  0.52930  1.0000
  H   H711      1.0  0.19849  0.91333  0.43490  1.0000
  H   H712      1.0  0.33863  0.97608  0.03923  1.0000
  C   C587      1.0  0.08526  0.80153  0.47322  1.0000
  C   C588      1.0  0.43706  0.81472  0.25603  1.0000
  C   C589      1.0  0.42611  0.85855  0.24623  1.0000
  C   C590      1.0  0.43358  0.85937  0.21970  1.0000
  C   C591      1.0  0.40567  0.87484  0.25395  1.0000
  C   C592      1.0  0.42158  0.87568  0.20212  1.0000
  C   C593      1.0  0.39366  0.89087  0.23612  1.0000
  C   C594      1.0  0.40174  0.89147  0.21035  1.0000
  H   H713      1.0  0.44613  0.80123  0.26990  1.0000
  H   H714      1.0  0.44652  0.81129  0.23700  1.0000
  H   H715      1.0  0.50974  0.81586  0.47657  1.0000
  H   H716      1.0  0.44913  0.84777  0.21246  1.0000
  H   H717      1.0  0.39913  0.87629  0.27380  1.0000
  H   H718      1.0  0.34865  0.01851  0.33390  1.0000
  H   H719      1.0  0.37883  0.90391  0.24258  1.0000
  H   H720      1.0  0.39317  0.90488  0.19697  1.0000
  C   C595      1.0  0.31083  0.02595  0.27601  1.0000
  C   C596      1.0  0.33620  0.99668  0.48959  1.0000
  C   C597      1.0  0.15784  0.89532  0.41218  1.0000
  H   H721      1.0  0.46968  0.86850  0.26988  1.0000
  N   N39       1.0  0.30885  0.84188  0.10527  1.0000
  C   C598      1.0  0.30943  0.84944  0.07757  1.0000
  C   C599      1.0  0.33027  0.82373  0.10928  1.0000
  C   C600      1.0  0.28467  0.82816  0.11094  1.0000
  C   C601      1.0  0.31028  0.86484  0.12162  1.0000
  C   C602      1.0  0.29136  0.88415  0.11975  1.0000
  C   C603      1.0  0.33011  0.86879  0.13970  1.0000
  C   C604      1.0  0.29238  0.90612  0.13476  1.0000
  H   H722      1.0  0.32728  0.85995  0.07276  1.0000
  H   H723      1.0  0.36147  0.94548  0.45875  1.0000
  C   C605      1.0  0.39022  0.80516  0.42191  1.0000
  H   H724      1.0  0.29309  0.86175  0.07213  1.0000
  C   C606      1.0  0.04970  0.79075  0.26368  1.0000
  H   H725      1.0  0.34907  0.83270  0.10459  1.0000
  C   C607      1.0  0.34236  0.80861  0.44607  1.0000
  H   H726      1.0  0.34673  0.79860  0.52356  1.0000
  H   H727      1.0  0.28342  0.81012  0.09990  1.0000
  C   C608      1.0  0.29243  0.00838  0.26855  1.0000
  H   H728      1.0  0.33044  0.81626  0.12946  1.0000
  H   H729      1.0  0.27577  0.88255  0.10641  1.0000
  H   H730      1.0  0.51980  0.82082  0.29904  1.0000
  H   H731      1.0  0.34569  0.85556  0.14214  1.0000
  H   H732      1.0  0.06636  0.79060  0.25114  1.0000
  H   H733      1.0  0.42810  0.87661  0.18213  1.0000
  H   H734      1.0  0.51011  0.82911  0.44449  1.0000
  C   C609      1.0  0.05007  0.80448  0.28680  1.0000
  H   H735      1.0  0.39617  0.78672  0.49936  1.0000
  H   H736      1.0  0.31311  0.92673  0.16342  1.0000
  C   C610      1.0  0.35380  0.95701  0.47437  1.0000
  C   C611      1.0  0.09202  0.01508  0.37095  1.0000
  H   H737      1.0  0.15246  0.88296  0.42898  1.0000
  H   H738      1.0  0.20420  0.95399  0.32271  1.0000
  C   C612      1.0  0.19056  0.90801  0.38143  1.0000
  C   C613      1.0  0.20073  0.94108  0.33882  1.0000
  C   C614      1.0  0.20736  0.92909  0.38356  1.0000
  C   C615      1.0  0.21232  0.94526  0.36246  1.0000
  H   H739      1.0  0.37472  0.98713  0.06415  1.0000
  Fe  Fe82      1.0  0.51199  0.85855  0.37131  1.0000
  H   H740      1.0  0.17148  0.00588  0.34605  1.0000
  C   C616      1.0  0.31201  0.90937  0.15228  1.0000
  H   H741      1.0  0.08731  0.81621  0.20440  1.0000
  H   H742      1.0  0.09173  0.81468  0.45818  1.0000
  H   H743      1.0  0.15499  0.91540  0.41812  1.0000
  H   H744      1.0  0.40290  0.78552  0.45507  1.0000
  H   H745      1.0  0.13911  0.79918  0.21872  1.0000
  C   C617      1.0  0.18378  0.92094  0.33625  1.0000
  H   H746      1.0  0.17382  0.91843  0.31819  1.0000
  H   H747      1.0  0.34755  0.98976  0.45007  1.0000
  H   H748      1.0  0.18434  0.85031  0.41194  1.0000
  C   C618      1.0  0.35187  0.94681  0.49937  1.0000
  N   N40       1.0  0.18450  0.89072  0.40343  1.0000
  H   H749      1.0  0.40669  0.97976  0.05343  1.0000
  C   C619      1.0  0.34203  0.96129  0.52035  1.0000
  H   H750      1.0  0.48412  0.85155  0.49129  1.0000
  H   H751      1.0  0.52387  0.87289  0.43651  1.0000
  H   H752      1.0  0.33018  0.01609  0.48570  1.0000
  H   H753      1.0  0.10996  0.78963  0.39169  1.0000
  H   H754      1.0  0.32989  0.02507  0.26777  1.0000
  H   H755      1.0  0.41662  0.80930  0.25445  1.0000
  H   H756      1.0  0.36352  0.82124  0.50362  1.0000
  H   H757      1.0  0.37371  0.82660  0.39077  1.0000
  H   H758      1.0  0.04287  0.79766  0.52332  1.0000
  H   H759      1.0  0.33077  0.81438  0.49774  1.0000
  Fe  Fe83      1.0  0.37392  0.02505  0.19529  1.0000
  H   H760      1.0  0.07948  0.00566  0.35679  1.0000
  H   H761      1.0  0.03755  0.93680  0.37553  1.0000
  C   C620      1.0  0.30751  0.78600  0.04057  1.0000
  C   C621      1.0  0.05741  0.79973  0.18193  1.0000
  H   H762      1.0  0.50715  0.86645  0.52569  1.0000
  H   H763      1.0  0.10947  0.00304  0.37232  1.0000
  H   H764      1.0  0.07047  0.78807  0.17064  1.0000
  C   C622      1.0  0.52031  0.82899  0.46326  1.0000
  C   C623      1.0  0.06697  0.81559  0.20090  1.0000
  C   C624      1.0  0.04047  0.96039  0.34152  1.0000
  S   S167      1.0  0.47684  0.78903  0.31397  1.0000
  H   H765      1.0  0.05757  0.95087  0.33434  1.0000
  C   C625      1.0  0.05782  0.79188  0.50983  1.0000
  H   H766      1.0  0.05760  0.82758  0.48908  1.0000
  N   N41       1.0  0.35752  0.78513  0.48560  1.0000
  H   H767      1.0  0.05773  0.84171  0.23140  1.0000
  C   C626      1.0  0.05028  0.83014  0.21593  1.0000
  H   H768      1.0  0.03788  0.98560  0.30883  1.0000
  C   C627      1.0  0.03111  0.79860  0.17761  1.0000
  N   N42       1.0  0.52196  0.85487  0.47428  1.0000
  C   C628      1.0  0.12165  0.78251  0.25272  1.0000
  C   C629      1.0  0.12912  0.78285  0.22675  1.0000
  C   C630      1.0  0.02937  0.98000  0.32725  1.0000
  C   C631      1.0  0.02923  0.95256  0.36481  1.0000
  C   C632      1.0  0.09620  0.77734  0.47502  1.0000
  H   H769      1.0  0.51461  0.85473  0.65321  1.0000
  H   H770      1.0  0.34168  0.94555  0.75143  1.0000
  S   S168      1.0  0.05705  0.90145  0.68810  1.0000
  S   S169      1.0  0.39231  0.99950  0.89354  1.0000
  Fe  Fe84      1.0  0.35084  0.88071  0.60267  1.0000
  S   S170      1.0  0.35997  0.84355  0.62247  1.0000
  S   S171      1.0  0.33772  0.91724  0.62188  1.0000
  C   C633      1.0  0.47943  0.78321  0.65237  1.0000
  S   S172      1.0  0.37916  0.82331  0.56504  1.0000
  Fe  Fe85      1.0  0.34224  0.82585  0.58742  1.0000
  H   H771      1.0  0.49831  0.79255  0.64967  1.0000
  Fe  Fe86      1.0  0.39617  0.84408  0.59850  1.0000
  S   S173      1.0  0.43582  0.83136  0.60992  1.0000
  S   S174      1.0  0.33045  0.86300  0.56949  1.0000
  S   S175      1.0  0.38871  0.88267  0.58158  1.0000
  Fe  Fe87      1.0  0.17531  0.97365  0.73621  1.0000
  S   S176      1.0  0.17724  0.98097  0.69360  1.0000
  S   S177      1.0  0.13970  0.95742  0.75574  1.0000
  Fe  Fe88      1.0  0.23104  0.99046  0.74361  1.0000
  C   C634      1.0  0.28647  0.93194  0.72205  1.0000
  S   S178      1.0  0.26668  0.98964  0.76818  1.0000
  H   H772      1.0  0.30489  0.81635  0.54295  1.0000
  Fe  Fe89      1.0  0.21588  0.96236  0.69463  1.0000
  S   S179      1.0  0.22526  0.92943  0.66791  1.0000
  C   C635      1.0  0.44509  0.78891  0.81708  1.0000
  S   S180      1.0  0.21268  0.95259  0.73683  1.0000
  S   S181      1.0  0.49897  0.88589  0.69671  1.0000
  Fe  Fe90      1.0  0.35549  0.88338  0.98177  1.0000
  S   S182      1.0  0.39426  0.87589  0.99809  1.0000
  S   S183      1.0  0.33927  0.92190  0.97125  1.0000
  Fe  Fe91      1.0  0.33670  0.83000  0.99502  1.0000
  S   S184      1.0  0.37382  0.81810  0.01285  1.0000
  S   S185      1.0  0.30059  0.80693  0.99225  1.0000
  C   C636      1.0  0.39174  0.94644  0.01632  1.0000
  Fe  Fe92      1.0  0.39175  0.83777  0.97832  1.0000
  S   S186      1.0  0.42669  0.82318  0.95624  1.0000
  S   S187      1.0  0.33460  0.86689  0.01609  1.0000
  S   S188      1.0  0.35448  0.84715  0.95908  1.0000
  C   C637      1.0  0.47512  0.78095  0.85119  1.0000
  H   H773      1.0  0.04844  0.83031  0.76795  1.0000
  H   H774      1.0  0.40023  0.85085  0.90543  1.0000
  C   C638      1.0  0.42921  0.79157  0.94475  1.0000
  H   H775      1.0  0.09379  0.79562  0.93491  1.0000
  H   H776      1.0  0.27628  0.98945  0.84063  1.0000
  H   H777      1.0  0.34077  0.91675  0.68760  1.0000
  H   H778      1.0  0.05302  0.99680  0.73567  1.0000
  H   H779      1.0  0.34753  0.96013  0.68100  1.0000
  H   H780      1.0  0.12572  0.00784  0.72900  1.0000
  Fe  Fe93      1.0  0.37320  0.85696  0.03103  1.0000
  H   H781      1.0  0.36361  0.94668  0.70872  1.0000
  N   N43       1.0  0.37766  0.96885  0.02668  1.0000
  C   C639      1.0  0.45340  0.84954  0.63188  1.0000
  C   C640      1.0  0.47995  0.84604  0.63300  1.0000
  C   C641      1.0  0.49420  0.85781  0.65232  1.0000
  C   C642      1.0  0.48196  0.87315  0.67069  1.0000
  C   C643      1.0  0.45554  0.87742  0.66901  1.0000
  C   C644      1.0  0.44126  0.86566  0.64962  1.0000
  H   H782      1.0  0.48948  0.83386  0.61911  1.0000
  C   C645      1.0  0.08314  0.80919  0.89719  1.0000
  H   H783      1.0  0.44602  0.88938  0.68311  1.0000
  H   H784      1.0  0.42080  0.86844  0.64889  1.0000
  C   C646      1.0  0.39804  0.01527  0.97275  1.0000
  H   H785      1.0  0.25094  0.79157  0.00973  1.0000
  C   C647      1.0  0.07075  0.80499  0.79196  1.0000
  C   C648      1.0  0.30580  0.92078  0.63280  1.0000
  C   C649      1.0  0.29824  0.94385  0.64409  1.0000
  C   C650      1.0  0.27350  0.94680  0.65468  1.0000
  C   C651      1.0  0.25607  0.92678  0.65374  1.0000
  C   C652      1.0  0.26332  0.90403  0.64157  1.0000
  C   C653      1.0  0.28816  0.90097  0.63122  1.0000
  H   H786      1.0  0.31169  0.95935  0.64499  1.0000
  H   H787      1.0  0.26786  0.96451  0.66357  1.0000
  H   H788      1.0  0.24987  0.88852  0.64058  1.0000
  H   H789      1.0  0.29377  0.88315  0.62246  1.0000
  C   C654      1.0  0.37886  0.97839  0.91651  1.0000
  C   C655      1.0  0.38739  0.95307  0.91758  1.0000
  C   C656      1.0  0.37596  0.93559  0.93490  1.0000
  C   C657      1.0  0.35574  0.94338  0.95093  1.0000
  C   C658      1.0  0.34761  0.96879  0.95025  1.0000
  C   C659      1.0  0.35925  0.98627  0.93322  1.0000
  H   H790      1.0  0.40266  0.94689  0.90475  1.0000
  H   H791      1.0  0.38235  0.91600  0.93538  1.0000
  H   H792      1.0  0.33205  0.97497  0.96271  1.0000
  C   C660      1.0  0.47297  0.80799  0.69111  1.0000
  C   C661      1.0  0.30025  0.01599  0.79776  1.0000
  C   C662      1.0  0.31954  0.99370  0.86667  1.0000
  H   H793      1.0  0.35960  0.98026  0.70577  1.0000
  C   C663      1.0  0.32979  0.96755  0.56649  1.0000
  C   C664      1.0  0.06312  0.81387  0.88016  1.0000
  C   C665      1.0  0.11557  0.94335  0.73709  1.0000
  C   C666      1.0  0.09745  0.92740  0.74917  1.0000
  C   C667      1.0  0.07902  0.91472  0.73451  1.0000
  C   C668      1.0  0.07858  0.91805  0.70765  1.0000
  C   C669      1.0  0.09615  0.93460  0.69571  1.0000
  C   C670      1.0  0.11455  0.94721  0.71033  1.0000
  H   H794      1.0  0.09810  0.92431  0.76988  1.0000
  H   H795      1.0  0.06565  0.90189  0.74391  1.0000
  H   H796      1.0  0.09575  0.93742  0.67495  1.0000
  H   H797      1.0  0.12806  0.95970  0.70082  1.0000
  C   C671      1.0  0.43402  0.80029  0.86114  1.0000
  H   H798      1.0  0.34203  0.96214  0.00781  1.0000
  C   C672      1.0  0.27297  0.90956  0.71754  1.0000
  C   C673      1.0  0.40077  0.81200  0.89294  1.0000
  C   C674      1.0  0.42944  0.84422  0.87649  1.0000
  C   C675      1.0  0.40910  0.83710  0.89258  1.0000
  C   C676      1.0  0.35004  0.96173  0.70231  1.0000
  C   C677      1.0  0.04850  0.81289  0.77923  1.0000
  H   H799      1.0  0.46802  0.80785  0.71212  1.0000
  H   H800      1.0  0.30990  0.97343  0.56195  1.0000
  H   H801      1.0  0.34046  0.97978  0.74901  1.0000
  H   H802      1.0  0.52320  0.78289  0.68330  1.0000
  C   C678      1.0  0.32379  0.92717  0.54639  1.0000
  N   N44       1.0  0.16374  0.88353  0.69462  1.0000
  C   C679      1.0  0.15579  0.89816  0.67135  1.0000
  C   C680      1.0  0.17245  0.90209  0.71401  1.0000
  C   C681      1.0  0.18573  0.86732  0.68680  1.0000
  C   C682      1.0  0.14316  0.86756  0.70611  1.0000
  C   C683      1.0  0.14786  0.85252  0.72852  1.0000
  C   C684      1.0  0.11812  0.86656  0.69588  1.0000
  C   C685      1.0  0.12872  0.83743  0.73989  1.0000
  C   C686      1.0  0.09917  0.85136  0.70739  1.0000
  C   C687      1.0  0.10443  0.83685  0.72931  1.0000
  H   H803      1.0  0.14956  0.88539  0.65561  1.0000
  H   H804      1.0  0.14007  0.91168  0.67603  1.0000
  H   H805      1.0  0.17174  0.90992  0.66320  1.0000
  H   H806      1.0  0.18663  0.91557  0.70551  1.0000
  H   H807      1.0  0.18170  0.89291  0.73087  1.0000
  H   H808      1.0  0.15620  0.91358  0.72163  1.0000
  H   H809      1.0  0.19452  0.85741  0.70351  1.0000
  H   H810      1.0  0.17980  0.85260  0.67276  1.0000
  H   H811      1.0  0.20126  0.87878  0.67741  1.0000
  H   H812      1.0  0.16631  0.85254  0.73758  1.0000
  H   H813      1.0  0.11238  0.87769  0.67928  1.0000
  H   H814      1.0  0.13263  0.82629  0.75716  1.0000
  H   H815      1.0  0.08007  0.85123  0.69945  1.0000
  H   H816      1.0  0.08954  0.82530  0.73822  1.0000
  H   H817      1.0  0.36602  0.93484  0.57534  1.0000
  H   H818      1.0  0.27351  0.98737  0.91324  1.0000
  C   C688      1.0  0.27736  0.91459  0.86758  1.0000
  C   C689      1.0  0.03290  0.79954  0.91306  1.0000
  H   H819      1.0  0.42464  0.79046  0.81169  1.0000
  H   H820      1.0  0.34192  0.98473  0.56851  1.0000
  H   H821      1.0  0.32321  0.98600  0.84697  1.0000
  N   N45       1.0  0.29479  0.98452  0.87744  1.0000
  C   C690      1.0  0.29124  0.99491  0.90387  1.0000
  H   H822      1.0  0.40521  0.97628  0.97969  1.0000
  C   C691      1.0  0.05308  0.79501  0.92994  1.0000
  C   C692      1.0  0.29489  0.95636  0.87863  1.0000
  C   C693      1.0  0.27720  0.94112  0.86506  1.0000
  S   S189      1.0  0.31672  0.79142  0.59157  1.0000
  C   C694      1.0  0.07814  0.79992  0.92205  1.0000
  H   H823      1.0  0.38503  0.94126  0.99674  1.0000
  C   C695      1.0  0.31283  0.91689  0.89669  1.0000
  H   H824      1.0  0.10276  0.81195  0.89075  1.0000
  H   H825      1.0  0.32733  0.95357  0.90440  1.0000
  H   H826      1.0  0.35299  0.00582  0.93306  1.0000
  H   H827      1.0  0.45999  0.82179  0.68143  1.0000
  C   C696      1.0  0.27520  0.01497  0.78846  1.0000
  C   C697      1.0  0.29020  0.79240  0.02124  1.0000
  H   H828      1.0  0.52276  0.80359  0.74858  1.0000
  H   H829      1.0  0.48495  0.79911  0.84653  1.0000
  N   N46       1.0  0.34040  0.94996  0.54666  1.0000
  H   H830      1.0  0.30741  0.99011  0.91670  1.0000
  H   H831      1.0  0.31421  0.00212  0.79140  1.0000
  C   C698      1.0  0.04512  0.98293  0.72184  1.0000
  H   H832      1.0  0.46596  0.79436  0.64019  1.0000
  C   C699      1.0  0.44167  0.82618  0.86085  1.0000
  H   H833      1.0  0.29489  0.88200  0.88572  1.0000
  H   H834      1.0  0.31684  0.87840  0.68061  1.0000
  C   C700      1.0  0.31297  0.94334  0.89406  1.0000
  C   C701      1.0  0.32216  0.91559  0.69682  1.0000
  H   H835      1.0  0.49257  0.81592  0.68909  1.0000
  Fe  Fe94      1.0  0.19740  0.01693  0.70445  1.0000
  H   H836      1.0  0.27323  0.87322  0.69877  1.0000
  H   H837      1.0  0.45438  0.80740  0.81253  1.0000
  H   H838      1.0  0.34664  0.94322  0.03609  1.0000
  H   H839      1.0  0.31944  0.00037  0.71111  1.0000
  C   C702      1.0  0.41305  0.79371  0.87767  1.0000
  H   H840      1.0  0.05666  0.96526  0.72420  1.0000
  C   C703      1.0  0.29500  0.90252  0.88352  1.0000
  H   H841      1.0  0.37444  0.92660  0.54297  1.0000
  C   C704      1.0  0.35009  0.96239  0.02758  1.0000
  H   H842      1.0  0.43604  0.86373  0.87658  1.0000
  Fe  Fe95      1.0  0.36908  0.86201  0.54992  1.0000
  S   S190      1.0  0.19323  0.01085  0.74742  1.0000
  C   C705      1.0  0.38130  0.99230  0.01099  1.0000
  C   C706      1.0  0.27414  0.99529  0.86121  1.0000
  C   C707      1.0  0.07055  0.78297  0.80750  1.0000
  C   C708      1.0  0.52605  0.78906  0.76310  1.0000
  C   C709      1.0  0.28397  0.89026  0.70282  1.0000
  H   H843      1.0  0.03681  0.81561  0.83402  1.0000
  H   H844      1.0  0.40871  0.01519  0.95457  1.0000
  H   H845      1.0  0.32653  0.90758  0.90924  1.0000
  H   H846      1.0  0.39178  0.77995  0.95775  1.0000
  C   C710      1.0  0.03724  0.80949  0.88774  1.0000
  C   C711      1.0  0.36628  0.94216  0.55504  1.0000
  H   H847      1.0  0.04944  0.78681  0.94895  1.0000
  C   C712      1.0  0.31136  0.93585  0.71150  1.0000
  H   H848      1.0  0.25489  0.98957  0.86851  1.0000
  C   C713      1.0  0.36925  0.01535  0.01862  1.0000
  H   H849      1.0  0.25364  0.90748  0.72502  1.0000
  H   H850      1.0  0.31213  0.96224  0.75612  1.0000
  H   H851      1.0  0.43186  0.78847  0.66838  1.0000
  H   H852      1.0  0.45744  0.83260  0.84882  1.0000
  H   H853      1.0  0.26361  0.90331  0.85724  1.0000
  C   C714      1.0  0.33012  0.96194  0.74441  1.0000
  H   H854      1.0  0.31996  0.01482  0.86518  1.0000
  C   C715      1.0  0.30941  0.98202  0.70817  1.0000
  H   H855      1.0  0.10263  0.00670  0.68769  1.0000
  H   H856      1.0  0.26301  0.94920  0.85243  1.0000
  H   H857      1.0  0.33603  0.98821  0.87886  1.0000
  H   H858      1.0  0.27706  0.94629  0.73367  1.0000
  H   H859      1.0  0.46725  0.79712  0.92931  1.0000
  C   C716      1.0  0.30856  0.89319  0.69265  1.0000
  N   N47       1.0  0.32513  0.95988  0.71635  1.0000
  H   H860      1.0  0.08789  0.81635  0.79043  1.0000
  H   H861      1.0  0.29122  0.98359  0.71934  1.0000
  H   H862      1.0  0.30443  0.98078  0.68741  1.0000
  S   S191      1.0  0.23652  0.99901  0.70115  1.0000
  H   H863      1.0  0.32107  0.91894  0.56618  1.0000
  H   H864      1.0  0.27434  0.01648  0.86114  1.0000
  H   H865      1.0  0.38546  0.80644  0.90617  1.0000
  C   C717      1.0  0.29993  0.78135  0.56417  1.0000
  H   H866      1.0  0.04879  0.99033  0.70191  1.0000
  H   H867      1.0  0.37983  0.95840  0.55404  1.0000
  C   C718      1.0  0.26431  0.78634  0.02460  1.0000
  H   H868      1.0  0.06862  0.82021  0.86096  1.0000
  H   H869      1.0  0.32881  0.95838  0.58600  1.0000
  H   H870      1.0  0.38876  0.92918  0.02868  1.0000
  C   C719      1.0  0.39585  0.99292  0.98751  1.0000
  N   N48       1.0  0.44761  0.78153  0.84468  1.0000
  C   C720      1.0  0.45160  0.78388  0.93157  1.0000
  N   N49       1.0  0.47094  0.78222  0.67991  1.0000
  H   H871      1.0  0.28990  0.01607  0.90358  1.0000
  H   H872      1.0  0.41269  0.94986  0.01538  1.0000
  H   H873      1.0  0.03150  0.84577  0.84950  1.0000
  C   C721      1.0  0.29742  0.79722  0.54255  1.0000
  C   C722      1.0  0.11565  0.02462  0.72216  1.0000
  C   C723      1.0  0.10256  0.02403  0.69892  1.0000
  H   H874      1.0  0.30455  0.93189  0.53882  1.0000
  H   H875      1.0  0.35765  0.01624  0.03606  1.0000
  C   C724      1.0  0.77899  0.03756  0.25412  1.0000
  H   H876      1.0  0.72710  0.06389  0.04895  1.0000
  Fe  Fe96      1.0  0.72315  0.08023  0.23799  1.0000
  S   S192      1.0  0.68374  0.06356  0.24009  1.0000
  S   S193      1.0  0.74810  0.07561  0.27310  1.0000
  Fe  Fe97      1.0  0.71361  0.10556  0.18578  1.0000
  S   S194      1.0  0.67341  0.09145  0.18416  1.0000
  S   S195      1.0  0.73230  0.12647  0.15221  1.0000
  Fe  Fe98      1.0  0.67089  0.10188  0.22620  1.0000
  S   S196      1.0  0.63521  0.12092  0.24178  1.0000
  Fe  Fe99      1.0  0.68987  0.05449  0.19806  1.0000
  S   S197      1.0  0.70987  0.11946  0.22668  1.0000
  S   S198      1.0  0.73058  0.06774  0.19706  1.0000
  Fe  Fe100     1.0  0.57937  0.22966  0.35699  1.0000
  S   S199      1.0  0.56665  0.18943  0.35169  1.0000
  H   H877      1.0  0.56317  0.20620  0.46350  1.0000
  Fe  Fe101     1.0  0.59378  0.21986  0.41354  1.0000
  S   S200      1.0  0.58266  0.17878  0.41193  1.0000
  S   S201      1.0  0.60926  0.23830  0.44955  1.0000
  Fe  Fe102     1.0  0.60212  0.17885  0.37286  1.0000
  S   S202      1.0  0.63226  0.15045  0.36041  1.0000
  Fe  Fe103     1.0  0.54823  0.19345  0.39101  1.0000
  S   S203      1.0  0.61607  0.21887  0.37609  1.0000
  S   S204      1.0  0.55807  0.23481  0.39479  1.0000
  S   S205      1.0  0.66439  0.19082  0.07495  1.0000
  S   S206      1.0  0.88212  0.03386  0.37969  1.0000
  Fe  Fe104     1.0  0.97699  0.14152  0.34068  1.0000
  S   S207      1.0  0.98521  0.15262  0.38151  1.0000
  S   S208      1.0  0.96814  0.10190  0.32658  1.0000
  Fe  Fe105     1.0  0.99172  0.19389  0.31930  1.0000
  S   S209      1.0  0.99713  0.21427  0.28103  1.0000
  Fe  Fe106     1.0  0.96522  0.18944  0.37155  1.0000
  S   S210      1.0  0.93670  0.20501  0.40086  1.0000
  H   H878      1.0  0.77660  0.04631  0.23529  1.0000
  S   S211      1.0  0.95419  0.17671  0.33176  1.0000
  C   C725      1.0  0.76133  0.20145  0.13545  1.0000
  C   C726      1.0  0.93129  0.23796  0.40506  1.0000
  H   H879      1.0  0.80091  0.20527  0.14525  1.0000
  C   C727      1.0  0.65196  0.20162  0.24751  1.0000
  H   H880      1.0  0.65311  0.16104  0.19572  1.0000
  C   C728      1.0  0.74074  0.23902  0.11611  1.0000
  H   H881      1.0  0.82545  0.03946  0.33228  1.0000
  C   C729      1.0  0.73992  0.21339  0.12494  1.0000
  H   H882      1.0  0.68650  0.22000  0.26123  1.0000
  H   H883      1.0  0.73317  0.08845  0.11021  1.0000
  H   H884      1.0  0.95925  0.25033  0.37678  1.0000
  H   H885      1.0  0.66372  0.07273  0.11176  1.0000
  C   C730      1.0  0.68224  0.10540  0.07250  1.0000
  C   C731      1.0  0.62567  0.21908  0.47204  1.0000
  C   C732      1.0  0.64134  0.23038  0.49052  1.0000
  C   C733      1.0  0.65611  0.21521  0.50725  1.0000
  C   C734      1.0  0.65488  0.18870  0.50575  1.0000
  C   C735      1.0  0.63804  0.17754  0.48844  1.0000
  C   C736      1.0  0.62362  0.19263  0.47152  1.0000
  H   H886      1.0  0.64292  0.25087  0.49113  1.0000
  H   H887      1.0  0.01575  0.24737  0.32129  1.0000
  H   H888      1.0  0.63652  0.15705  0.48778  1.0000
  H   H889      1.0  0.61111  0.18374  0.45796  1.0000
  C   C737      1.0  0.71267  0.14298  0.13036  1.0000
  C   C738      1.0  0.68769  0.14994  0.13715  1.0000
  C   C739      1.0  0.67294  0.16435  0.11984  1.0000
  C   C740      1.0  0.68292  0.17149  0.09552  1.0000
  C   C741      1.0  0.70767  0.16389  0.08849  1.0000
  C   C742      1.0  0.72256  0.14985  0.10595  1.0000
  H   H890      1.0  0.67989  0.14462  0.15590  1.0000
  H   H891      1.0  0.65375  0.17006  0.12535  1.0000
  H   H892      1.0  0.71548  0.16898  0.06970  1.0000
  H   H893      1.0  0.74184  0.14438  0.10052  1.0000
  C   C743      1.0  0.63428  0.12729  0.27517  1.0000
  C   C744      1.0  0.61156  0.13636  0.28649  1.0000
  C   C745      1.0  0.61069  0.14335  0.31266  1.0000
  C   C746      1.0  0.63246  0.14082  0.32782  1.0000
  C   C747      1.0  0.65500  0.13098  0.31672  1.0000
  C   C748      1.0  0.65598  0.12440  0.29039  1.0000
  H   H894      1.0  0.59458  0.13808  0.27491  1.0000
  H   H895      1.0  0.59309  0.15036  0.32113  1.0000
  H   H896      1.0  0.67188  0.12879  0.32835  1.0000
  H   H897      1.0  0.67355  0.11725  0.28184  1.0000
  C   C749      1.0  0.90536  0.05321  0.36429  1.0000
  C   C750      1.0  0.91582  0.04687  0.34015  1.0000
  C   C751      1.0  0.93509  0.06196  0.32887  1.0000
  C   C752      1.0  0.94363  0.08386  0.34132  1.0000
  C   C753      1.0  0.93273  0.09068  0.36512  1.0000
  C   C754      1.0  0.91371  0.07529  0.37662  1.0000
  H   H898      1.0  0.71509  0.20245  0.22804  1.0000
  H   H899      1.0  0.94316  0.05686  0.31023  1.0000
  H   H900      1.0  0.93912  0.10764  0.37479  1.0000
  H   H901      1.0  0.90557  0.08045  0.39522  1.0000
  H   H902      1.0  0.68818  0.09285  0.12521  1.0000
  C   C755      1.0  0.94528  0.25624  0.39113  1.0000
  C   C756      1.0  0.86919  0.07761  0.27991  1.0000
  C   C757      1.0  0.78573  0.23986  0.12901  1.0000
  H   H903      1.0  0.76124  0.04513  0.31709  1.0000
  H   H904      1.0  0.64496  0.18144  0.29379  1.0000
  S   S212      1.0  0.00114  0.20918  0.35840  1.0000
  C   C758      1.0  0.00283  0.20272  0.42937  1.0000
  N   N50       1.0  0.68175  0.16126  0.42060  1.0000
  C   C759      1.0  0.65408  0.15555  0.42249  1.0000
  C   C760      1.0  0.68904  0.16398  0.39285  1.0000
  C   C761      1.0  0.69570  0.13889  0.43109  1.0000
  C   C762      1.0  0.68720  0.18524  0.43432  1.0000
  C   C763      1.0  0.70346  0.18641  0.45611  1.0000
  C   C764      1.0  0.67618  0.20850  0.42583  1.0000
  C   C765      1.0  0.70882  0.20957  0.46797  1.0000
  C   C766      1.0  0.68158  0.23151  0.43790  1.0000
  C   C767      1.0  0.69805  0.23208  0.45879  1.0000
  H   H905      1.0  0.64213  0.17094  0.41409  1.0000
  H   H906      1.0  0.64920  0.13790  0.41188  1.0000
  H   H907      1.0  0.64788  0.15276  0.44289  1.0000
  H   H908      1.0  0.67716  0.17838  0.38268  1.0000
  H   H909      1.0  0.68615  0.14595  0.38208  1.0000
  H   H910      1.0  0.70940  0.16965  0.39050  1.0000
  H   H911      1.0  0.69011  0.13498  0.45163  1.0000
  H   H912      1.0  0.69137  0.12129  0.42014  1.0000
  H   H913      1.0  0.71675  0.14171  0.42984  1.0000
  H   H914      1.0  0.71198  0.16972  0.46472  1.0000
  H   H915      1.0  0.66296  0.20905  0.40999  1.0000
  H   H916      1.0  0.97909  0.22063  0.47082  1.0000
  H   H917      1.0  0.71052  0.03256  0.07451  1.0000
  H   H918      1.0  0.68893  0.22757  0.12296  1.0000
  C   C768      1.0  0.71283  0.23805  0.07937  1.0000
  C   C769      1.0  0.76436  0.25201  0.11861  1.0000
  H   H919      1.0  0.67838  0.25826  0.11396  1.0000
  C   C770      1.0  0.54547  0.22141  0.49785  1.0000
  H   H920      1.0  0.83610  0.10580  0.34725  1.0000
  H   H921      1.0  0.81640  0.18901  0.53075  1.0000
  C   C771      1.0  0.69527  0.24772  0.12142  1.0000
  H   H922      1.0  0.85686  0.06450  0.27006  1.0000
  Fe  Fe107     1.0  0.02029  0.17136  0.36490  1.0000
  C   C772      1.0  0.90731  0.10351  0.27807  1.0000
  H   H923      1.0  0.81622  0.07524  0.28587  1.0000
  H   H924      1.0  0.71085  0.21720  0.08179  1.0000
  H   H925      1.0  0.69920  0.25466  0.14124  1.0000
  H   H926      1.0  0.83993  0.03868  0.30098  1.0000
  H   H927      1.0  0.76019  0.18171  0.14177  1.0000
  C   C773      1.0  0.68409  0.07358  0.11755  1.0000
  H   H928      1.0  0.69872  0.17309  0.19507  1.0000
  H   H929      1.0  0.01919  0.24205  0.23848  1.0000
  C   C774      1.0  0.69492  0.19784  0.22794  1.0000
  N   N51       1.0  0.84061  0.07567  0.31939  1.0000
  C   C775      1.0  0.84142  0.04747  0.32038  1.0000
  C   C776      1.0  0.83812  0.08475  0.34647  1.0000
  C   C777      1.0  0.81743  0.08390  0.30538  1.0000
  C   C778      1.0  0.86361  0.08543  0.30561  1.0000
  H   H930      1.0  0.79959  0.07839  0.31593  1.0000
  C   C779      1.0  0.88078  0.10297  0.31683  1.0000
  C   C780      1.0  0.02280  0.25419  0.30281  1.0000
  C   C781      1.0  0.79033  0.26315  0.06044  1.0000
  H   H931      1.0  0.98807  0.20463  0.41426  1.0000
  H   H932      1.0  0.74242  0.06156  0.09103  1.0000
  H   H933      1.0  0.73058  0.05680  0.12326  1.0000
  H   H934      1.0  0.85952  0.04066  0.32905  1.0000
  H   H935      1.0  0.02006  0.19413  0.42012  1.0000
  H   H936      1.0  0.91529  0.12496  0.31211  1.0000
  H   H937      1.0  0.82098  0.07664  0.35648  1.0000
  H   H938      1.0  0.02378  0.21135  0.47599  1.0000
  N   N52       1.0  0.70161  0.06703  0.09571  1.0000
  C   C782      1.0  0.89082  0.08645  0.26646  1.0000
  H   H939      1.0  0.99560  0.18853  0.44377  1.0000
  H   H940      1.0  0.87846  0.10983  0.33634  1.0000
  C   C783      1.0  0.98466  0.23523  0.45610  1.0000
  C   C784      1.0  0.72809  0.06848  0.10540  1.0000
  H   H941      1.0  0.89485  0.07998  0.24696  1.0000
  H   H942      1.0  0.69624  0.02727  0.10541  1.0000
  H   H943      1.0  0.98741  0.25335  0.46667  1.0000
  S   S213      1.0  0.01362  0.15767  0.32472  1.0000
  C   C785      1.0  0.68576  0.18133  0.20932  1.0000
  H   H944      1.0  0.92427  0.11015  0.26782  1.0000
  H   H945      1.0  0.70191  0.24990  0.46836  1.0000
  H   H946      1.0  0.69484  0.24507  0.07059  1.0000
  C   C786      1.0  0.91338  0.24593  0.42380  1.0000
  H   H947      1.0  0.66907  0.22402  0.52056  1.0000
  H   H948      1.0  0.90919  0.03034  0.33011  1.0000
  C   C787      1.0  0.55677  0.27436  0.31340  1.0000
  C   C788      1.0  0.54705  0.20503  0.47687  1.0000
  C   C789      1.0  0.78423  0.21466  0.13741  1.0000
  H   H949      1.0  0.95619  0.25123  0.29352  1.0000
  H   H950      1.0  0.63056  0.24793  0.24855  1.0000
  H   H951      1.0  0.62387  0.17784  0.22773  1.0000
  H   H952      1.0  0.67237  0.24891  0.43145  1.0000
  H   H953      1.0  0.72852  0.24115  0.06508  1.0000
  C   C790      1.0  0.64359  0.20255  0.29364  1.0000
  H   H954      1.0  0.56049  0.23528  0.50049  1.0000
  C   C791      1.0  0.68032  0.12099  0.05052  1.0000
  H   H955      1.0  0.81698  0.10492  0.30268  1.0000
  H   H956      1.0  0.96796  0.23742  0.44316  1.0000
  H   H957      1.0  0.76682  0.25946  0.48618  1.0000
  N   N53       1.0  0.71800  0.25083  0.10414  1.0000
  H   H958      1.0  0.98601  0.27537  0.42856  1.0000
  C   C792      1.0  0.71377  0.07958  0.05006  1.0000
  C   C793      1.0  0.01591  0.24191  0.28009  1.0000
  N   N54       1.0  0.00800  0.22771  0.44127  1.0000
  H   H959      1.0  0.76710  0.27143  0.11224  1.0000
  C   C794      1.0  0.67836  0.20782  0.24682  1.0000
  H   H960      1.0  0.80370  0.25005  0.13012  1.0000
  H   H961      1.0  0.97845  0.03374  0.35142  1.0000
  C   C795      1.0  0.77142  0.25841  0.04209  1.0000
  H   H962      1.0  0.72278  0.20218  0.12341  1.0000
  S   S214      1.0  0.67471  0.16860  0.52409  1.0000
  H   H963      1.0  0.85487  0.07881  0.35817  1.0000
  C   C796      1.0  0.95770  0.27177  0.29481  1.0000
  H   H964      1.0  0.79932  0.24737  0.07040  1.0000
  C   C797      1.0  0.90216  0.11192  0.30306  1.0000
  H   H965      1.0  0.90246  0.23192  0.43465  1.0000
  C   C798      1.0  0.02450  0.25149  0.25612  1.0000
  C   C799      1.0  0.66004  0.17472  0.20955  1.0000
  H   H966      1.0  0.60527  0.18372  0.26691  1.0000
  C   C800      1.0  0.63597  0.24018  0.26782  1.0000
  S   S215      1.0  0.58120  0.25227  0.31960  1.0000
  C   C801      1.0  0.64330  0.18464  0.22827  1.0000
  H   H967      1.0  0.01195  0.09829  0.36224  1.0000
  H   H968      1.0  0.72093  0.21000  0.48481  1.0000
  H   H969      1.0  0.59543  0.21295  0.28093  1.0000
  H   H970      1.0  0.62263  0.24848  0.28251  1.0000
  N   N55       1.0  0.63497  0.21198  0.26809  1.0000
  C   C802      1.0  0.60776  0.20465  0.26536  1.0000
  H   H971      1.0  0.66273  0.20986  0.29871  1.0000
  H   H972      1.0  0.67063  0.11077  0.08901  1.0000
  H   H973      1.0  0.63018  0.20813  0.30959  1.0000
  H   H974      1.0  0.65518  0.24756  0.27244  1.0000
  H   H975      1.0  0.59995  0.21129  0.24657  1.0000
  H   H976      1.0  0.68616  0.06010  0.13420  1.0000
  C   C803      1.0  0.69899  0.08403  0.07287  1.0000
  C   C804      1.0  0.76682  0.04800  0.27579  1.0000
  C   C805      1.0  0.01559  0.24637  0.42096  1.0000
  C   C806      1.0  0.77063  0.03705  0.30026  1.0000
  C   C807      1.0  0.77599  0.26424  0.50411  1.0000
  H   H977      1.0  0.95705  0.03419  0.37828  1.0000
  H   H978      1.0  0.67704  0.03885  0.07933  1.0000
  H   H979      1.0  0.97171  0.27519  0.25644  1.0000
  C   C808      1.0  0.76752  0.25302  0.52745  1.0000
  H   H980      1.0  0.01702  0.06198  0.33279  1.0000
  H   H981      1.0  0.56173  0.27228  0.27199  1.0000
  H   H982      1.0  0.99059  0.02911  0.38344  1.0000
  C   C809      1.0  0.69615  0.04036  0.08836  1.0000
  H   H983      1.0  0.75190  0.23961  0.52752  1.0000
  H   H984      1.0  0.66757  0.13732  0.05070  1.0000
  C   C810      1.0  0.00251  0.26983  0.41710  1.0000
  C   C811      1.0  0.90954  0.27195  0.42879  1.0000
  H   H985      1.0  0.94413  0.27271  0.33427  1.0000
  H   H986      1.0  0.76615  0.23906  0.03769  1.0000
  Fe  Fe108     1.0  0.70458  0.18373  0.98498  1.0000
  S   S216      1.0  0.66404  0.18263  0.99934  1.0000
  S   S217      1.0  0.72341  0.15040  0.96484  1.0000
  Fe  Fe109     1.0  0.71287  0.23787  0.00405  1.0000
  H   H987      1.0  0.58239  0.22591  0.55104  1.0000
  N   N56       1.0  0.83186  0.19470  0.56877  1.0000
  H   H988      1.0  0.82874  0.09670  0.60089  1.0000
  Fe  Fe110     1.0  0.66138  0.22218  0.98269  1.0000
  S   S218      1.0  0.62691  0.23333  0.95922  1.0000
  S   S219      1.0  0.72042  0.19953  0.02190  1.0000
  S   S220      1.0  0.70101  0.22203  0.96576  1.0000
  H   H989      1.0  0.61254  0.16802  0.90220  1.0000
  S   S221      1.0  0.58199  0.14179  0.69402  1.0000
  Fe  Fe111     1.0  0.54523  0.16017  0.70821  1.0000
  S   S222      1.0  0.65803  0.07725  0.89452  1.0000
  C   C812      1.0  0.78215  0.11681  0.74190  1.0000
  S   S223      1.0  0.89910  0.06114  0.75118  1.0000
  Fe  Fe112     1.0  0.86805  0.10640  0.70130  1.0000
  S   S224      1.0  0.87688  0.11830  0.74184  1.0000
  S   S225      1.0  0.85276  0.13774  0.67555  1.0000
  Fe  Fe113     1.0  0.91425  0.09814  0.73548  1.0000
  S   S226      1.0  0.95197  0.11286  0.75035  1.0000
  Fe  Fe114     1.0  0.86075  0.08028  0.75337  1.0000
  S   S227      1.0  0.83665  0.07539  0.78978  1.0000
  S   S228      1.0  0.90671  0.08870  0.69410  1.0000
  S   S229      1.0  0.84927  0.06966  0.71327  1.0000
  Fe  Fe115     1.0  0.73095  0.16181  0.60059  1.0000
  S   S230      1.0  0.73234  0.19918  0.62073  1.0000
  S   S231      1.0  0.74772  0.12606  0.61779  1.0000
  Fe  Fe116     1.0  0.69755  0.18305  0.55757  1.0000
  S   S232      1.0  0.69651  0.22234  0.57423  1.0000
  Fe  Fe117     1.0  0.73842  0.21588  0.58106  1.0000
  H   H990      1.0  0.67826  0.18313  0.92121  1.0000
  Fe  Fe118     1.0  0.69072  0.20198  0.61223  1.0000
  S   S233      1.0  0.66243  0.21659  0.64165  1.0000
  S   S234      1.0  0.74013  0.17795  0.56124  1.0000
  S   S235      1.0  0.68862  0.16325  0.59519  1.0000
  H   H991      1.0  0.53611  0.24826  0.82743  1.0000
  H   H992      1.0  0.56082  0.23495  0.58868  1.0000
  C   C813      1.0  0.97471  0.12536  0.72826  1.0000
  C   C814      1.0  0.99878  0.13251  0.73724  1.0000
  C   C815      1.0  0.01667  0.14422  0.72052  1.0000
  C   C816      1.0  0.01079  0.14834  0.69450  1.0000
  C   C817      1.0  0.98701  0.14050  0.68537  1.0000
  C   C818      1.0  0.96893  0.12926  0.70222  1.0000
  H   H993      1.0  0.00342  0.12945  0.75736  1.0000
  H   H994      1.0  0.55664  0.06335  0.84962  1.0000
  H   H995      1.0  0.98234  0.14357  0.66525  1.0000
  H   H996      1.0  0.95041  0.12399  0.69509  1.0000
  C   C819      1.0  0.82286  0.13436  0.66090  1.0000
  C   C820      1.0  0.81013  0.11103  0.66082  1.0000
  C   C821      1.0  0.78693  0.10869  0.64771  1.0000
  C   C822      1.0  0.77641  0.12964  0.63467  1.0000
  C   C823      1.0  0.78888  0.15309  0.63518  1.0000
  C   C824      1.0  0.81203  0.15543  0.64830  1.0000
  H   H997      1.0  0.81837  0.09470  0.67043  1.0000
  H   H998      1.0  0.77732  0.09053  0.64741  1.0000
  H   H999      1.0  0.78101  0.16927  0.62502  1.0000
  H   H1000     1.0  0.82185  0.17349  0.64828  1.0000
  C   C825      1.0  0.80543  0.06270  0.78995  1.0000
  C   C826      1.0  0.79173  0.06133  0.81345  1.0000
  C   C827      1.0  0.63140  0.04381  0.74656  1.0000
  S   S236      1.0  0.67266  0.24077  0.01956  1.0000
  C   C828      1.0  0.84994  0.15739  0.59338  1.0000
  C   C829      1.0  0.60480  0.16253  0.68009  1.0000
  C   C830      1.0  0.62576  0.15256  0.66623  1.0000
  C   C831      1.0  0.64371  0.16893  0.65438  1.0000
  C   C832      1.0  0.64079  0.19530  0.65649  1.0000
  C   C833      1.0  0.62010  0.20516  0.67065  1.0000
  C   C834      1.0  0.60216  0.18885  0.68237  1.0000
  H   H1001     1.0  0.62792  0.13219  0.66444  1.0000
  H   H1002     1.0  0.65974  0.16114  0.64371  1.0000
  H   H1003     1.0  0.61786  0.22554  0.67254  1.0000
  H   H1004     1.0  0.58644  0.19674  0.69334  1.0000
  C   C835      1.0  0.70496  0.12952  0.94614  1.0000
  C   C836      1.0  0.67839  0.13190  0.94507  1.0000
  C   C837      1.0  0.66423  0.11543  0.92952  1.0000
  C   C838      1.0  0.67648  0.09640  0.91500  1.0000
  C   C839      1.0  0.70301  0.09372  0.91639  1.0000
  C   C840      1.0  0.71718  0.11026  0.93190  1.0000
  H   H1005     1.0  0.66876  0.14634  0.95630  1.0000
  H   H1006     1.0  0.64368  0.11729  0.92881  1.0000
  H   H1007     1.0  0.71266  0.07914  0.90528  1.0000
  H   H1008     1.0  0.73773  0.10823  0.93269  1.0000
  C   C841      1.0  0.83121  0.16752  0.57652  1.0000
  C   C842      1.0  0.54412  0.25930  0.76296  1.0000
  N   N57       1.0  0.60517  0.20780  0.58069  1.0000
  H   H1009     1.0  0.01113  0.20860  0.69716  1.0000
  H   H1010     1.0  0.59215  0.25670  0.92368  1.0000
  C   C843      1.0  0.59648  0.21032  0.55358  1.0000
  H   H1011     1.0  0.77173  0.15553  0.69081  1.0000
  C   C844      1.0  0.62886  0.25286  0.86408  1.0000
  C   C845      1.0  0.82546  0.21041  0.59164  1.0000
  C   C846      1.0  0.76980  0.04252  0.76868  1.0000
  C   C847      1.0  0.65784  0.16767  0.87799  1.0000
  H   H1012     1.0  0.63644  0.16453  0.92633  1.0000
  H   H1013     1.0  0.73426  0.18226  0.68870  1.0000
  C   C848      1.0  0.76659  0.14295  0.70664  1.0000
  H   H1014     1.0  0.61953  0.16969  0.57450  1.0000
  H   H1015     1.0  0.86175  0.27119  0.01725  1.0000
  H   H1016     1.0  0.83928  0.20763  0.60755  1.0000
  C   C849      1.0  0.62786  0.26284  0.94283  1.0000
  C   C850      1.0  0.55560  0.03746  0.77974  1.0000
  C   C851      1.0  0.66894  0.19847  0.90963  1.0000
  H   H1017     1.0  0.63458  0.18683  0.60047  1.0000
  C   C852      1.0  0.62613  0.18869  0.58091  1.0000
  H   H1018     1.0  0.59857  0.16548  0.61429  1.0000
  C   C853      1.0  0.79423  0.05357  0.76745  1.0000
  H   H1019     1.0  0.60090  0.25963  0.83466  1.0000
  C   C854      1.0  0.56160  0.21738  0.59960  1.0000
  C   C855      1.0  0.60400  0.21989  0.84447  1.0000
  H   H1020     1.0  0.61877  0.19362  0.92384  1.0000
  H   H1021     1.0  0.96289  0.25493  0.76532  1.0000
  C   C856      1.0  0.00336  0.24455  0.71515  1.0000
  H   H1022     1.0  0.61568  0.27235  0.00524  1.0000
  N   N58       1.0  0.71905  0.14483  0.69652  1.0000
  C   C857      1.0  0.70946  0.12340  0.68101  1.0000
  C   C858      1.0  0.69800  0.15430  0.71352  1.0000
  C   C859      1.0  0.74087  0.13578  0.71215  1.0000
  C   C860      1.0  0.73691  0.11819  0.73284  1.0000
  H   H1023     1.0  0.75381  0.09585  0.76346  1.0000
  C   C861      1.0  0.75726  0.10911  0.74759  1.0000
  C   C862      1.0  0.02026  0.24967  0.79068  1.0000
  H   H1024     1.0  0.53965  0.10456  0.84921  1.0000
  H   H1025     1.0  0.70219  0.10757  0.69339  1.0000
  C   C863      1.0  0.82974  0.11608  0.59366  1.0000
  H   H1026     1.0  0.68899  0.13902  0.72538  1.0000
  H   H1027     1.0  0.68216  0.16290  0.70212  1.0000
  H   H1028     1.0  0.70503  0.16917  0.72686  1.0000
  H   H1029     1.0  0.86692  0.26307  0.98406  1.0000
  C   C864      1.0  0.53757  0.06682  0.81204  1.0000
  C   C865      1.0  0.63534  0.20838  0.87765  1.0000
  H   H1030     1.0  0.71812  0.11105  0.73764  1.0000
  H   H1031     1.0  0.58624  0.03008  0.83669  1.0000
  C   C866      1.0  0.76723  0.05047  0.81465  1.0000
  H   H1032     1.0  0.64270  0.15659  0.86843  1.0000
  H   H1033     1.0  0.75698  0.04930  0.83293  1.0000
  C   C867      1.0  0.60066  0.08849  0.74633  1.0000
  C   C868      1.0  0.78681  0.13357  0.72138  1.0000
  H   H1034     1.0  0.69367  0.12949  0.66811  1.0000
  C   C869      1.0  0.61608  0.23240  0.58893  1.0000
  N   N59       1.0  0.64746  0.18867  0.89413  1.0000
  H   H1035     1.0  0.79792  0.10961  0.75327  1.0000
  H   H1036     1.0  0.80434  0.05492  0.74914  1.0000
  H   H1037     1.0  0.80631  0.13911  0.71667  1.0000
  H   H1038     1.0  0.68407  0.20712  0.89709  1.0000
  H   H1039     1.0  0.58935  0.21433  0.83099  1.0000
  H   H1040     1.0  0.66866  0.15350  0.88976  1.0000
  H   H1041     1.0  0.95075  0.22822  0.79773  1.0000
  H   H1042     1.0  0.80019  0.06849  0.83091  1.0000
  C   C870      1.0  0.64114  0.23472  0.87953  1.0000
  C   C871      1.0  0.61615  0.20158  0.85984  1.0000
  C   C872      1.0  0.60765  0.26985  0.92667  1.0000
  C   C873      1.0  0.85772  0.20182  0.55899  1.0000
  N   N60       1.0  0.95229  0.20210  0.76563  1.0000
  C   C874      1.0  0.93349  0.18749  0.75047  1.0000
  C   C875      1.0  0.96813  0.18391  0.78053  1.0000
  C   C876      1.0  0.93775  0.21785  0.78455  1.0000
  C   C877      1.0  0.96900  0.21720  0.74799  1.0000
  C   C878      1.0  0.98322  0.20502  0.72804  1.0000
  C   C879      1.0  0.57285  0.03773  0.82272  1.0000
  H   H1043     1.0  0.64213  0.19411  0.56752  1.0000
  H   H1044     1.0  0.59762  0.08289  0.70547  1.0000
  S   S237      1.0  0.71551  0.02876  0.87295  1.0000
  H   H1045     1.0  0.94268  0.17271  0.73814  1.0000
  H   H1046     1.0  0.91978  0.17691  0.76322  1.0000
  H   H1047     1.0  0.92230  0.20026  0.73760  1.0000
  H   H1048     1.0  0.97833  0.17024  0.76777  1.0000
  H   H1049     1.0  0.95634  0.17219  0.79418  1.0000
  H   H1050     1.0  0.98283  0.19402  0.79186  1.0000
  H   H1051     1.0  0.92532  0.23197  0.77460  1.0000
  H   H1052     1.0  0.92507  0.20603  0.79724  1.0000
  H   H1053     1.0  0.98160  0.18484  0.72495  1.0000
  C   C880      1.0  0.97241  0.24391  0.75047  1.0000
  Fe  Fe119     1.0  0.67932  0.20116  0.03486  1.0000
  H   H1054     1.0  0.96333  0.06515  0.71474  1.0000
  C   C881      1.0  0.54120  0.25822  0.80970  1.0000
  H   H1055     1.0  0.62112  0.23173  0.60981  1.0000
  H   H1056     1.0  0.66229  0.21281  0.92391  1.0000
  H   H1057     1.0  0.87235  0.20113  0.57430  1.0000
  C   C882      1.0  0.56187  0.17319  0.62983  1.0000
  H   H1058     1.0  0.73954  0.15949  0.66310  1.0000
  C   C883      1.0  0.69508  0.11603  0.02849  1.0000
  C   C884      1.0  0.58326  0.20106  0.59788  1.0000
  C   C885      1.0  0.62797  0.17820  0.91233  1.0000
  C   C886      1.0  0.72585  0.16587  0.67838  1.0000
  H   H1059     1.0  0.72496  0.11546  0.66840  1.0000
  H   H1060     1.0  0.67113  0.17509  0.86274  1.0000
  H   H1061     1.0  0.61011  0.18208  0.85794  1.0000
  Fe  Fe120     1.0  0.88895  0.05295  0.71018  1.0000
  H   H1062     1.0  0.65475  0.24195  0.89311  1.0000
  H   H1063     1.0  0.70885  0.17322  0.66787  1.0000
  H   H1064     1.0  0.54130  0.25035  0.74446  1.0000
  S   S238      1.0  0.77003  0.24493  0.58009  1.0000
  Fe  Fe121     1.0  0.67450  0.04125  0.87684  1.0000
  C   C887      1.0  0.81136  0.15082  0.56906  1.0000
  C   C888      1.0  0.81076  0.12550  0.57756  1.0000
  H   H1065     1.0  0.82508  0.23108  0.58669  1.0000
  C   C889      1.0  0.00018  0.21850  0.71198  1.0000
  C   C890      1.0  0.58281  0.17875  0.61364  1.0000
  C   C891      1.0  0.61041  0.24547  0.84654  1.0000
  C   C892      1.0  0.71177  0.09538  0.02826  1.0000
  C   C893      1.0  0.84929  0.13199  0.60154  1.0000
  C   C894      1.0  0.62580  0.05733  0.76971  1.0000
  H   H1066     1.0  0.80618  0.20552  0.59961  1.0000
  H   H1067     1.0  0.86474  0.16918  0.60121  1.0000
  H   H1068     1.0  0.79495  0.11334  0.57243  1.0000
  H   H1069     1.0  0.56210  0.15629  0.64203  1.0000
  C   C895      1.0  0.53822  0.05658  0.78670  1.0000
  C   C896      1.0  0.61064  0.07931  0.76945  1.0000
  H   H1070     1.0  0.58917  0.10573  0.74605  1.0000
  H   H1071     1.0  0.57137  0.26512  0.99178  1.0000
  C   C897      1.0  0.60550  0.07555  0.72339  1.0000
  C   C898      1.0  0.62047  0.05344  0.72344  1.0000
  H   H1072     1.0  0.67128  0.02988  0.77839  1.0000
  H   H1073     1.0  0.68058  0.04150  0.73224  1.0000
  C   C899      1.0  0.54083  0.21166  0.61599  1.0000
  H   H1074     1.0  0.86332  0.12491  0.61511  1.0000
  S   S239      1.0  0.66624  0.03458  0.83501  1.0000
  H   H1075     1.0  0.63346  0.27287  0.86601  1.0000
  H   H1076     1.0  0.54072  0.11625  0.80121  1.0000
  C   C900      1.0  0.75632  0.04073  0.79231  1.0000
  S   S240      1.0  0.98662  0.27704  0.82041  1.0000
  H   H1077     1.0  0.60266  0.24856  0.58630  1.0000
  H   H1078     1.0  0.63387  0.23724  0.57787  1.0000
  H   H1079     1.0  0.01158  0.23309  0.79959  1.0000
  H   H1080     1.0  0.72324  0.09174  0.01101  1.0000
  C   C901      1.0  0.98930  0.25726  0.73415  1.0000
  H   H1081     1.0  0.79568  0.15696  0.55721  1.0000
  C   C902      1.0  0.54099  0.18960  0.63104  1.0000
  H   H1082     1.0  0.01701  0.25482  0.70311  1.0000
  C   C903      1.0  0.55560  0.05690  0.82989  1.0000
  C   C904      1.0  0.97444  0.04777  0.71663  1.0000
  H   H1083     1.0  0.66370  0.27452  0.95872  1.0000
  C   C905      1.0  0.99383  0.04619  0.73471  1.0000
  H   H1084     1.0  0.58760  0.19235  0.54691  1.0000
  S   S241      1.0  0.73656  0.27379  0.00548  1.0000
  H   H1085     1.0  0.99761  0.06248  0.74682  1.0000
  C   C906      1.0  0.81822  0.27619  0.99189  1.0000
  H   H1086     1.0  0.60668  0.08933  0.78732  1.0000
  H   H1087     1.0  0.69373  0.12829  0.01156  1.0000
  H   H1088     1.0  0.86403  0.18900  0.54308  1.0000
  C   C907      1.0  0.77929  0.25929  0.55061  1.0000
  S   S242      1.0  0.53212  0.15374  0.74923  1.0000
  C   C908      1.0  0.01155  0.27404  0.79742  1.0000
  H   H1089     1.0  0.81559  0.22132  0.54135  1.0000
  H   H1090     1.0  0.63288  0.05136  0.78833  1.0000
  C   C909      1.0  0.53743  0.24640  0.78579  1.0000
  C   C910      1.0  0.81352  0.20122  0.54803  1.0000
  S   S243      1.0  0.53496  0.20178  0.70770  1.0000
  H   H1091     1.0  0.79336  0.19960  0.55493  1.0000
  H   H1092     1.0  0.81967  0.26116  0.97689  1.0000
  H   H1093     1.0  0.76140  0.03516  0.75130  1.0000
  H   H1094     1.0  0.81707  0.26656  0.01112  1.0000
  H   H1095     1.0  0.62346  0.04399  0.70516  1.0000
  H   H1096     1.0  0.85815  0.22170  0.55130  1.0000
  H   H1097     1.0  0.61268  0.21466  0.54005  1.0000
  H   H1098     1.0  0.55555  0.02979  0.76034  1.0000
  H   H1099     1.0  0.95347  0.02802  0.68765  1.0000
  H   H1100     1.0  0.84249  0.02967  0.75703  1.0000
  C   C911      1.0  0.79968  0.27654  0.55034  1.0000
  C   C912      1.0  0.57275  0.02793  0.79779  1.0000
  H   H1101     1.0  0.00961  0.35348  0.24326  1.0000
  S   S244      1.0  0.55116  0.39706  0.19491  1.0000
  C   C913      1.0  0.00180  0.34201  0.25972  1.0000
  C   C914      1.0  0.95331  0.31009  0.31973  1.0000
  Fe  Fe122     1.0  0.70960  0.46888  0.18406  1.0000
  S   S245      1.0  0.70519  0.45873  0.22617  1.0000
  S   S246      1.0  0.72069  0.43730  0.15627  1.0000
  Fe  Fe123     1.0  0.66876  0.48131  0.22528  1.0000
  S   S247      1.0  0.63159  0.47107  0.24592  1.0000
  Fe  Fe124     1.0  0.72478  0.49599  0.23318  1.0000
  S   S248      1.0  0.75877  0.49381  0.25984  1.0000
  S   S249      1.0  0.67134  0.48853  0.18265  1.0000
  Fe  Fe125     1.0  0.84438  0.33003  0.08646  1.0000
  S   S250      1.0  0.83089  0.36683  0.06893  1.0000
  H   H1102     1.0  0.63292  0.52142  0.21439  1.0000
  Fe  Fe126     1.0  0.89782  0.35058  0.09738  1.0000
  S   S251      1.0  0.88842  0.38892  0.08074  1.0000
  S   S252      1.0  0.93808  0.33820  0.10735  1.0000
  Fe  Fe127     1.0  0.85085  0.38500  0.10220  1.0000
  S   S253      1.0  0.83668  0.42052  0.12260  1.0000
  H   H1103     1.0  0.01759  0.31531  0.04323  1.0000
  S   S254      1.0  0.86176  0.34802  0.12153  1.0000
  S   S255      1.0  0.88127  0.32944  0.06392  1.0000
  S   S256      1.0  0.88224  0.50370  0.37738  1.0000
  Fe  Fe128     1.0  0.88869  0.33697  0.44887  1.0000
  S   S257      1.0  0.84847  0.34135  0.43477  1.0000
  S   S258      1.0  0.92050  0.32306  0.42186  1.0000
  H   H1104     1.0  0.72904  0.43565  0.08907  1.0000
  S   S259      1.0  0.83355  0.36353  0.49211  1.0000
  Fe  Fe129     1.0  0.83731  0.32520  0.47375  1.0000
  C   C915      1.0  0.01874  0.38380  0.06468  1.0000
  Fe  Fe130     1.0  0.84848  0.37932  0.45437  1.0000
  S   S260      1.0  0.82877  0.41595  0.44244  1.0000
  S   S261      1.0  0.87762  0.31872  0.48691  1.0000
  S   S262      1.0  0.88964  0.37664  0.46527  1.0000
  S   S263      1.0  0.00366  0.38499  0.19783  1.0000
  H   H1105     1.0  0.82228  0.49586  0.36729  1.0000
  H   H1106     1.0  0.01692  0.32836  0.26567  1.0000
  C   C916      1.0  0.81904  0.48071  0.35290  1.0000
  H   H1107     1.0  0.75751  0.47166  0.09775  1.0000
  C   C917      1.0  0.92369  0.29025  0.41510  1.0000
  H   H1108     1.0  0.78706  0.48570  0.21410  1.0000
  H   H1109     1.0  0.89407  0.47250  0.46217  1.0000
  H   H1110     1.0  0.85683  0.44307  0.20912  1.0000
  H   H1111     1.0  0.95233  0.29636  0.38539  1.0000
  C   C918      1.0  0.87848  0.43903  0.49442  1.0000
  C   C919      1.0  0.86891  0.47999  0.39771  1.0000
  C   C920      1.0  0.84760  0.48503  0.41346  1.0000
  C   C921      1.0  0.83608  0.46533  0.42785  1.0000
  C   C922      1.0  0.84577  0.44049  0.42664  1.0000
  C   C923      1.0  0.86767  0.43556  0.41173  1.0000
  C   C924      1.0  0.87912  0.45528  0.39716  1.0000
  H   H1112     1.0  0.83986  0.50403  0.41444  1.0000
  H   H1113     1.0  0.81932  0.46931  0.43964  1.0000
  H   H1114     1.0  0.87527  0.41642  0.41072  1.0000
  H   H1115     1.0  0.89567  0.45126  0.38507  1.0000
  C   C925      1.0  0.95560  0.35124  0.13297  1.0000
  C   C926      1.0  0.94614  0.37140  0.14780  1.0000
  C   C927      1.0  0.96103  0.38162  0.16766  1.0000
  C   C928      1.0  0.98547  0.37181  0.17274  1.0000
  C   C929      1.0  0.99482  0.35155  0.15802  1.0000
  C   C930      1.0  0.97993  0.34131  0.13824  1.0000
  H   H1116     1.0  0.92744  0.37921  0.14387  1.0000
  H   H1117     1.0  0.95368  0.39731  0.17897  1.0000
  H   H1118     1.0  0.01355  0.34379  0.16179  1.0000
  H   H1119     1.0  0.98736  0.32568  0.12688  1.0000
  C   C931      1.0  0.78678  0.45965  0.07061  1.0000
  H   H1120     1.0  0.99071  0.32614  0.21255  1.0000
  H   H1121     1.0  0.55726  0.40225  0.28300  1.0000
  C   C932      1.0  0.95841  0.34762  0.24561  1.0000
  H   H1122     1.0  0.54776  0.28104  0.35350  1.0000
  C   C933      1.0  0.75284  0.43298  0.14630  1.0000
  C   C934      1.0  0.76033  0.41004  0.13459  1.0000
  C   C935      1.0  0.78588  0.40606  0.12663  1.0000
  C   C936      1.0  0.80401  0.42513  0.13020  1.0000
  C   C937      1.0  0.79633  0.44833  0.14105  1.0000
  C   C938      1.0  0.77091  0.45218  0.14933  1.0000
  H   H1123     1.0  0.74638  0.39520  0.13195  1.0000
  H   H1124     1.0  0.79158  0.38816  0.11813  1.0000
  H   H1125     1.0  0.81020  0.46329  0.14316  1.0000
  H   H1126     1.0  0.76516  0.47006  0.15776  1.0000
  H   H1127     1.0  0.00129  0.37779  0.10222  1.0000
  C   C939      1.0  0.57246  0.41902  0.20868  1.0000
  C   C940      1.0  0.59526  0.42504  0.19538  1.0000
  C   C941      1.0  0.61335  0.44131  0.20637  1.0000
  C   C942      1.0  0.60883  0.45154  0.23090  1.0000
  C   C943      1.0  0.58572  0.44612  0.24391  1.0000
  C   C944      1.0  0.56752  0.43004  0.23278  1.0000
  H   H1128     1.0  0.59916  0.41670  0.17666  1.0000
  H   H1129     1.0  0.63103  0.44541  0.19611  1.0000
  H   H1130     1.0  0.58200  0.45415  0.26279  1.0000
  H   H1131     1.0  0.54982  0.42602  0.24293  1.0000
  H   H1132     1.0  0.76182  0.37722  0.19146  1.0000
  C   C945      1.0  0.79474  0.44152  0.05192  1.0000
  H   H1133     1.0  0.95482  0.36154  0.26129  1.0000
  H   H1134     1.0  0.82799  0.44964  0.48524  1.0000
  H   H1135     1.0  0.97837  0.32719  0.06757  1.0000
  S   S264      1.0  0.73124  0.50490  0.19095  1.0000
  C   C946      1.0  0.75450  0.41886  0.06081  1.0000
  H   H1136     1.0  0.88992  0.47179  0.53276  1.0000
  C   C947      1.0  0.53210  0.29907  0.28239  1.0000
  C   C948      1.0  0.78646  0.30837  0.05252  1.0000
  H   H1137     1.0  0.96694  0.30342  0.22184  1.0000
  C   C949      1.0  0.86432  0.48402  0.49027  1.0000
  H   H1138     1.0  0.83519  0.50394  0.51300  1.0000
  H   H1139     1.0  0.59880  0.51430  0.24883  1.0000
  H   H1140     1.0  0.80254  0.50165  0.29094  1.0000
  N   N61       1.0  0.86225  0.45983  0.50506  1.0000
  C   C950      1.0  0.54321  0.28576  0.33368  1.0000
  H   H1141     1.0  0.89575  0.27784  0.44336  1.0000
  C   C951      1.0  0.01023  0.28698  0.39773  1.0000
  C   C952      1.0  0.94141  0.28229  0.39611  1.0000
  S   S265      1.0  0.82166  0.29346  0.08876  1.0000
  H   H1142     1.0  0.80723  0.37847  0.17764  1.0000
  C   C953      1.0  0.98172  0.33460  0.04815  1.0000
  H   H1143     1.0  0.74289  0.41320  0.21549  1.0000
  H   H1144     1.0  0.85574  0.47682  0.20585  1.0000
  H   H1145     1.0  0.54180  0.37650  0.30009  1.0000
  H   H1146     1.0  0.78616  0.51321  0.38225  1.0000
  C   C954      1.0  0.82202  0.46071  0.24219  1.0000
  H   H1147     1.0  0.87328  0.43455  0.47415  1.0000
  C   C955      1.0  0.96219  0.32443  0.29854  1.0000
  Fe  Fe131     1.0  0.87476  0.35882  0.50211  1.0000
  S   S266      1.0  0.80626  0.29536  0.47422  1.0000
  H   H1148     1.0  0.89915  0.44371  0.49504  1.0000
  H   H1149     1.0  0.56492  0.51304  0.20396  1.0000
  C   C956      1.0  0.55128  0.28111  0.28776  1.0000
  C   C957      1.0  0.95105  0.28380  0.31785  1.0000
  H   H1150     1.0  0.99979  0.30465  0.39506  1.0000
  H   H1151     1.0  0.83363  0.43131  0.51389  1.0000
  H   H1152     1.0  0.75274  0.46874  0.32069  1.0000
  C   C958      1.0  0.88182  0.48756  0.46924  1.0000
  C   C959      1.0  0.88345  0.51084  0.45600  1.0000
  H   H1153     1.0  0.84399  0.45755  0.18021  1.0000
  N   N62       1.0  0.81906  0.45930  0.21377  1.0000
  Fe  Fe132     1.0  0.69255  0.52388  0.19356  1.0000
  H   H1154     1.0  0.82239  0.48536  0.04095  1.0000
  C   C960      1.0  0.77218  0.50983  0.36753  1.0000
  H   H1155     1.0  0.80285  0.48235  0.18355  1.0000
  C   C961      1.0  0.79916  0.39403  0.18876  1.0000
  H   H1156     1.0  0.83141  0.44325  0.24987  1.0000
  H   H1157     1.0  0.58949  0.51831  0.17922  1.0000
  H   H1158     1.0  0.96372  0.34475  0.30100  1.0000
  H   H1159     1.0  0.77484  0.43599  0.33968  1.0000
  H   H1160     1.0  0.59495  0.35157  0.31463  1.0000
  N   N63       1.0  0.57710  0.36647  0.28023  1.0000
  C   C962      1.0  0.56142  0.35616  0.25903  1.0000
  C   C963      1.0  0.58380  0.34513  0.29779  1.0000
  C   C964      1.0  0.56079  0.38480  0.29475  1.0000
  C   C965      1.0  0.60086  0.37893  0.27082  1.0000
  C   C966      1.0  0.61623  0.39289  0.28807  1.0000
  C   C967      1.0  0.60981  0.37712  0.24476  1.0000
  C   C968      1.0  0.63844  0.40525  0.27950  1.0000
  C   C969      1.0  0.63229  0.38920  0.23654  1.0000
  C   C970      1.0  0.64639  0.40349  0.25377  1.0000
  H   H1161     1.0  0.57105  0.34007  0.24898  1.0000
  H   H1162     1.0  0.83929  0.42208  0.06683  1.0000
  H   H1163     1.0  0.55689  0.37117  0.24448  1.0000
  H   H1164     1.0  0.56641  0.33558  0.30576  1.0000
  H   H1165     1.0  0.99872  0.35545  0.27592  1.0000
  H   H1166     1.0  0.59540  0.33046  0.28753  1.0000
  C   C971      1.0  0.84052  0.44098  0.05715  1.0000
  C   C972      1.0  0.84881  0.50521  0.49716  1.0000
  H   H1167     1.0  0.56927  0.39068  0.31329  1.0000
  H   H1168     1.0  0.61108  0.39461  0.30828  1.0000
  H   H1169     1.0  0.59946  0.36711  0.23008  1.0000
  H   H1170     1.0  0.64935  0.41668  0.29273  1.0000
  H   H1171     1.0  0.63828  0.38832  0.21639  1.0000
  C   C973      1.0  0.98406  0.31364  0.22883  1.0000
  H   H1172     1.0  0.76861  0.44993  0.22644  1.0000
  Fe  Fe133     1.0  0.86941  0.36764  0.04908  1.0000
  C   C974      1.0  0.79134  0.45756  0.38244  1.0000
  C   C975      1.0  0.96902  0.31281  0.27469  1.0000
  C   C976      1.0  0.73472  0.50336  0.33037  1.0000
  H   H1173     1.0  0.72055  0.50125  0.31544  1.0000
  H   H1174     1.0  0.96424  0.35906  0.22825  1.0000
  H   H1175     1.0  0.79462  0.45402  0.31709  1.0000
  H   H1176     1.0  0.82137  0.48966  0.33346  1.0000
  H   H1177     1.0  0.83971  0.45534  0.07282  1.0000
  H   H1178     1.0  0.79331  0.47225  0.39758  1.0000
  C   C977      1.0  0.76296  0.41359  0.21003  1.0000
  H   H1179     1.0  0.87615  0.42098  0.50571  1.0000
  H   H1180     1.0  0.93997  0.33825  0.24116  1.0000
  C   C978      1.0  0.79283  0.44707  0.33745  1.0000
  H   H1181     1.0  0.74210  0.40277  0.05754  1.0000
  C   C979      1.0  0.79796  0.28812  0.06565  1.0000
  C   C980      1.0  0.84501  0.45910  0.20169  1.0000
  C   C981      1.0  0.77798  0.42076  0.04765  1.0000
  C   C982      1.0  0.80601  0.48280  0.20471  1.0000
  H   H1182     1.0  0.80327  0.46263  0.25240  1.0000
  H   H1183     1.0  0.99969  0.29967  0.23217  1.0000
  H   H1184     1.0  0.59544  0.49817  0.20629  1.0000
  H   H1185     1.0  0.77244  0.44832  0.38565  1.0000
  C   C983      1.0  0.80376  0.43653  0.20758  1.0000
  H   H1186     1.0  0.83497  0.46685  0.35547  1.0000
  C   C984      1.0  0.96661  0.28591  0.27350  1.0000
  C   C985      1.0  0.83542  0.45072  0.50525  1.0000
  H   H1187     1.0  0.81721  0.50017  0.20896  1.0000
  H   H1188     1.0  0.70348  0.28678  0.08992  1.0000
  C   C986      1.0  0.75358  0.48474  0.33357  1.0000
  C   C987      1.0  0.77781  0.43479  0.21578  1.0000
  H   H1189     1.0  0.82233  0.46307  0.51665  1.0000
  H   H1190     1.0  0.83363  0.47743  0.24781  1.0000
  N   N64       1.0  0.97816  0.32852  0.25251  1.0000
  H   H1191     1.0  0.00194  0.39307  0.05695  1.0000
  C   C988      1.0  0.77359  0.39328  0.19651  1.0000
  H   H1192     1.0  0.83350  0.41477  0.18667  1.0000
  H   H1193     1.0  0.79200  0.32768  0.05660  1.0000
  C   C989      1.0  0.76314  0.45772  0.08338  1.0000
  H   H1194     1.0  0.80878  0.43335  0.34066  1.0000
  N   N65       1.0  0.79363  0.46848  0.35598  1.0000
  C   C990      1.0  0.74703  0.43739  0.07850  1.0000
  S   S267      1.0  0.68787  0.51789  0.23641  1.0000
  H   H1195     1.0  0.54280  0.34869  0.26633  1.0000
  H   H1196     1.0  0.66317  0.41374  0.24700  1.0000
  C   C991      1.0  0.79619  0.28175  0.50384  1.0000
  C   C992      1.0  0.77312  0.48757  0.35216  1.0000
  C   C993      1.0  0.81412  0.41527  0.19411  1.0000
  H   H1197     1.0  0.80637  0.44296  0.38621  1.0000
  C   C994      1.0  0.76827  0.52026  0.27800  1.0000
  H   H1198     1.0  0.94809  0.31936  0.33775  1.0000
  C   C995      1.0  0.80807  0.28785  0.52702  1.0000
  H   H1199     1.0  0.79898  0.47524  0.07589  1.0000
  C   C996      1.0  0.79082  0.51855  0.29227  1.0000
  H   H1200     1.0  0.72522  0.28923  0.11635  1.0000
  H   H1201     1.0  0.73659  0.28200  0.08397  1.0000
  C   C997      1.0  0.01827  0.37513  0.09022  1.0000
  N   N66       1.0  0.81970  0.44430  0.03831  1.0000
  C   C998      1.0  0.58568  0.51613  0.20037  1.0000
  H   H1202     1.0  0.89644  0.51293  0.43953  1.0000
  C   C999      1.0  0.87014  0.46418  0.53208  1.0000
  H   H1203     1.0  0.82373  0.30123  0.52688  1.0000
  H   H1204     1.0  0.85975  0.44225  0.04773  1.0000
  H   H1205     1.0  0.94652  0.35554  0.04775  1.0000
  C   C1000     1.0  0.73477  0.52525  0.34535  1.0000
  C   C1001     1.0  0.72104  0.27843  0.09850  1.0000
  C   C1002     1.0  0.96381  0.35073  0.03693  1.0000
  Fe  Fe134     1.0  0.59646  0.35583  0.87793  1.0000
  S   S268      1.0  0.60924  0.36685  0.83769  1.0000
  S   S269      1.0  0.62589  0.34268  0.90672  1.0000
  H   H1206     1.0  0.59345  0.36989  0.94399  1.0000
  S   S270      1.0  0.55044  0.38586  0.82845  1.0000
  Fe  Fe135     1.0  0.57230  0.34921  0.82557  1.0000
  S   S271      1.0  0.56907  0.32742  0.78827  1.0000
  Fe  Fe136     1.0  0.58637  0.40243  0.84428  1.0000
  S   S272      1.0  0.59823  0.44128  0.82948  1.0000
  S   S273      1.0  0.56110  0.33552  0.86539  1.0000
  S   S274      1.0  0.57630  0.39297  0.88550  1.0000
  S   S275      1.0  0.87326  0.38159  0.00773  1.0000
  H   H1207     1.0  0.81485  0.32760  0.57299  1.0000
  S   S276      1.0  0.67170  0.51038  0.89511  1.0000
  Fe  Fe137     1.0  0.86625  0.45099  0.70046  1.0000
  S   S277      1.0  0.82667  0.44161  0.68698  1.0000
  S   S278      1.0  0.88923  0.41720  0.71566  1.0000
  S   S279      1.0  0.82367  0.49894  0.66301  1.0000
  Fe  Fe138     1.0  0.81579  0.48032  0.70148  1.0000
  S   S280      1.0  0.77677  0.48828  0.71932  1.0000
  Fe  Fe139     1.0  0.83822  0.46103  0.64983  1.0000
  S   S281      1.0  0.82554  0.44744  0.61057  1.0000
  S   S282      1.0  0.85454  0.48871  0.71768  1.0000
  S   S283      1.0  0.87838  0.46813  0.66199  1.0000
  S   S284      1.0  0.99248  0.31479  0.88251  1.0000
  Fe  Fe140     1.0  0.95478  0.36660  0.84499  1.0000
  S   S285      1.0  0.93946  0.32694  0.85111  1.0000
  S   S286      1.0  0.93227  0.40040  0.82941  1.0000
  Fe  Fe141     1.0  0.95358  0.33054  0.89169  1.0000
  S   S287      1.0  0.93527  0.31382  0.92778  1.0000
  Fe  Fe142     1.0  0.97961  0.31429  0.84130  1.0000
  H   H1208     1.0  0.81247  0.49694  0.76069  1.0000
  S   S288      1.0  0.96580  0.37097  0.88678  1.0000
  H   H1209     1.0  0.59165  0.29904  0.90215  1.0000
  C   C1003     1.0  0.00381  0.32800  0.03439  1.0000
  C   C1004     1.0  0.84162  0.30526  0.96382  1.0000
  C   C1005     1.0  0.90099  0.41296  0.74743  1.0000
  C   C1006     1.0  0.89696  0.43105  0.76674  1.0000
  C   C1007     1.0  0.90667  0.42686  0.79172  1.0000
  C   C1008     1.0  0.92045  0.40460  0.79766  1.0000
  C   C1009     1.0  0.92444  0.38649  0.77834  1.0000
  C   C1010     1.0  0.91475  0.39068  0.75336  1.0000
  H   H1210     1.0  0.88642  0.44825  0.76246  1.0000
  H   H1211     1.0  0.90350  0.44096  0.80655  1.0000
  H   H1212     1.0  0.93501  0.36931  0.78266  1.0000
  H   H1213     1.0  0.91799  0.37661  0.73854  1.0000
  C   C1011     1.0  0.99481  0.34072  0.95290  1.0000
  C   C1012     1.0  0.55433  0.28395  0.76405  1.0000
  H   H1214     1.0  0.61311  0.34841  0.97671  1.0000
  C   C1013     1.0  0.55450  0.33966  0.93357  1.0000
  H   H1215     1.0  0.57174  0.33542  0.92155  1.0000
  C   C1014     1.0  0.84430  0.42703  0.59111  1.0000
  C   C1015     1.0  0.87065  0.42446  0.59446  1.0000
  C   C1016     1.0  0.88486  0.40767  0.57874  1.0000
  C   C1017     1.0  0.87291  0.39382  0.55922  1.0000
  C   C1018     1.0  0.84665  0.39677  0.55569  1.0000
  C   C1019     1.0  0.83244  0.41332  0.57153  1.0000
  H   H1216     1.0  0.88007  0.43534  0.60919  1.0000
  H   H1217     1.0  0.90520  0.40555  0.58153  1.0000
  H   H1218     1.0  0.75872  0.31940  0.02409  1.0000
  H   H1219     1.0  0.81205  0.41518  0.56886  1.0000
  H   H1220     1.0  0.66269  0.31725  0.93807  1.0000
  H   H1221     1.0  0.60427  0.51817  0.88926  1.0000
  H   H1222     1.0  0.82476  0.40570  0.02507  1.0000
  H   H1223     1.0  0.02518  0.33133  0.99921  1.0000
  C   C1020     1.0  0.89218  0.36370  0.98594  1.0000
  C   C1021     1.0  0.89422  0.37141  0.95994  1.0000
  C   C1022     1.0  0.90818  0.35674  0.94198  1.0000
  C   C1023     1.0  0.91985  0.33411  0.94996  1.0000
  C   C1024     1.0  0.91835  0.32675  0.97605  1.0000
  C   C1025     1.0  0.90475  0.34160  0.99402  1.0000
  H   H1224     1.0  0.88459  0.38853  0.95353  1.0000
  H   H1225     1.0  0.90918  0.36250  0.92184  1.0000
  H   H1226     1.0  0.92760  0.30939  0.98235  1.0000
  H   H1227     1.0  0.90380  0.33573  0.01403  1.0000
  C   C1026     1.0  0.53847  0.35334  0.97514  1.0000
  S   S289      1.0  0.89121  0.37294  0.53977  1.0000
  H   H1228     1.0  0.97370  0.39824  0.97339  1.0000
  C   C1027     1.0  0.96782  0.36034  0.01187  1.0000
  C   C1028     1.0  0.61867  0.46010  0.84804  1.0000
  C   C1029     1.0  0.62391  0.45403  0.87380  1.0000
  C   C1030     1.0  0.64006  0.46972  0.88813  1.0000
  C   C1031     1.0  0.65128  0.49132  0.87670  1.0000
  C   C1032     1.0  0.64585  0.49745  0.85101  1.0000
  C   C1033     1.0  0.62947  0.48198  0.83678  1.0000
  H   H1229     1.0  0.61563  0.43722  0.88264  1.0000
  H   H1230     1.0  0.64414  0.46490  0.90804  1.0000
  H   H1231     1.0  0.65427  0.51406  0.84205  1.0000
  H   H1232     1.0  0.62538  0.48678  0.81687  1.0000
  C   C1034     1.0  0.55791  0.29584  0.78792  1.0000
  C   C1035     1.0  0.76754  0.30365  0.03423  1.0000
  H   H1233     1.0  0.54252  0.32228  0.93404  1.0000
  C   C1036     1.0  0.62688  0.31127  0.91904  1.0000
  N   N67       1.0  0.84020  0.29389  0.99010  1.0000
  Fe  Fe143     1.0  0.00383  0.35504  0.87468  1.0000
  C   C1037     1.0  0.83659  0.31429  0.00948  1.0000
  H   H1234     1.0  0.78263  0.40558  0.03446  1.0000
  C   C1038     1.0  0.79480  0.50678  0.76519  1.0000
  Fe  Fe144     1.0  0.86303  0.50499  0.67787  1.0000
  H   H1235     1.0  0.86063  0.33864  0.57414  1.0000
  H   H1236     1.0  0.97913  0.38781  0.94090  1.0000
  H   H1237     1.0  0.58191  0.38008  0.97546  1.0000
  H   H1238     1.0  0.54329  0.35455  0.92325  1.0000
  H   H1239     1.0  0.73534  0.51682  0.74159  1.0000
  H   H1240     1.0  0.54584  0.45229  0.85528  1.0000
  C   C1039     1.0  0.57979  0.28379  0.98908  1.0000
  H   H1241     1.0  0.56342  0.48737  0.82882  1.0000
  C   C1040     1.0  0.56600  0.30335  0.97720  1.0000
  S   S290      1.0  0.99417  0.35375  0.83231  1.0000
  C   C1041     1.0  0.60270  0.33104  0.98032  1.0000
  C   C1042     1.0  0.84336  0.32808  0.91383  1.0000
  H   H1242     1.0  0.56427  0.38718  0.94686  1.0000
  C   C1043     1.0  0.75128  0.51787  0.75463  1.0000
  Fe  Fe145     1.0  0.54192  0.37377  0.86924  1.0000
  C   C1044     1.0  0.02278  0.29539  0.78576  1.0000
  N   N68       1.0  0.71472  0.47197  0.81925  1.0000
  C   C1045     1.0  0.69870  0.48589  0.80031  1.0000
  C   C1046     1.0  0.72336  0.49066  0.83867  1.0000
  C   C1047     1.0  0.73774  0.46202  0.80562  1.0000
  C   C1048     1.0  0.70006  0.45050  0.83074  1.0000
  C   C1049     1.0  0.68860  0.43220  0.81456  1.0000
  C   C1050     1.0  0.69677  0.44696  0.85791  1.0000
  C   C1051     1.0  0.67412  0.41212  0.82487  1.0000
  C   C1052     1.0  0.68260  0.42656  0.86800  1.0000
  C   C1053     1.0  0.67112  0.40932  0.85154  1.0000
  H   H1243     1.0  0.68003  0.49140  0.80913  1.0000
  C   C1054     1.0  0.77423  0.50530  0.74839  1.0000
  H   H1244     1.0  0.55930  0.29391  0.74628  1.0000
  H   H1245     1.0  0.70691  0.49880  0.84975  1.0000
  H   H1246     1.0  0.73372  0.50695  0.82947  1.0000
  H   H1247     1.0  0.73696  0.48200  0.85257  1.0000
  H   H1248     1.0  0.74961  0.47767  0.79717  1.0000
  H   H1249     1.0  0.75002  0.45092  0.81904  1.0000
  H   H1250     1.0  0.73284  0.44934  0.78932  1.0000
  H   H1251     1.0  0.69051  0.43340  0.79375  1.0000
  H   H1252     1.0  0.70443  0.45995  0.87186  1.0000
  H   H1253     1.0  0.66493  0.39877  0.81214  1.0000
  H   H1254     1.0  0.67991  0.42448  0.88874  1.0000
  H   H1255     1.0  0.65968  0.39388  0.85949  1.0000
  H   H1256     1.0  0.55428  0.29176  0.82926  1.0000
  C   C1055     1.0  0.64801  0.27976  0.94634  1.0000
  H   H1257     1.0  0.97687  0.32965  0.95523  1.0000
  H   H1258     1.0  0.81796  0.32423  0.00755  1.0000
  H   H1259     1.0  0.83711  0.30669  0.02965  1.0000
  C   C1056     1.0  0.55144  0.28285  0.81078  1.0000
  C   C1057     1.0  0.64739  0.30397  0.93464  1.0000
  C   C1058     1.0  0.86345  0.27933  0.99731  1.0000
  C   C1059     1.0  0.99021  0.35402  0.99729  1.0000
  C   C1060     1.0  0.97496  0.38106  0.96102  1.0000
  H   H1260     1.0  0.80387  0.32299  0.96595  1.0000
  H   H1261     1.0  0.85183  0.32890  0.00751  1.0000
  H   H1262     1.0  0.79957  0.28599  0.98927  1.0000
  H   H1263     1.0  0.80534  0.47393  0.01347  1.0000
  C   C1061     1.0  0.84564  0.51771  0.58867  1.0000
  C   C1062     1.0  0.54495  0.48965  0.83837  1.0000
  H   H1264     1.0  0.85731  0.47769  0.54243  1.0000
  H   H1265     1.0  0.70808  0.50355  0.79315  1.0000
  H   H1266     1.0  0.86980  0.44625  0.54355  1.0000
  C   C1063     1.0  0.61619  0.31140  0.99246  1.0000
  C   C1064     1.0  0.57608  0.37232  0.95649  1.0000
  N   N69       1.0  0.85467  0.36959  0.65850  1.0000
  C   C1065     1.0  0.86430  0.39501  0.65073  1.0000
  C   C1066     1.0  0.83619  0.37328  0.68026  1.0000
  C   C1067     1.0  0.87631  0.35431  0.66849  1.0000
  C   C1068     1.0  0.84354  0.35708  0.63570  1.0000
  C   C1069     1.0  0.81735  0.35005  0.63451  1.0000
  C   C1070     1.0  0.85888  0.35232  0.61336  1.0000
  C   C1071     1.0  0.80730  0.33933  0.61216  1.0000
  C   C1072     1.0  0.84863  0.34153  0.59118  1.0000
  C   C1073     1.0  0.82285  0.33529  0.59049  1.0000
  H   H1267     1.0  0.84879  0.40675  0.64219  1.0000
  H   H1268     1.0  0.87185  0.40567  0.66738  1.0000
  H   H1269     1.0  0.88026  0.39390  0.63643  1.0000
  H   H1270     1.0  0.82864  0.35482  0.68767  1.0000
  H   H1271     1.0  0.81994  0.38567  0.67443  1.0000
  H   H1272     1.0  0.84526  0.38290  0.69697  1.0000
  H   H1273     1.0  0.89221  0.35264  0.65414  1.0000
  H   H1274     1.0  0.88468  0.36319  0.68600  1.0000
  H   H1275     1.0  0.87004  0.33475  0.67386  1.0000
  H   H1276     1.0  0.80410  0.35298  0.65039  1.0000
  H   H1277     1.0  0.87883  0.35754  0.61251  1.0000
  H   H1278     1.0  0.95281  0.37227  0.00428  1.0000
  H   H1279     1.0  0.88066  0.31124  0.91007  1.0000
  H   H1280     1.0  0.80857  0.42668  0.00262  1.0000
  N   N70       1.0  0.99470  0.36294  0.97033  1.0000
  H   H1281     1.0  0.87544  0.51956  0.61671  1.0000
  C   C1074     1.0  0.00805  0.33748  0.00933  1.0000
  C   C1075     1.0  0.60727  0.29391  0.91458  1.0000
  H   H1282     1.0  0.87990  0.29150  0.95236  1.0000
  C   C1076     1.0  0.82094  0.32001  0.95433  1.0000
  H   H1283     1.0  0.95582  0.37202  0.96039  1.0000
  H   H1284     1.0  0.83816  0.49986  0.59618  1.0000
  H   H1285     1.0  0.99663  0.34656  0.93220  1.0000
  C   C1077     1.0  0.57700  0.32764  0.97245  1.0000
  H   H1286     1.0  0.81722  0.52136  0.55941  1.0000
  H   H1287     1.0  0.69473  0.47451  0.78282  1.0000
  H   H1288     1.0  0.83710  0.38588  0.54117  1.0000
  N   N71       1.0  0.56197  0.34799  0.95970  1.0000
  H   H1289     1.0  0.78722  0.33440  0.61145  1.0000
  C   C1078     1.0  0.82189  0.33125  0.92972  1.0000
  H   H1290     1.0  0.01078  0.32737  0.95684  1.0000
  H   H1291     1.0  0.84422  0.33699  0.89485  1.0000
  H   H1292     1.0  0.01591  0.31423  0.79053  1.0000
  C   C1079     1.0  0.86384  0.31349  0.92240  1.0000
  H   H1293     1.0  0.80593  0.34254  0.92296  1.0000
  C   C1080     1.0  0.82179  0.47000  0.02635  1.0000
  H   H1294     1.0  0.88064  0.29171  0.99717  1.0000
  C   C1081     1.0  0.86312  0.30219  0.94698  1.0000
  C   C1082     1.0  0.60479  0.28784  0.99679  1.0000
  C   C1083     1.0  0.75983  0.27870  0.02909  1.0000
  C   C1084     1.0  0.01978  0.37590  0.96789  1.0000
  H   H1295     1.0  0.57089  0.52513  0.88981  1.0000
  H   H1296     1.0  0.83964  0.47206  0.01452  1.0000
  H   H1297     1.0  0.54324  0.35865  0.99531  1.0000
  C   C1085     1.0  0.82382  0.42549  0.01735  1.0000
  H   H1298     1.0  0.84239  0.42849  0.00695  1.0000
  C   C1086     1.0  0.53097  0.51204  0.83527  1.0000
  H   H1299     1.0  0.63599  0.31410  0.99763  1.0000
  C   C1087     1.0  0.53498  0.46983  0.85334  1.0000
  H   H1300     1.0  0.58699  0.51886  0.85961  1.0000
  H   H1301     1.0  0.54677  0.29913  0.97134  1.0000
  H   H1302     1.0  0.80901  0.28111  0.56822  1.0000
  H   H1303     1.0  0.02294  0.38384  0.94801  1.0000
  H   H1304     1.0  0.02108  0.39191  0.98172  1.0000
  C   C1088     1.0  0.79249  0.52097  0.78797  1.0000
  H   H1305     1.0  0.80846  0.52191  0.80096  1.0000
  H   H1306     1.0  0.99216  0.27747  0.73691  1.0000
  H   H1307     1.0  0.82845  0.73148  0.52257  1.0000
  H   H1308     1.0  0.78818  0.73357  0.05306  1.0000
  S   S291      1.0  0.68090  0.55975  0.17217  1.0000
  H   H1309     1.0  0.89567  0.57408  0.52949  1.0000
  Fe  Fe146     1.0  0.82483  0.57849  0.35767  1.0000
  S   S292      1.0  0.86296  0.56687  0.34130  1.0000
  S   S293      1.0  0.78973  0.58404  0.33326  1.0000
  Fe  Fe147     1.0  0.84553  0.58572  0.41235  1.0000
  S   S294      1.0  0.88539  0.57488  0.40023  1.0000
  S   S295      1.0  0.83239  0.59423  0.45340  1.0000
  Fe  Fe148     1.0  0.87847  0.59897  0.36468  1.0000
  S   S296      1.0  0.90550  0.62999  0.35073  1.0000
  Fe  Fe149     1.0  0.86632  0.54375  0.37810  1.0000
  S   S297      1.0  0.83990  0.61229  0.37881  1.0000
  S   S298      1.0  0.82679  0.55290  0.39248  1.0000
  Fe  Fe150     1.0  0.98222  0.73045  0.23289  1.0000
  C   C1089     1.0  0.01769  0.70084  0.11240  1.0000
  Fe  Fe151     1.0  0.96936  0.71870  0.17672  1.0000
  S   S299      1.0  0.98163  0.67794  0.18048  1.0000
  S   S300      1.0  0.95789  0.73886  0.13959  1.0000
  Fe  Fe152     1.0  0.96125  0.67859  0.21930  1.0000
  S   S301      1.0  0.93619  0.64554  0.23228  1.0000
  S   S302      1.0  0.94609  0.71828  0.21360  1.0000
  S   S303      1.0  0.00446  0.73427  0.19564  1.0000
  S   S304      1.0  0.88765  0.68438  0.05746  1.0000
  Fe  Fe153     1.0  0.60720  0.68356  0.21024  1.0000
  S   S305      1.0  0.59431  0.68086  0.16929  1.0000
  S   S306      1.0  0.63260  0.65473  0.23031  1.0000
  Fe  Fe154     1.0  0.57932  0.73411  0.21859  1.0000
  S   S307      1.0  0.56412  0.73501  0.17810  1.0000
  H   H1310     1.0  0.80796  0.64136  0.42289  1.0000
  Fe  Fe155     1.0  0.55615  0.69338  0.18511  1.0000
  Fe  Fe156     1.0  0.60358  0.72260  0.16610  1.0000
  S   S308      1.0  0.62573  0.73681  0.13068  1.0000
  S   S309      1.0  0.56837  0.69343  0.22662  1.0000
  S   S310      1.0  0.61946  0.72430  0.20602  1.0000
  C   C1090     1.0  0.75345  0.52846  0.36392  1.0000
  S   S311      1.0  0.99590  0.69069  0.24098  1.0000
  C   C1091     1.0  0.81176  0.65827  0.43407  1.0000
  C   C1092     1.0  0.56388  0.56477  0.18853  1.0000
  C   C1093     1.0  0.88062  0.58876  0.53267  1.0000
  H   H1311     1.0  0.81094  0.70270  0.09812  1.0000
  S   S312      1.0  0.57545  0.76808  0.24501  1.0000
  H   H1312     1.0  0.59183  0.75690  0.36410  1.0000
  C   C1094     1.0  0.75326  0.54224  0.27961  1.0000
  H   H1313     1.0  0.86290  0.73202  0.05746  1.0000
  C   C1095     1.0  0.93883  0.72325  0.11668  1.0000
  C   C1096     1.0  0.93394  0.73523  0.09285  1.0000
  C   C1097     1.0  0.91866  0.72339  0.07429  1.0000
  C   C1098     1.0  0.90801  0.69950  0.07954  1.0000
  C   C1099     1.0  0.91278  0.68762  0.10342  1.0000
  C   C1100     1.0  0.92823  0.69936  0.12188  1.0000
  H   H1314     1.0  0.94210  0.75371  0.08866  1.0000
  H   H1315     1.0  0.91516  0.73272  0.05595  1.0000
  H   H1316     1.0  0.90460  0.66915  0.10764  1.0000
  H   H1317     1.0  0.93184  0.68994  0.14017  1.0000
  C   C1101     1.0  0.91624  0.63282  0.31820  1.0000
  C   C1102     1.0  0.91178  0.61378  0.30009  1.0000
  C   C1103     1.0  0.91881  0.61756  0.27396  1.0000
  C   C1104     1.0  0.93033  0.64036  0.26569  1.0000
  C   C1105     1.0  0.93550  0.65909  0.28392  1.0000
  C   C1106     1.0  0.92851  0.65529  0.31008  1.0000
  H   H1318     1.0  0.90272  0.59622  0.30614  1.0000
  H   H1319     1.0  0.91505  0.60286  0.26003  1.0000
  H   H1320     1.0  0.94441  0.67672  0.27779  1.0000
  H   H1321     1.0  0.93219  0.67005  0.32398  1.0000
  Fe  Fe157     1.0  0.01518  0.69343  0.20180  1.0000
  H   H1322     1.0  0.80463  0.70896  0.51376  1.0000
  C   C1107     1.0  0.66688  0.58547  0.18892  1.0000
  C   C1108     1.0  0.65065  0.60219  0.17561  1.0000
  C   C1109     1.0  0.63938  0.62303  0.18830  1.0000
  C   C1110     1.0  0.64478  0.62769  0.21423  1.0000
  C   C1111     1.0  0.66087  0.61087  0.22759  1.0000
  C   C1112     1.0  0.67179  0.58974  0.21503  1.0000
  H   H1323     1.0  0.64658  0.59884  0.15546  1.0000
  H   H1324     1.0  0.62649  0.63542  0.17802  1.0000
  H   H1325     1.0  0.66514  0.61436  0.24767  1.0000
  H   H1326     1.0  0.68440  0.57707  0.22542  1.0000
  H   H1327     1.0  0.85687  0.67962  0.29935  1.0000
  C   C1113     1.0  0.76031  0.56198  0.29624  1.0000
  C   C1114     1.0  0.78232  0.55980  0.31129  1.0000
  H   H1328     1.0  0.81043  0.75016  0.45533  1.0000
  H   H1329     1.0  0.74831  0.57869  0.29793  1.0000
  C   C1115     1.0  0.87193  0.65544  0.50101  1.0000
  C   C1116     1.0  0.88376  0.64606  0.47847  1.0000
  C   C1117     1.0  0.87182  0.62733  0.46363  1.0000
  C   C1118     1.0  0.84791  0.61791  0.47126  1.0000
  C   C1119     1.0  0.83606  0.62731  0.49376  1.0000
  C   C1120     1.0  0.84793  0.64612  0.50850  1.0000
  H   H1330     1.0  0.90229  0.65324  0.47247  1.0000
  H   H1331     1.0  0.88112  0.62021  0.44630  1.0000
  H   H1332     1.0  0.81745  0.62025  0.49961  1.0000
  S   S313      1.0  0.88772  0.67876  0.51922  1.0000
  H   H1333     1.0  0.86502  0.72582  0.10437  1.0000
  H   H1334     1.0  0.69297  0.64564  0.16178  1.0000
  C   C1121     1.0  0.72183  0.75826  0.14096  1.0000
  C   C1122     1.0  0.86771  0.53109  0.46306  1.0000
  C   C1123     1.0  0.79289  0.66830  0.45030  1.0000
  H   H1335     1.0  0.86056  0.69763  0.44680  1.0000
  S   S314      1.0  0.97882  0.76002  0.26439  1.0000
  H   H1336     1.0  0.55166  0.62848  0.18997  1.0000
  H   H1337     1.0  0.85665  0.75836  0.10617  1.0000
  H   H1338     1.0  0.78279  0.69646  0.47788  1.0000
  C   C1124     1.0  0.68849  0.73428  0.16283  1.0000
  H   H1339     1.0  0.68965  0.77520  0.16051  1.0000
  H   H1340     1.0  0.86240  0.62226  0.31546  1.0000
  C   C1125     1.0  0.54664  0.77424  0.26184  1.0000
  H   H1341     1.0  0.84470  0.64802  0.32934  1.0000
  N   N72       1.0  0.59527  0.53830  0.21496  1.0000
  H   H1342     1.0  0.65633  0.76263  0.09215  1.0000
  C   C1126     1.0  0.84416  0.63301  0.31430  1.0000
  C   C1127     1.0  0.76462  0.74733  0.53037  1.0000
  H   H1343     1.0  0.64907  0.69916  0.16203  1.0000
  C   C1128     1.0  0.84493  0.74316  0.05969  1.0000
  C   C1129     1.0  0.69923  0.75756  0.15541  1.0000
  C   C1130     1.0  0.73394  0.73564  0.13398  1.0000
  N   N73       1.0  0.84054  0.64370  0.28797  1.0000
  H   H1344     1.0  0.87913  0.65773  0.28578  1.0000
  C   C1131     1.0  0.81449  0.65475  0.28657  1.0000
  C   C1132     1.0  0.85914  0.66475  0.28428  1.0000
  C   C1133     1.0  0.84342  0.62323  0.26862  1.0000
  C   C1134     1.0  0.82739  0.60152  0.26995  1.0000
  C   C1135     1.0  0.86194  0.62399  0.24822  1.0000
  C   C1136     1.0  0.82990  0.58170  0.25225  1.0000
  C   C1137     1.0  0.86440  0.60401  0.23067  1.0000
  C   C1138     1.0  0.84844  0.58292  0.23267  1.0000
  H   H1345     1.0  0.85697  0.67434  0.26517  1.0000
  C   C1139     1.0  0.57875  0.60891  0.21391  1.0000
  H   H1346     1.0  0.62758  0.54484  0.18951  1.0000
  H   H1347     1.0  0.81057  0.66201  0.26674  1.0000
  H   H1348     1.0  0.81190  0.67074  0.30036  1.0000
  H   H1349     1.0  0.79943  0.64058  0.29166  1.0000
  H   H1350     1.0  0.67058  0.73481  0.17351  1.0000
  C   C1140     1.0  0.58303  0.56276  0.20773  1.0000
  H   H1351     1.0  0.65329  0.66613  0.15691  1.0000
  H   H1352     1.0  0.81287  0.59963  0.28490  1.0000
  H   H1353     1.0  0.87526  0.63951  0.24563  1.0000
  H   H1354     1.0  0.81748  0.56527  0.25396  1.0000
  H   H1355     1.0  0.87914  0.60485  0.21568  1.0000
  H   H1356     1.0  0.85057  0.56745  0.21909  1.0000
  H   H1357     1.0  0.70385  0.66277  0.13380  1.0000
  C   C1141     1.0  0.70023  0.71083  0.15607  1.0000
  H   H1358     1.0  0.55745  0.54857  0.17777  1.0000
  H   H1359     1.0  0.81492  0.53657  0.32029  1.0000
  H   H1360     1.0  0.83799  0.54411  0.48865  1.0000
  H   H1361     1.0  0.82870  0.61969  0.32018  1.0000
  C   C1142     1.0  0.63899  0.76771  0.12983  1.0000
  N   N74       1.0  0.82749  0.72337  0.48169  1.0000
  H   H1362     1.0  0.88816  0.60724  0.52513  1.0000
  H   H1363     1.0  0.70532  0.68773  0.20172  1.0000
  N   N75       1.0  0.68827  0.68646  0.16409  1.0000
  H   H1364     1.0  0.78903  0.73885  0.48016  1.0000
  H   H1365     1.0  0.67860  0.66658  0.19961  1.0000
  C   C1143     1.0  0.85041  0.52830  0.48359  1.0000
  H   H1366     1.0  0.72214  0.66292  0.16343  1.0000
  C   C1144     1.0  0.82429  0.71560  0.50915  1.0000
  H   H1367     1.0  0.73366  0.69542  0.13520  1.0000
  C   C1145     1.0  0.84125  0.69056  0.44810  1.0000
  C   C1146     1.0  0.82240  0.70132  0.46488  1.0000
  H   H1368     1.0  0.81558  0.70315  0.06343  1.0000
  C   C1147     1.0  0.72341  0.71218  0.14139  1.0000
  C   C1148     1.0  0.01886  0.71599  0.09021  1.0000
  C   C1149     1.0  0.80920  0.74426  0.47604  1.0000
  C   C1150     1.0  0.78688  0.74764  0.06817  1.0000
  C   C1151     1.0  0.66224  0.68497  0.15330  1.0000
  H   H1369     1.0  0.57432  0.76778  0.31106  1.0000
  H   H1370     1.0  0.75148  0.73632  0.12260  1.0000
  H   H1371     1.0  0.85689  0.75033  0.49137  1.0000
  H   H1372     1.0  0.63254  0.55422  0.22231  1.0000
  C   C1152     1.0  0.84826  0.73896  0.10571  1.0000
  C   C1153     1.0  0.55273  0.58827  0.18233  1.0000
  H   H1373     1.0  0.60491  0.58578  0.23457  1.0000
  H   H1374     1.0  0.85749  0.74034  0.45832  1.0000
  H   H1375     1.0  0.72069  0.54004  0.34214  1.0000
  N   N76       1.0  0.83079  0.73580  0.08354  1.0000
  H   H1376     1.0  0.81277  0.76133  0.48809  1.0000
  H   H1377     1.0  0.74981  0.75978  0.05526  1.0000
  C   C1154     1.0  0.82425  0.70835  0.08216  1.0000
  C   C1155     1.0  0.80732  0.75151  0.08546  1.0000
  H   H1378     1.0  0.55942  0.76103  0.35481  1.0000
  C   C1156     1.0  0.56013  0.61026  0.19501  1.0000
  C   C1157     1.0  0.85373  0.73376  0.47852  1.0000
  C   C1158     1.0  0.65330  0.77564  0.10800  1.0000
  H   H1379     1.0  0.86865  0.54891  0.45238  1.0000
  H   H1380     1.0  0.85059  0.66117  0.42061  1.0000
  H   H1381     1.0  0.77431  0.65928  0.45141  1.0000
  C   C1159     1.0  0.70259  0.66357  0.15530  1.0000
  H   H1382     1.0  0.00193  0.72634  0.08426  1.0000
  H   H1383     1.0  0.83749  0.69974  0.51395  1.0000
  C   C1160     1.0  0.79801  0.68955  0.46543  1.0000
  H   H1384     1.0  0.00000  0.69953  0.12355  1.0000
  H   H1385     1.0  0.84151  0.69597  0.08355  1.0000
  H   H1386     1.0  0.83835  0.73488  0.12446  1.0000
  C   C1161     1.0  0.59016  0.58561  0.22014  1.0000
  H   H1387     1.0  0.67325  0.69986  0.20087  1.0000
  H   H1388     1.0  0.83840  0.65346  0.52555  1.0000
  C   C1162     1.0  0.79783  0.53825  0.30891  1.0000
  H   H1389     1.0  0.58470  0.62615  0.22352  1.0000
  H   H1390     1.0  0.66244  0.68859  0.13203  1.0000
  C   C1163     1.0  0.68634  0.68516  0.19274  1.0000
  H   H1391     1.0  0.86847  0.71935  0.48389  1.0000
  H   H1392     1.0  0.73587  0.54372  0.26865  1.0000
  H   H1393     1.0  0.83351  0.74001  0.04200  1.0000
  H   H1394     1.0  0.75678  0.73070  0.52123  1.0000
  H   H1395     1.0  0.75381  0.54581  0.37512  1.0000
  C   C1164     1.0  0.83579  0.66948  0.43283  1.0000
  C   C1165     1.0  0.76487  0.76273  0.06909  1.0000
  H   H1396     1.0  0.86424  0.58398  0.52018  1.0000
  H   H1397     1.0  0.53849  0.58965  0.16736  1.0000
  C   C1166     1.0  0.75667  0.77164  0.52249  1.0000
  H   H1398     1.0  0.56990  0.53275  0.24763  1.0000
  H   H1399     1.0  0.52992  0.73755  0.25534  1.0000
  H   H1400     1.0  0.58953  0.77486  0.07306  1.0000
  C   C1167     1.0  0.62320  0.53982  0.21008  1.0000
  S   S315      1.0  0.73434  0.77431  0.49754  1.0000
  C   C1168     1.0  0.59069  0.53304  0.24289  1.0000
  H   H1401     1.0  0.59979  0.54738  0.25543  1.0000
  H   H1402     1.0  0.85024  0.76363  0.05992  1.0000
  C   C1169     1.0  0.57654  0.77143  0.36163  1.0000
  C   C1170     1.0  0.80470  0.77205  0.10305  1.0000
  H   H1403     1.0  0.02752  0.76755  0.23821  1.0000
  H   H1404     1.0  0.60755  0.76686  0.31940  1.0000
  H   H1405     1.0  0.72981  0.77643  0.13504  1.0000
  H   H1406     1.0  0.81833  0.59991  0.69308  1.0000
  Fe  Fe158     1.0  0.89055  0.71180  0.61100  1.0000
  S   S316      1.0  0.85054  0.71106  0.62734  1.0000
  S   S317      1.0  0.92262  0.72376  0.63745  1.0000
  Fe  Fe159     1.0  0.87344  0.69049  0.55900  1.0000
  S   S318      1.0  0.83226  0.68891  0.57131  1.0000
  Fe  Fe160     1.0  0.83916  0.72715  0.58881  1.0000
  S   S319      1.0  0.81444  0.76257  0.58742  1.0000
  Fe  Fe161     1.0  0.84752  0.67285  0.60855  1.0000
  S   S320      1.0  0.82641  0.63898  0.62539  1.0000
  S   S321      1.0  0.87943  0.73031  0.57354  1.0000
  S   S322      1.0  0.88837  0.67197  0.59511  1.0000
  N   N77       1.0  0.87326  0.59036  0.56046  1.0000
  C   C1171     1.0  0.84106  0.56480  0.79477  1.0000
  S   S323      1.0  0.55794  0.66698  0.88920  1.0000
  Fe  Fe162     1.0  0.89893  0.72452  0.96741  1.0000
  S   S324      1.0  0.89920  0.68406  0.98156  1.0000
  S   S325      1.0  0.93243  0.74482  0.94810  1.0000
  Fe  Fe163     1.0  0.84381  0.73335  0.98587  1.0000
  S   S326      1.0  0.84026  0.69367  0.00177  1.0000
  H   H1407     1.0  0.83371  0.56704  0.81438  1.0000
  H   H1408     1.0  0.78172  0.56557  0.74367  1.0000
  Fe  Fe164     1.0  0.85966  0.68174  0.96496  1.0000
  S   S327      1.0  0.84802  0.64893  0.93945  1.0000
  S   S328      1.0  0.88182  0.74062  0.00413  1.0000
  S   S329      1.0  0.86102  0.72103  0.94791  1.0000
  Fe  Fe165     1.0  0.69043  0.54527  0.87746  1.0000
  S   S330      1.0  0.69171  0.55377  0.83486  1.0000
  Fe  Fe166     1.0  0.71930  0.59426  0.89097  1.0000
  S   S331      1.0  0.72231  0.60617  0.84929  1.0000
  S   S332      1.0  0.73120  0.62132  0.92248  1.0000
  Fe  Fe167     1.0  0.68135  0.59368  0.84703  1.0000
  S   S333      1.0  0.65056  0.61657  0.82691  1.0000
  Fe  Fe168     1.0  0.73237  0.56527  0.84182  1.0000
  S   S334      1.0  0.76899  0.55395  0.82111  1.0000
  S   S335      1.0  0.67762  0.58429  0.88914  1.0000
  S   S336      1.0  0.73180  0.55406  0.88391  1.0000
  C   C1172     1.0  0.83409  0.56747  0.74791  1.0000
  S   S337      1.0  0.88385  0.54237  0.67106  1.0000
  C   C1173     1.0  0.61982  0.55745  0.86134  1.0000
  H   H1409     1.0  0.71395  0.75533  0.60121  1.0000
  C   C1174     1.0  0.87604  0.55220  0.59116  1.0000
  H   H1410     1.0  0.55070  0.75523  0.70885  1.0000
  C   C1175     1.0  0.76988  0.53421  0.79383  1.0000
  H   H1411     1.0  0.83149  0.61202  0.72248  1.0000
  C   C1176     1.0  0.81541  0.64205  0.93442  1.0000
  C   C1177     1.0  0.80890  0.62321  0.91657  1.0000
  C   C1178     1.0  0.78316  0.61691  0.91245  1.0000
  C   C1179     1.0  0.76373  0.62924  0.92640  1.0000
  C   C1180     1.0  0.77022  0.64823  0.94408  1.0000
  C   C1181     1.0  0.79595  0.65473  0.94798  1.0000
  H   H1412     1.0  0.82382  0.61326  0.90606  1.0000
  H   H1413     1.0  0.77838  0.60223  0.89882  1.0000
  H   H1414     1.0  0.75534  0.65780  0.95501  1.0000
  H   H1415     1.0  0.80072  0.66927  0.96176  1.0000
  C   C1182     1.0  0.58281  0.65201  0.87147  1.0000
  C   C1183     1.0  0.60343  0.64145  0.88492  1.0000
  C   C1184     1.0  0.62423  0.63053  0.87152  1.0000
  C   C1185     1.0  0.62475  0.63027  0.84447  1.0000
  C   C1186     1.0  0.60422  0.64101  0.83099  1.0000
  C   C1187     1.0  0.58323  0.65169  0.84442  1.0000
  H   H1416     1.0  0.60343  0.64204  0.90584  1.0000
  H   H1417     1.0  0.63991  0.62263  0.88219  1.0000
  H   H1418     1.0  0.60447  0.64100  0.81006  1.0000
  H   H1419     1.0  0.56764  0.66009  0.83383  1.0000
  H   H1420     1.0  0.80679  0.57845  0.77871  1.0000
  H   H1421     1.0  0.80333  0.55413  0.69182  1.0000
  H   H1422     1.0  0.91486  0.76920  0.60590  1.0000
  C   C1188     1.0  0.94712  0.76278  0.66208  1.0000
  H   H1423     1.0  0.61489  0.55919  0.91127  1.0000
  C   C1189     1.0  0.84326  0.61219  0.63689  1.0000
  C   C1190     1.0  0.86879  0.61368  0.64431  1.0000
  C   C1191     1.0  0.88122  0.59200  0.65429  1.0000
  C   C1192     1.0  0.86828  0.56873  0.65672  1.0000
  C   C1193     1.0  0.84301  0.56720  0.64854  1.0000
  C   C1194     1.0  0.83051  0.58886  0.63889  1.0000
  H   H1424     1.0  0.87878  0.63163  0.64290  1.0000
  H   H1425     1.0  0.90080  0.59338  0.66054  1.0000
  H   H1426     1.0  0.83293  0.54942  0.64972  1.0000
  H   H1427     1.0  0.81083  0.58752  0.63293  1.0000
  H   H1428     1.0  0.63524  0.54767  0.87223  1.0000
  H   H1429     1.0  0.80942  0.53402  0.71925  1.0000
  C   C1195     1.0  0.84321  0.55319  0.55862  1.0000
  H   H1430     1.0  0.91728  0.74756  0.88862  1.0000
  C   C1196     1.0  0.93235  0.75583  0.64077  1.0000
  C   C1197     1.0  0.55409  0.76784  0.79321  1.0000
  H   H1431     1.0  0.95283  0.74840  0.67593  1.0000
  C   C1198     1.0  0.82975  0.59474  0.71037  1.0000
  C   C1199     1.0  0.99627  0.70211  0.90472  1.0000
  C   C1200     1.0  0.99774  0.72839  0.90838  1.0000
  C   C1201     1.0  0.97834  0.74116  0.92226  1.0000
  C   C1202     1.0  0.95757  0.72773  0.93299  1.0000
  C   C1203     1.0  0.95665  0.70133  0.93027  1.0000
  C   C1204     1.0  0.97575  0.68860  0.91587  1.0000
  H   H1432     1.0  0.95533  0.74562  0.85974  1.0000
  H   H1433     1.0  0.97921  0.76153  0.92454  1.0000
  H   H1434     1.0  0.94097  0.69089  0.93891  1.0000
  H   H1435     1.0  0.97462  0.66827  0.91331  1.0000
  C   C1205     1.0  0.85924  0.55779  0.74433  1.0000
  C   C1206     1.0  0.87446  0.55123  0.76536  1.0000
  H   H1436     1.0  0.73183  0.54307  0.78138  1.0000
  H   H1437     1.0  0.84926  0.58993  0.70312  1.0000
  H   H1438     1.0  0.86730  0.55494  0.72517  1.0000
  Fe  Fe169     1.0  0.87978  0.69976  0.01715  1.0000
  C   C1207     1.0  0.85219  0.60909  0.56340  1.0000
  H   H1439     1.0  0.57262  0.76597  0.80201  1.0000
  H   H1440     1.0  0.68823  0.76931  0.54802  1.0000
  C   C1208     1.0  0.72023  0.77207  0.58951  1.0000
  C   C1209     1.0  0.87122  0.77437  0.66582  1.0000
  C   C1210     1.0  0.57374  0.56873  0.86147  1.0000
  H   H1441     1.0  0.01629  0.68783  0.80712  1.0000
  S   S338      1.0  0.80722  0.75641  0.98553  1.0000
  C   C1211     1.0  0.88584  0.76561  0.68648  1.0000
  H   H1442     1.0  0.77970  0.58446  0.71485  1.0000
  H   H1443     1.0  0.79088  0.59876  0.74370  1.0000
  H   H1444     1.0  0.53224  0.72055  0.73574  1.0000
  C   C1212     1.0  0.89561  0.60036  0.57452  1.0000
  H   H1445     1.0  0.83518  0.54565  0.69956  1.0000
  H   H1446     1.0  0.02727  0.65577  0.83941  1.0000
  H   H1447     1.0  0.88721  0.74536  0.69045  1.0000
  H   H1448     1.0  0.78797  0.72556  0.55665  1.0000
  H   H1449     1.0  0.01348  0.73892  0.89999  1.0000
  C   C1213     1.0  0.82561  0.57127  0.77387  1.0000
  H   H1450     1.0  0.87698  0.54903  0.80681  1.0000
  C   C1214     1.0  0.86532  0.55458  0.79055  1.0000
  H   H1451     1.0  0.89194  0.55992  0.60158  1.0000
  C   C1215     1.0  0.57724  0.58132  0.83721  1.0000
  H   H1452     1.0  0.85875  0.62889  0.55951  1.0000
  H   H1453     1.0  0.59555  0.58232  0.82734  1.0000
  H   H1454     1.0  0.89094  0.60337  0.59537  1.0000
  C   C1216     1.0  0.74918  0.53255  0.77720  1.0000
  C   C1217     1.0  0.86450  0.56516  0.57004  1.0000
  H   H1455     1.0  0.90186  0.61920  0.56669  1.0000
  H   H1456     1.0  0.67427  0.75636  0.57661  1.0000
  S   S339      1.0  0.01882  0.68600  0.88492  1.0000
  N   N78       1.0  0.81806  0.57346  0.72527  1.0000
  C   C1218     1.0  0.53440  0.75094  0.80040  1.0000
  H   H1457     1.0  0.72990  0.76457  0.57181  1.0000
  H   H1458     1.0  0.84416  0.60867  0.58342  1.0000
  H   H1459     1.0  0.91237  0.58739  0.57288  1.0000
  N   N79       1.0  0.90297  0.66017  0.88410  1.0000
  C   C1219     1.0  0.91106  0.63723  0.86950  1.0000
  C   C1220     1.0  0.90725  0.65500  0.91191  1.0000
  C   C1221     1.0  0.87514  0.66370  0.87997  1.0000
  C   C1222     1.0  0.91707  0.68347  0.87637  1.0000
  C   C1223     1.0  0.90955  0.70747  0.88633  1.0000
  C   C1224     1.0  0.93924  0.68299  0.86011  1.0000
  C   C1225     1.0  0.92296  0.72964  0.87997  1.0000
  C   C1226     1.0  0.95266  0.70528  0.85406  1.0000
  C   C1227     1.0  0.94449  0.72854  0.86390  1.0000
  H   H1460     1.0  0.90903  0.64023  0.84829  1.0000
  H   H1461     1.0  0.93115  0.63182  0.87374  1.0000
  H   H1462     1.0  0.89926  0.62036  0.87499  1.0000
  H   H1463     1.0  0.92793  0.65276  0.91603  1.0000
  H   H1464     1.0  0.89740  0.63734  0.91862  1.0000
  H   H1465     1.0  0.89976  0.67060  0.92432  1.0000
  H   H1466     1.0  0.87121  0.66969  0.85973  1.0000
  H   H1467     1.0  0.86419  0.64596  0.88420  1.0000
  H   H1468     1.0  0.86650  0.67807  0.89315  1.0000
  H   H1469     1.0  0.89381  0.70922  0.89995  1.0000
  H   H1470     1.0  0.94705  0.66562  0.85235  1.0000
  C   C1228     1.0  0.68007  0.77458  0.56732  1.0000
  H   H1471     1.0  0.97003  0.70440  0.84240  1.0000
  H   H1472     1.0  0.53785  0.73610  0.81456  1.0000
  H   H1473     1.0  0.60101  0.58821  0.89928  1.0000
  C   C1229     1.0  0.92544  0.77451  0.62280  1.0000
  C   C1230     1.0  0.81646  0.55092  0.70829  1.0000
  C   C1231     1.0  0.79146  0.58091  0.73231  1.0000
  H   H1474     1.0  0.83616  0.60545  0.55011  1.0000
  N   N80       1.0  0.68906  0.68244  0.89316  1.0000
  C   C1232     1.0  0.68947  0.65627  0.88281  1.0000
  C   C1233     1.0  0.70263  0.69947  0.87452  1.0000
  C   C1234     1.0  0.70384  0.68224  0.91751  1.0000
  C   C1235     1.0  0.66222  0.69087  0.89661  1.0000
  C   C1236     1.0  0.65095  0.69559  0.92133  1.0000
  C   C1237     1.0  0.64625  0.69393  0.87481  1.0000
  C   C1238     1.0  0.62541  0.70323  0.92382  1.0000
  C   C1239     1.0  0.62086  0.70185  0.87754  1.0000
  C   C1240     1.0  0.61044  0.70641  0.90198  1.0000
  H   H1475     1.0  0.67996  0.64276  0.89653  1.0000
  H   H1476     1.0  0.67971  0.65474  0.86390  1.0000
  H   H1477     1.0  0.70939  0.64939  0.87984  1.0000
  H   H1478     1.0  0.69490  0.69823  0.85467  1.0000
  H   H1479     1.0  0.72327  0.69443  0.87270  1.0000
  H   H1480     1.0  0.70127  0.71965  0.88076  1.0000
  H   H1481     1.0  0.72412  0.67646  0.91409  1.0000
  H   H1482     1.0  0.70415  0.70132  0.92660  1.0000
  H   H1483     1.0  0.69616  0.66803  0.93171  1.0000
  H   H1484     1.0  0.66131  0.69315  0.93908  1.0000
  H   H1485     1.0  0.65301  0.68948  0.85551  1.0000
  H   H1486     1.0  0.61694  0.70626  0.94282  1.0000
  H   H1487     1.0  0.60877  0.70336  0.86071  1.0000
  H   H1488     1.0  0.59043  0.71159  0.90402  1.0000
  C   C1241     1.0  0.59807  0.56730  0.90105  1.0000
  H   H1489     1.0  0.54467  0.56051  0.89110  1.0000
  C   C1242     1.0  0.55702  0.59397  0.82520  1.0000
  C   C1243     1.0  0.54876  0.56943  0.87262  1.0000
  H   H1490     1.0  0.89333  0.54322  0.76202  1.0000
  H   H1491     1.0  0.53863  0.52733  0.82329  1.0000
  C   C1244     1.0  0.79230  0.76574  0.56236  1.0000
  H   H1492     1.0  0.62600  0.57752  0.85883  1.0000
  N   N81       1.0  0.59483  0.55575  0.87520  1.0000
  H   H1493     1.0  0.56027  0.60405  0.80707  1.0000
  C   C1245     1.0  0.83392  0.52986  0.56792  1.0000
  H   H1494     1.0  0.61921  0.54842  0.84198  1.0000
  H   H1495     1.0  0.83326  0.56212  0.54276  1.0000
  H   H1496     1.0  0.86129  0.76030  0.65472  1.0000
  H   H1497     1.0  0.02037  0.77549  0.85547  1.0000
  C   C1246     1.0  0.78232  0.74437  0.55031  1.0000
  H   H1498     1.0  0.67099  0.76121  0.61894  1.0000
  C   C1247     1.0  0.53026  0.75187  0.70879  1.0000
  H   H1499     1.0  0.00877  0.76535  0.79914  1.0000
  H   H1500     1.0  0.58126  0.56424  0.91401  1.0000
  C   C1248     1.0  0.02612  0.77634  0.79698  1.0000
  C   C1249     1.0  0.58887  0.52836  0.87864  1.0000
  C   C1250     1.0  0.53288  0.59454  0.83683  1.0000
  C   C1251     1.0  0.86669  0.52881  0.60017  1.0000
  H   H1501     1.0  0.02780  0.61346  0.85081  1.0000
  H   H1502     1.0  0.86387  0.77669  0.61371  1.0000
  H   H1503     1.0  0.91183  0.77571  0.71652  1.0000
  H   H1504     1.0  0.64854  0.77645  0.65756  1.0000
  Fe  Fe170     1.0  0.71138  0.81033  0.49098  1.0000
  S   S340      1.0  0.72105  0.85051  0.50184  1.0000
  H   H1505     1.0  0.60637  0.83328  0.31922  1.0000
  Fe  Fe171     1.0  0.65941  0.82500  0.46958  1.0000
  S   S341      1.0  0.66476  0.86592  0.47872  1.0000
  S   S342      1.0  0.62272  0.80878  0.45461  1.0000
  Fe  Fe172     1.0  0.70479  0.86091  0.46307  1.0000
  S   S343      1.0  0.71732  0.89281  0.43593  1.0000
  H   H1506     1.0  0.65365  0.84736  0.07134  1.0000
  S   S344      1.0  0.69809  0.82052  0.45091  1.0000
  S   S345      1.0  0.67197  0.81150  0.50864  1.0000
  Fe  Fe173     1.0  0.84503  0.94509  0.37303  1.0000
  S   S346      1.0  0.85172  0.93205  0.33219  1.0000
  S   S347      1.0  0.83279  0.91609  0.40364  1.0000
  S   S348      1.0  0.87922  0.98688  0.32064  1.0000
  Fe  Fe174     1.0  0.83939  0.97138  0.32058  1.0000
  S   S349      1.0  0.81712  0.97742  0.28394  1.0000
  Fe  Fe175     1.0  0.89079  0.94869  0.33606  1.0000
  S   S350      1.0  0.92554  0.92886  0.31941  1.0000
  S   S351      1.0  0.82951  0.98351  0.36120  1.0000
  S   S352      1.0  0.88525  0.95937  0.37752  1.0000
  C   C1252     1.0  0.00636  0.79130  0.29561  1.0000
  C   C1253     1.0  0.60690  0.80643  0.35164  1.0000
  Fe  Fe176     1.0  0.72564  0.91620  0.08603  1.0000
  S   S353      1.0  0.68543  0.90493  0.07712  1.0000
  S   S354      1.0  0.74017  0.95361  0.10122  1.0000
  Fe  Fe177     1.0  0.74761  0.86579  0.06676  1.0000
  S   S355      1.0  0.70925  0.85022  0.05632  1.0000
  S   S356      1.0  0.78604  0.84633  0.06363  1.0000
  H   H1507     1.0  0.70867  0.96210  0.46936  1.0000
  Fe  Fe178     1.0  0.69583  0.86672  0.09417  1.0000
  S   S357      1.0  0.66966  0.84942  0.12497  1.0000
  S   S358      1.0  0.74152  0.90371  0.04760  1.0000
  S   S359      1.0  0.73489  0.87934  0.10591  1.0000
  H   H1508     1.0  0.71750  0.93177  0.50325  1.0000
  C   C1254     1.0  0.64197  0.92695  0.46455  1.0000
  S   S360      1.0  0.55212  0.87230  0.37907  1.0000
  C   C1255     1.0  0.69826  0.98249  0.24555  1.0000
  H   H1509     1.0  0.67669  0.96765  0.45860  1.0000
  C   C1256     1.0  0.54349  0.79782  0.27398  1.0000
  C   C1257     1.0  0.78278  0.78735  0.10345  1.0000
  C   C1258     1.0  0.00695  0.99180  0.33619  1.0000
  H   H1510     1.0  0.73687  0.95306  0.26312  1.0000
  C   C1259     1.0  0.65907  0.81751  0.12662  1.0000
  Fe  Fe179     1.0  0.68034  0.85237  0.51650  1.0000
  H   H1511     1.0  0.94279  0.86003  0.40450  1.0000
  C   C1260     1.0  0.79453  0.01593  0.25685  1.0000
  H   H1512     1.0  0.58393  0.81904  0.14199  1.0000
  S   S361      1.0  0.01267  0.88637  0.39198  1.0000
  C   C1261     1.0  0.72696  0.96224  0.21295  1.0000
  C   C1262     1.0  0.69289  0.00074  0.15864  1.0000
  C   C1263     1.0  0.71796  0.00767  0.15222  1.0000
  C   C1264     1.0  0.73216  0.99318  0.13435  1.0000
  C   C1265     1.0  0.72142  0.97170  0.12286  1.0000
  C   C1266     1.0  0.69623  0.96500  0.12900  1.0000
  C   C1267     1.0  0.68203  0.97949  0.14688  1.0000
  H   H1513     1.0  0.69256  0.91496  0.52009  1.0000
  H   H1514     1.0  0.75167  0.99839  0.12967  1.0000
  H   H1515     1.0  0.68782  0.94848  0.12022  1.0000
  H   H1516     1.0  0.66262  0.97406  0.15179  1.0000
  C   C1268     1.0  0.94948  0.91709  0.33995  1.0000
  C   C1269     1.0  0.94777  0.91992  0.36681  1.0000
  C   C1270     1.0  0.96728  0.91048  0.38262  1.0000
  C   C1271     1.0  0.98865  0.89828  0.37166  1.0000
  C   C1272     1.0  0.99026  0.89535  0.34485  1.0000
  C   C1273     1.0  0.97076  0.90477  0.32906  1.0000
  H   H1517     1.0  0.93144  0.92932  0.37539  1.0000
  H   H1518     1.0  0.96587  0.91259  0.40339  1.0000
  H   H1519     1.0  0.00627  0.88543  0.33625  1.0000
  H   H1520     1.0  0.97213  0.90238  0.30831  1.0000
  C   C1274     1.0  0.79158  0.82141  0.04176  1.0000
  C   C1275     1.0  0.59799  0.83911  0.10814  1.0000
  C   C1276     1.0  0.87526  0.84378  0.38392  1.0000
  C   C1277     1.0  0.60362  0.82707  0.43382  1.0000
  C   C1278     1.0  0.61091  0.85127  0.42509  1.0000
  C   C1279     1.0  0.59516  0.86489  0.40798  1.0000
  C   C1280     1.0  0.57186  0.85462  0.40002  1.0000
  C   C1281     1.0  0.56452  0.83064  0.40923  1.0000
  C   C1282     1.0  0.58046  0.81681  0.42577  1.0000
  H   H1521     1.0  0.62889  0.85923  0.43106  1.0000
  H   H1522     1.0  0.60104  0.88340  0.40087  1.0000
  H   H1523     1.0  0.54662  0.82259  0.40361  1.0000
  H   H1524     1.0  0.57478  0.79809  0.43246  1.0000
  C   C1283     1.0  0.74953  0.89868  0.42691  1.0000
  C   C1284     1.0  0.75499  0.91799  0.40872  1.0000
  C   C1285     1.0  0.78038  0.92346  0.40126  1.0000
  C   C1286     1.0  0.80053  0.90973  0.41211  1.0000
  C   C1287     1.0  0.79507  0.89044  0.43033  1.0000
  C   C1288     1.0  0.76967  0.88487  0.43768  1.0000
  H   H1525     1.0  0.73951  0.92873  0.40026  1.0000
  H   H1526     1.0  0.78436  0.93834  0.38721  1.0000
  H   H1527     1.0  0.81055  0.87978  0.43886  1.0000
  H   H1528     1.0  0.76569  0.86999  0.45173  1.0000
  H   H1529     1.0  0.58834  0.89494  0.48335  1.0000
  C   C1289     1.0  0.70590  0.94820  0.20351  1.0000
  H   H1530     1.0  0.85690  0.85184  0.39153  1.0000
  H   H1531     1.0  0.99900  0.95670  0.39187  1.0000
  H   H1532     1.0  0.90265  0.86417  0.42115  1.0000
  H   H1533     1.0  0.88185  0.82898  0.39785  1.0000
  C   C1290     1.0  0.56312  0.84605  0.49746  1.0000
  N   N82       1.0  0.98554  0.81269  0.18860  1.0000
  H   H1534     1.0  0.55802  0.81226  0.27157  1.0000
  H   H1535     1.0  0.61527  0.78485  0.38725  1.0000
  H   H1536     1.0  0.95206  0.79955  0.20969  1.0000
  H   H1537     1.0  0.66230  0.97707  0.50463  1.0000
  H   H1538     1.0  0.59463  0.79358  0.30227  1.0000
  H   H1539     1.0  0.69140  0.96396  0.25347  1.0000
  H   H1540     1.0  0.77177  0.94017  0.16923  1.0000
  C   C1291     1.0  0.53711  0.85396  0.49829  1.0000
  C   C1292     1.0  0.01353  0.81346  0.19242  1.0000
  C   C1293     1.0  0.61800  0.88313  0.08234  1.0000
  H   H1541     1.0  0.74634  0.79512  0.08640  1.0000
  H   H1542     1.0  0.54433  0.79840  0.33636  1.0000
  C   C1294     1.0  0.02825  0.80491  0.30272  1.0000
  H   H1543     1.0  0.64953  0.92055  0.52989  1.0000
  H   H1544     1.0  0.57137  0.77952  0.38087  1.0000
  H   H1545     1.0  0.94904  0.97089  0.34556  1.0000
  H   H1546     1.0  0.76071  0.81188  0.52850  1.0000
  H   H1547     1.0  0.94333  0.99726  0.40013  1.0000
  C   C1295     1.0  0.68971  0.95299  0.46678  1.0000
  C   C1296     1.0  0.61573  0.82760  0.33686  1.0000
  C   C1297     1.0  0.61840  0.91463  0.46279  1.0000
  C   C1298     1.0  0.60634  0.90484  0.48489  1.0000
  C   C1299     1.0  0.97318  0.80068  0.21156  1.0000
  Fe  Fe180     1.0  0.87054  0.99648  0.36192  1.0000
  C   C1300     1.0  0.97800  0.79803  0.16548  1.0000
  H   H1548     1.0  0.53598  0.89169  0.46250  1.0000
  N   N83       1.0  0.61499  0.85986  0.06655  1.0000
  C   C1301     1.0  0.56230  0.80905  0.33970  1.0000
  C   C1302     1.0  0.60462  0.83787  0.08138  1.0000
  C   C1303     1.0  0.66340  0.80042  0.10641  1.0000
  C   C1304     1.0  0.61773  0.90737  0.50890  1.0000
  H   H1549     1.0  0.67416  0.80638  0.08943  1.0000
  H   H1550     1.0  0.65048  0.93345  0.44654  1.0000
  H   H1551     1.0  0.99865  0.00643  0.32412  1.0000
  C   C1305     1.0  0.69821  0.92330  0.50102  1.0000
  H   H1552     1.0  0.98128  0.84055  0.38754  1.0000
  C   C1306     1.0  0.53454  0.87198  0.45503  1.0000
  N   N84       1.0  0.97085  0.99663  0.36850  1.0000
  H   H1553     1.0  0.98688  0.80584  0.14743  1.0000
  C   C1307     1.0  0.02395  0.82889  0.21204  1.0000
  H   H1554     1.0  0.98963  0.79124  0.30812  1.0000
  C   C1308     1.0  0.62059  0.80033  0.37447  1.0000
  H   H1555     1.0  0.62593  0.89925  0.07067  1.0000
  H   H1556     1.0  0.83195  0.82023  0.04924  1.0000
  H   H1557     1.0  0.93159  0.99827  0.35624  1.0000
  H   H1558     1.0  0.78158  0.80362  0.11619  1.0000
  C   C1309     1.0  0.65415  0.92987  0.48879  1.0000
  C   C1310     1.0  0.63659  0.84204  0.34469  1.0000
  H   H1559     1.0  0.56480  0.82229  0.32301  1.0000
  C   C1311     1.0  0.96479  0.82958  0.35160  1.0000
  H   H1560     1.0  0.69576  0.97387  0.51168  1.0000
  C   C1312     1.0  0.89739  0.87737  0.40517  1.0000
  H   H1561     1.0  0.87911  0.88664  0.41132  1.0000
  H   H1562     1.0  0.91186  0.89279  0.40361  1.0000
  H   H1563     1.0  0.95451  0.00108  0.33042  1.0000
  C   C1313     1.0  0.94162  0.85154  0.38563  1.0000
  H   H1564     1.0  0.95456  0.83876  0.18074  1.0000
  H   H1565     1.0  0.63155  0.87987  0.09848  1.0000
  H   H1566     1.0  0.62428  0.77871  0.16720  1.0000
  N   N85       1.0  0.89482  0.86384  0.38020  1.0000
  C   C1314     1.0  0.91900  0.85222  0.37072  1.0000
  C   C1315     1.0  0.96406  0.84030  0.37610  1.0000
  H   H1567     1.0  0.87080  0.83411  0.36550  1.0000
  H   H1568     1.0  0.94357  0.82103  0.31759  1.0000
  C   C1316     1.0  0.64518  0.80939  0.14862  1.0000
  H   H1569     1.0  0.68459  0.98945  0.23070  1.0000
  H   H1570     1.0  0.60575  0.81165  0.04882  1.0000
  H   H1571     1.0  0.80384  0.00778  0.24000  1.0000
  C   C1317     1.0  0.94289  0.82951  0.33665  1.0000
  C   C1318     1.0  0.70885  0.93154  0.18271  1.0000
  C   C1319     1.0  0.58824  0.81791  0.12145  1.0000
  C   C1320     1.0  0.00686  0.96425  0.37398  1.0000
  C   C1321     1.0  0.92025  0.84048  0.34607  1.0000
  H   H1572     1.0  0.86757  0.89224  0.36819  1.0000
  H   H1573     1.0  0.90377  0.83981  0.33378  1.0000
  H   H1574     1.0  0.88023  0.87399  0.34230  1.0000
  C   C1322     1.0  0.88524  0.88260  0.36106  1.0000
  C   C1323     1.0  0.63525  0.78458  0.15029  1.0000
  H   H1575     1.0  0.89966  0.89756  0.35694  1.0000
  H   H1576     1.0  0.55909  0.82095  0.35708  1.0000
  H   H1577     1.0  0.68681  0.95017  0.21140  1.0000
  H   H1578     1.0  0.98556  0.84924  0.16963  1.0000
  C   C1324     1.0  0.95069  0.99159  0.34936  1.0000
  C   C1325     1.0  0.74168  0.97249  0.25593  1.0000
  C   C1326     1.0  0.99499  0.98431  0.35989  1.0000
  H   H1579     1.0  0.98246  0.82147  0.34418  1.0000
  H   H1580     1.0  0.76775  0.96861  0.20619  1.0000
  H   H1581     1.0  0.95664  0.96676  0.39364  1.0000
  C   C1327     1.0  0.75352  0.94211  0.17921  1.0000
  C   C1328     1.0  0.59151  0.79300  0.08264  1.0000
  H   H1582     1.0  0.64176  0.82249  0.16434  1.0000
  H   H1583     1.0  0.76215  0.97219  0.24988  1.0000
  C   C1329     1.0  0.75091  0.95852  0.20024  1.0000
  C   C1330     1.0  0.79830  0.00496  0.28131  1.0000
  N   N86       1.0  0.72459  0.98039  0.23464  1.0000
  C   C1331     1.0  0.76287  0.78264  0.08660  1.0000
  H   H1584     1.0  0.60865  0.89925  0.52606  1.0000
  N   N87       1.0  0.67940  0.94219  0.49145  1.0000
  H   H1585     1.0  0.95693  0.79805  0.16276  1.0000
  H   H1586     1.0  0.69248  0.92143  0.17539  1.0000
  C   C1332     1.0  0.73215  0.00610  0.22552  1.0000
  H   H1587     1.0  0.57849  0.77827  0.11944  1.0000
  H   H1588     1.0  0.72036  0.01220  0.20891  1.0000
  C   C1333     1.0  0.73254  0.92865  0.17048  1.0000
  H   H1589     1.0  0.74038  0.98577  0.27260  1.0000
  H   H1590     1.0  0.73450  0.91648  0.15373  1.0000
  H   H1591     1.0  0.75241  0.00694  0.21898  1.0000
  C   C1334     1.0  0.64155  0.81479  0.38199  1.0000
  H   H1592     1.0  0.59939  0.88971  0.09058  1.0000
  C   C1335     1.0  0.64943  0.83568  0.36726  1.0000
  H   H1593     1.0  0.53934  0.82043  0.45945  1.0000
  C   C1336     1.0  0.67745  0.96327  0.51029  1.0000
  H   H1594     1.0  0.69295  0.93792  0.45206  1.0000
  H   H1595     1.0  0.55413  0.86561  0.44980  1.0000
  H   H1596     1.0  0.60077  0.85599  0.11948  1.0000
  H   H1597     1.0  0.69717  0.99640  0.26168  1.0000
  H   H1598     1.0  0.97550  0.99070  0.40953  1.0000
  C   C1337     1.0  0.78636  0.01556  0.30304  1.0000
  C   C1338     1.0  0.59774  0.86631  0.04494  1.0000
  C   C1339     1.0  0.96132  0.98737  0.39410  1.0000
  H   H1599     1.0  0.67285  0.95639  0.53021  1.0000
  H   H1600     1.0  0.97678  0.85025  0.20338  1.0000
  N   N88       1.0  0.58449  0.79175  0.34308  1.0000
  H   H1601     1.0  0.64268  0.85839  0.33332  1.0000
  H   H1602     1.0  0.57227  0.84024  0.47955  1.0000
  H   H1603     1.0  0.60969  0.91219  0.44405  1.0000
  C   C1340     1.0  0.76652  0.79305  0.53467  1.0000
  C   C1341     1.0  0.97525  0.83886  0.18546  1.0000
  H   H1604     1.0  0.97712  0.81098  0.22978  1.0000
  S   S362      1.0  0.67472  0.01794  0.18153  1.0000
  H   H1605     1.0  0.57810  0.87061  0.05229  1.0000
  H   H1606     1.0  0.98029  0.78094  0.21437  1.0000
  H   H1607     1.0  0.65131  0.81015  0.39983  1.0000
  H   H1608     1.0  0.78886  0.00691  0.32190  1.0000
  H   H1609     1.0  0.70042  0.90728  0.48726  1.0000
  C   C1342     1.0  0.58513  0.79489  0.10878  1.0000
  C   C1343     1.0  0.60097  0.81414  0.06903  1.0000
  Fe  Fe181     1.0  0.70205  0.88957  0.04000  1.0000
  H   H1610     1.0  0.02835  0.81548  0.32057  1.0000
  H   H1611     1.0  0.01180  0.83969  0.22502  1.0000
  H   H1612     1.0  0.66539  0.84707  0.37351  1.0000
  H   H1613     1.0  0.72651  0.02398  0.16115  1.0000
  H   H1614     1.0  0.72964  0.02061  0.24095  1.0000
  H   H1615     1.0  0.02506  0.78572  0.16275  1.0000
  C   C1344     1.0  0.64121  0.91972  0.51090  1.0000
  C   C1345     1.0  0.81651  0.81203  0.03843  1.0000
  C   C1346     1.0  0.57791  0.84520  0.51975  1.0000
  H   H1616     1.0  0.59771  0.83900  0.51855  1.0000
  C   C1347     1.0  0.64052  0.85330  0.05567  1.0000
  H   H1617     1.0  0.64941  0.86971  0.04518  1.0000
  C   C1348     1.0  0.00620  0.77735  0.27258  1.0000
  H   H1618     1.0  0.63985  0.83754  0.04156  1.0000
  C   C1349     1.0  0.59053  0.77950  0.31795  1.0000
  C   C1350     1.0  0.97449  0.02454  0.37047  1.0000
  H   H1619     1.0  0.81963  0.77721  0.11616  1.0000
  H   H1620     1.0  0.98333  0.77763  0.16729  1.0000
  C   C1351     1.0  0.02774  0.77757  0.25637  1.0000
  Fe  Fe182     1.0  0.99668  0.84223  0.74061  1.0000
  S   S363      1.0  0.99701  0.80970  0.76951  1.0000
  Fe  Fe183     1.0  0.97228  0.89422  0.73150  1.0000
  S   S364      1.0  0.98508  0.89537  0.69008  1.0000
  S   S365      1.0  0.95435  0.92744  0.75263  1.0000
  Fe  Fe184     1.0  0.97362  0.85412  0.68852  1.0000
  S   S366      1.0  0.95138  0.84000  0.65403  1.0000
  S   S367      1.0  0.95724  0.85440  0.72891  1.0000
  S   S368      1.0  0.01042  0.88214  0.74682  1.0000
  S   S369      1.0  0.67050  0.87363  0.55330  1.0000
  H   H1621     1.0  0.91119  0.82150  0.70560  1.0000
  H   H1622     1.0  0.60468  0.88321  0.03376  1.0000
  Fe  Fe185     1.0  0.65492  0.99517  0.84683  1.0000
  S   S370      1.0  0.69425  0.97880  0.84160  1.0000
  S   S371      1.0  0.61860  0.97980  0.82931  1.0000
  Fe  Fe186     1.0  0.70007  0.98973  0.88319  1.0000
  S   S372      1.0  0.72289  0.96555  0.91143  1.0000
  Fe  Fe187     1.0  0.70601  0.01891  0.83191  1.0000
  H   H1623     1.0  0.97691  0.98853  0.69218  1.0000
  S   S373      1.0  0.65957  0.00288  0.88933  1.0000
  H   H1624     1.0  0.81422  0.91809  0.03470  1.0000
  Fe  Fe188     1.0  0.57156  0.83474  0.73179  1.0000
  S   S374      1.0  0.55957  0.87505  0.73913  1.0000
  H   H1625     1.0  0.79902  0.00624  0.84887  1.0000
  Fe  Fe189     1.0  0.58381  0.84549  0.67432  1.0000
  S   S375      1.0  0.57298  0.88673  0.67734  1.0000
  S   S376      1.0  0.59514  0.82504  0.63740  1.0000
  Fe  Fe190     1.0  0.59394  0.88589  0.71521  1.0000
  S   S377      1.0  0.62473  0.91346  0.72738  1.0000
  C   C1352     1.0  0.85429  0.83737  0.63352  1.0000
  S   S378      1.0  0.60745  0.84559  0.71015  1.0000
  S   S379      1.0  0.54894  0.83082  0.69561  1.0000
  H   H1626     1.0  0.68262  0.00783  0.72739  1.0000
  S   S380      1.0  0.68093  0.89375  0.00213  1.0000
  H   H1627     1.0  0.74110  0.88939  0.94885  1.0000
  H   H1628     1.0  0.80419  0.85670  0.95810  1.0000
  H   H1629     1.0  0.84095  0.78537  0.01820  1.0000
  C   C1353     1.0  0.82824  0.99275  0.79052  1.0000
  H   H1630     1.0  0.79542  0.87917  0.01873  1.0000
  C   C1354     1.0  0.70899  0.94824  0.93758  1.0000
  C   C1355     1.0  0.72259  0.94580  0.96067  1.0000
  C   C1356     1.0  0.71385  0.92978  0.98085  1.0000
  C   C1357     1.0  0.69144  0.91573  0.97802  1.0000
  C   C1358     1.0  0.67752  0.91849  0.95510  1.0000
  C   C1359     1.0  0.68614  0.93480  0.93501  1.0000
  H   H1631     1.0  0.74000  0.95649  0.96296  1.0000
  H   H1632     1.0  0.72461  0.92822  0.99846  1.0000
  H   H1633     1.0  0.66011  0.90780  0.95274  1.0000
  H   H1634     1.0  0.67552  0.93642  0.91729  1.0000
  H   H1635     1.0  0.77056  0.87994  0.93269  1.0000
  N   N89       1.0  0.01559  0.81339  0.86996  1.0000
  H   H1636     1.0  0.73488  0.78228  0.60082  1.0000
  H   H1637     1.0  0.92012  0.01325  0.74209  1.0000
  C   C1360     1.0  0.79231  0.94081  0.97751  1.0000
  C   C1361     1.0  0.62052  0.95985  0.80203  1.0000
  C   C1362     1.0  0.59795  0.95147  0.79052  1.0000
  C   C1363     1.0  0.59893  0.93655  0.76804  1.0000
  C   C1364     1.0  0.62252  0.93014  0.75682  1.0000
  C   C1365     1.0  0.64506  0.93809  0.76864  1.0000
  C   C1366     1.0  0.64408  0.95274  0.79124  1.0000
  H   H1638     1.0  0.57963  0.95682  0.79883  1.0000
  H   H1639     1.0  0.58144  0.93061  0.75899  1.0000
  H   H1640     1.0  0.66338  0.93304  0.76015  1.0000
  H   H1641     1.0  0.66157  0.95874  0.80014  1.0000
  C   C1367     1.0  0.64804  0.86078  0.57565  1.0000
  C   C1368     1.0  0.64197  0.87423  0.59829  1.0000
  C   C1369     1.0  0.62522  0.86382  0.61710  1.0000
  C   C1370     1.0  0.61470  0.83971  0.61350  1.0000
  C   C1371     1.0  0.62041  0.82650  0.59062  1.0000
  C   C1372     1.0  0.63682  0.83709  0.57166  1.0000
  H   H1642     1.0  0.65050  0.89262  0.60150  1.0000
  H   H1643     1.0  0.62091  0.87416  0.63465  1.0000
  H   H1644     1.0  0.61220  0.80791  0.58767  1.0000
  C   C1373     1.0  0.00272  0.00186  0.72244  1.0000
  N   N90       1.0  0.85421  0.80932  0.63728  1.0000
  C   C1374     1.0  0.93913  0.95169  0.73489  1.0000
  C   C1375     1.0  0.93078  0.94779  0.70967  1.0000
  C   C1376     1.0  0.91775  0.96730  0.69649  1.0000
  C   C1377     1.0  0.91339  0.99090  0.70828  1.0000
  C   C1378     1.0  0.92254  0.99498  0.73316  1.0000
  C   C1379     1.0  0.93509  0.97536  0.74653  1.0000
  H   H1645     1.0  0.93385  0.92957  0.70052  1.0000
  H   H1646     1.0  0.91089  0.96405  0.67716  1.0000
  C   C1380     1.0  0.56727  0.85199  0.54357  1.0000
  H   H1647     1.0  0.94181  0.97860  0.76591  1.0000
  C   C1381     1.0  0.94592  0.80724  0.64864  1.0000
  C   C1382     1.0  0.01360  0.96871  0.75324  1.0000
  H   H1648     1.0  0.71609  0.80278  0.54736  1.0000
  C   C1383     1.0  0.66129  0.81494  0.65309  1.0000
  H   H1649     1.0  0.92698  0.81447  0.61272  1.0000
  C   C1384     1.0  0.68779  0.82393  0.61535  1.0000
  Fe  Fe191     1.0  0.53959  0.87209  0.70092  1.0000
  H   H1650     1.0  0.81234  0.95795  0.00892  1.0000
  H   H1651     1.0  0.01396  0.79446  0.91979  1.0000
  C   C1385     1.0  0.78414  0.79008  0.55472  1.0000
  H   H1652     1.0  0.79178  0.80668  0.56405  1.0000
  N   N91       1.0  0.61397  0.86302  0.80786  1.0000
  C   C1386     1.0  0.61403  0.83760  0.82052  1.0000
  C   C1387     1.0  0.58690  0.87112  0.80523  1.0000
  C   C1388     1.0  0.62491  0.86060  0.78134  1.0000
  C   C1389     1.0  0.62951  0.88078  0.82318  1.0000
  C   C1390     1.0  0.65609  0.87638  0.82623  1.0000
  C   C1391     1.0  0.61889  0.90223  0.83610  1.0000
  C   C1392     1.0  0.67109  0.89251  0.84108  1.0000
  C   C1393     1.0  0.63403  0.91801  0.85119  1.0000
  C   C1394     1.0  0.66006  0.91327  0.85356  1.0000
  H   H1653     1.0  0.60648  0.83869  0.84072  1.0000
  H   H1654     1.0  0.60195  0.82382  0.80995  1.0000
  H   H1655     1.0  0.63348  0.82915  0.82121  1.0000
  H   H1656     1.0  0.57686  0.87201  0.82431  1.0000
  H   H1657     1.0  0.57587  0.85747  0.79337  1.0000
  H   H1658     1.0  0.58548  0.88998  0.79538  1.0000
  H   H1659     1.0  0.64411  0.85164  0.78100  1.0000
  H   H1660     1.0  0.61277  0.84855  0.76890  1.0000
  H   H1661     1.0  0.62662  0.87951  0.77173  1.0000
  H   H1662     1.0  0.66546  0.86037  0.81717  1.0000
  H   H1663     1.0  0.59902  0.90752  0.83469  1.0000
  C   C1395     1.0  0.67248  0.78114  0.62349  1.0000
  H   H1664     1.0  0.62559  0.93438  0.86075  1.0000
  H   H1665     1.0  0.67169  0.92584  0.86503  1.0000
  C   C1396     1.0  0.86196  0.96912  0.76869  1.0000
  H   H1666     1.0  0.64414  0.00968  0.78620  1.0000
  H   H1667     1.0  0.79127  0.95837  0.96638  1.0000
  S   S381      1.0  0.89620  0.01470  0.69161  1.0000
  H   H1668     1.0  0.66244  0.78596  0.56396  1.0000
  H   H1669     1.0  0.97944  0.83332  0.86901  1.0000
  N   N92       1.0  0.64770  0.02070  0.74592  1.0000
  C   C1397     1.0  0.87335  0.00709  0.79108  1.0000
  C   C1398     1.0  0.95376  0.78841  0.66612  1.0000
  C   C1399     1.0  0.89932  0.80846  0.69498  1.0000
  H   H1670     1.0  0.84199  0.84333  0.61714  1.0000
  H   H1671     1.0  0.81455  0.80844  0.62632  1.0000
  N   N93       1.0  0.01749  0.97805  0.72632  1.0000
  C   C1400     1.0  0.93234  0.80006  0.62666  1.0000
  N   N94       1.0  0.69860  0.78906  0.58293  1.0000
  H   H1672     1.0  0.87760  0.99621  0.80906  1.0000
  H   H1673     1.0  0.87388  0.84448  0.62880  1.0000
  H   H1674     1.0  0.81994  0.80839  0.66076  1.0000
  H   H1675     1.0  0.99022  0.78994  0.84785  1.0000
  C   C1401     1.0  0.77173  0.81092  0.02759  1.0000
  S   S382      1.0  0.72620  0.02573  0.79329  1.0000
  H   H1676     1.0  0.84885  0.95957  0.75518  1.0000
  H   H1677     1.0  0.64095  0.82679  0.55412  1.0000
  H   H1678     1.0  0.79699  0.84642  0.99051  1.0000
  H   H1679     1.0  0.58593  0.01279  0.79259  1.0000
  N   N95       1.0  0.76908  0.87197  0.97371  1.0000
  C   C1402     1.0  0.74909  0.86422  0.99277  1.0000
  C   C1403     1.0  0.75655  0.87471  0.94823  1.0000
  C   C1404     1.0  0.78154  0.89556  0.98253  1.0000
  C   C1405     1.0  0.98276  0.00415  0.70416  1.0000
  C   C1406     1.0  0.78117  0.91868  0.96804  1.0000
  H   H1680     1.0  0.83526  0.00177  0.73888  1.0000
  C   C1407     1.0  0.78832  0.85126  0.97158  1.0000
  H   H1681     1.0  0.69138  0.88897  0.84296  1.0000
  C   C1408     1.0  0.86356  0.79782  0.61281  1.0000
  H   H1682     1.0  0.88320  0.80422  0.60795  1.0000
  C   C1409     1.0  0.54178  0.85959  0.54517  1.0000
  H   H1683     1.0  0.67166  0.99711  0.77016  1.0000
  H   H1684     1.0  0.74731  0.85669  0.94225  1.0000
  H   H1685     1.0  0.64404  0.98094  0.73663  1.0000
  C   C1410     1.0  0.55009  0.78672  0.77430  1.0000
  H   H1686     1.0  0.98977  0.95150  0.71199  1.0000
  H   H1687     1.0  0.88634  0.83751  0.67008  1.0000
  C   C1411     1.0  0.78340  0.97898  0.79212  1.0000
  H   H1688     1.0  0.02245  0.02324  0.75214  1.0000
  H   H1689     1.0  0.77980  0.83327  0.96450  1.0000
  H   H1690     1.0  0.77191  0.92042  0.94957  1.0000
  C   C1412     1.0  0.89977  0.78264  0.70111  1.0000
  C   C1413     1.0  0.80145  0.99881  0.82947  1.0000
  H   H1691     1.0  0.73919  0.84652  0.98693  1.0000
  H   H1692     1.0  0.75698  0.86054  0.01225  1.0000
  H   H1693     1.0  0.02162  0.93964  0.71202  1.0000
  H   H1694     1.0  0.72484  0.82005  0.57530  1.0000
  C   C1414     1.0  0.80675  0.98138  0.77884  1.0000
  H   H1695     1.0  0.76697  0.97103  0.78260  1.0000
  C   C1415     1.0  0.84926  0.01020  0.75222  1.0000
  H   H1696     1.0  0.86740  0.01219  0.74089  1.0000
  S   S383      1.0  0.01236  0.83975  0.69989  1.0000
  C   C1416     1.0  0.77686  0.79113  0.01018  1.0000
  C   C1417     1.0  0.82163  0.79221  0.02105  1.0000
  H   H1697     1.0  0.53351  0.86456  0.56385  1.0000
  C   C1418     1.0  0.00504  0.78827  0.86303  1.0000
  H   H1698     1.0  0.76247  0.98630  0.82742  1.0000
  C   C1419     1.0  0.02294  0.82687  0.84560  1.0000
  C   C1420     1.0  0.63232  0.99862  0.73772  1.0000
  H   H1699     1.0  0.73431  0.87933  0.99494  1.0000
  H   H1700     1.0  0.02305  0.94993  0.75647  1.0000
  H   H1701     1.0  0.96441  0.79366  0.68302  1.0000
  C   C1421     1.0  0.70868  0.80996  0.56621  1.0000
  C   C1422     1.0  0.65991  0.78954  0.64592  1.0000
  C   C1423     1.0  0.80417  0.94063  0.00145  1.0000
  C   C1424     1.0  0.80526  0.91821  0.01591  1.0000
  H   H1702     1.0  0.67609  0.85185  0.64350  1.0000
  C   C1425     1.0  0.66923  0.02436  0.72726  1.0000
  C   C1426     1.0  0.82481  0.00162  0.81628  1.0000
  H   H1703     1.0  0.86404  0.95663  0.78603  1.0000
  H   H1704     1.0  0.83963  0.01137  0.82653  1.0000
  N   N96       1.0  0.85282  0.99484  0.77607  1.0000
  C   C1427     1.0  0.88488  0.81743  0.67424  1.0000
  H   H1705     1.0  0.99289  0.96614  0.75775  1.0000
  H   H1706     1.0  0.01293  0.96250  0.68804  1.0000
  C   C1428     1.0  0.79430  0.89596  0.00658  1.0000
  H   H1707     1.0  0.61629  0.99482  0.75163  1.0000
  H   H1708     1.0  0.98590  0.81862  0.89923  1.0000
  C   C1429     1.0  0.78081  0.98755  0.81743  1.0000
  Fe  Fe192     1.0  0.02252  0.88108  0.70508  1.0000
  H   H1709     1.0  0.65079  0.82156  0.66998  1.0000
  H   H1710     1.0  0.88087  0.96985  0.75855  1.0000
  C   C1430     1.0  0.67551  0.83199  0.63806  1.0000
  C   C1431     1.0  0.87015  0.80058  0.65910  1.0000
  S   S384      1.0  0.57561  0.80691  0.76518  1.0000
  C   C1432     1.0  0.80176  0.78156  0.00709  1.0000
  H   H1711     1.0  0.84702  0.84731  0.65109  1.0000
  H   H1712     1.0  0.80774  0.97460  0.75919  1.0000
  C   C1433     1.0  0.82734  0.80134  0.64184  1.0000
  H   H1713     1.0  0.69771  0.83842  0.60426  1.0000
  H   H1714     1.0  0.85129  0.80310  0.59619  1.0000
  H   H1715     1.0  0.76144  0.78289  0.99938  1.0000
  C   C1434     1.0  0.02604  0.79877  0.78211  1.0000
  C   C1435     1.0  0.65905  0.01419  0.77130  1.0000
  C   C1436     1.0  0.01004  0.95718  0.70875  1.0000
  H   H1716     1.0  0.00634  0.82999  0.83265  1.0000
  H   H1717     1.0  0.57872  0.85112  0.56090  1.0000
  H   H1718     1.0  0.89156  0.00827  0.77979  1.0000
  H   H1719     1.0  0.00288  0.84698  0.88987  1.0000
  H   H1720     1.0  0.69346  0.82404  0.56164  1.0000
  C   C1437     1.0  0.99514  0.82871  0.88262  1.0000
  H   H1721     1.0  0.75239  0.81769  0.03039  1.0000
  C   C1438     1.0  0.00784  0.02364  0.73760  1.0000
  H   H1722     1.0  0.59622  0.85061  0.03081  1.0000
  C   C1439     1.0  0.68624  0.79823  0.60710  1.0000
  H   H1723     1.0  0.02139  0.98191  0.76778  1.0000
  H   H1724     1.0  0.62395  0.00140  0.71828  1.0000
  H   H1725     1.0  0.82522  0.78029  0.64178  1.0000
  H   H1726     1.0  0.66277  0.02651  0.70701  1.0000
  C   C1440     1.0  0.96900  0.02686  0.70133  1.0000
  H   H1727     1.0  0.99613  0.77843  0.87997  1.0000
  H   H1728     1.0  0.86814  0.02703  0.79625  1.0000
