data_image0
_chemical_formula_structural       FeSHFeS2FeHFeS3HSFeSCSFeS3CSHCSFeH2C6H4C6H2CSCH3C2HCNC6H9CH5C3HC2HC2H5NH4FeH2C2HC2HCHCHC2HC2HCHCH5SHFeHSNSCFeSFeS2H2CHCFe3SHC3H2SC3HCH2CHSCHCHCH3CHSHCHC2FeH5C2SCS2HCHFeCH5C3SFeSHFeSHFeSFeS3FeS2H2FeHFeCS3HC3H4SC2H3C7H4C2H3CHCHC2H5CFeH3FeC2HSH2SCH4NHC4H2CH3SH2CHC2HCHSNCHC2HNHCHCHCHC2HCFeHSFeS2FeSHCS2H6NHCHCH2C4HCH2NCHC2HCH2C6H4C3HC3H2C2H3NHCSHCH8CH2CH2C2H2C4HCHNHC4HCH4C2H2CHCHCH4C2HSCFeSHCH2NH3CHCHFeS2HFeSFeS2HFeSFeSFeSFeCS3H2C2H3CHCH2C2H2C2H2FeCHCSC7H6C2H2NHC4NC2FeCHC2HCH4SH2CSC2FeSHSH3NHCH5CHC3SC3HC2HCNC9H15SHCFeC3H3C3H3C2H3CH3FeS2FeSHFeSFeS3HSC2HC2HCH3C7H4C6H4SNH3CH2C4HCHFeH2CHNH2C2H8CH2CHC3HCHCNC3HC3HC2H4C2H2C3HC2H2CNCSC4HSH10CHSCSFeH2C2HCH4CFeC3HC2H2FeH2C2HCH2SC2HCHCNCHC2H2C4HCHNHCHCHCHCHSH3C6S2H4CHCNS2FeH4SHCHCH2CSH2SHFeCFeHFeSCFeSCFeS2Fe2S3C7HCH2SCSC3HC2HC9HNHC2HSNH2CH3CFeC5H3CHCSCH2CSHCH2C2H3CHFeCSCHSCH2CH2CH3C2H4CHNH2CH2CHSH3FeHCHNCH3CHC2HCHCH6FeSHNC3SCHCSHSHCHC5H3C6HCH2CH4SHCH4C3H2CHCHCH5CSCH2C3NCH3C2HNCH2CHSH4C4HCSCH5SC2H2C4HCH2C4H2SCHCH4CHNCHCH2CH2CH2C4HCH4CS2CH3CH2C2SH2FeHCHC5SHCH2SH2CHSCNHCHFeHCSCHNCHCFeSFeH6C3H3C3HCH6CSH4C2H3CH4
_chemical_formula_sum              "Fe64 S128 H576 C480 N32"
_cell_length_a       26.6748
_cell_length_b       37.4186
_cell_length_c       47.8579
_cell_angle_alpha    91.0906
_cell_angle_beta     81.5503
_cell_angle_gamma    82.9463

_space_group_name_H-M_alt    "P 1"
_space_group_IT_number       1

loop_
  _space_group_symop_operation_xyz
  'x, y, z'

loop_
  _atom_site_type_symbol
  _atom_site_label
  _atom_site_symmetry_multiplicity
  _atom_site_fract_x
  _atom_site_fract_y
  _atom_site_fract_z
  _atom_site_occupancy
  Fe  Fe1       1.0  0.30977  0.04616  0.17697  1.0000
  S   S1        1.0  0.38891  0.05586  0.15839  1.0000
  H   H1        1.0  0.18618  0.31182  0.07509  1.0000
  Fe  Fe2       1.0  0.26308  0.12142  0.16326  1.0000
  S   S2        1.0  0.33906  0.13687  0.14398  1.0000
  S   S3        1.0  0.18757  0.15738  0.16791  1.0000
  Fe  Fe3       1.0  0.35155  0.08145  0.12319  1.0000
  H   H2        1.0  0.32559  0.08655  0.28254  1.0000
  Fe  Fe4       1.0  0.36814  0.10972  0.18116  1.0000
  S   S4        1.0  0.41386  0.13591  0.21006  1.0000
  S   S5        1.0  0.27368  0.06759  0.14022  1.0000
  S   S6        1.0  0.29126  0.09842  0.20189  1.0000
  H   H3        1.0  0.15510  0.21108  0.24433  1.0000
  S   S7        1.0  0.07076  0.37886  0.20064  1.0000
  Fe  Fe5       1.0  0.11400  0.42216  0.12900  1.0000
  S   S8        1.0  0.10099  0.36438  0.13139  1.0000
  C   C1        1.0  0.08092  0.49620  0.28187  1.0000
  S   S9        1.0  0.38163  0.06330  0.07776  1.0000
  Fe  Fe6       1.0  0.14186  0.36415  0.16898  1.0000
  S   S10       1.0  0.20928  0.32280  0.17113  1.0000
  S   S11       1.0  0.16024  0.42085  0.16454  1.0000
  S   S12       1.0  0.47860  0.04281  0.31118  1.0000
  C   C2        1.0  0.18856  0.31248  0.05224  1.0000
  S   S13       1.0  0.04113  0.44325  0.15707  1.0000
  H   H4        1.0  0.16676  0.43938  0.02631  1.0000
  C   C3        1.0  0.10561  0.44919  0.06143  1.0000
  S   S14       1.0  0.14697  0.44084  0.08657  1.0000
  Fe  Fe7       1.0  0.03144  0.38508  0.16219  1.0000
  H   H5        1.0  0.35940  0.06412  0.32322  1.0000
  H   H6        1.0  0.34063  0.18156  0.03791  1.0000
  C   C4        1.0  0.19090  0.20386  0.16464  1.0000
  C   C5        1.0  0.23643  0.21626  0.15303  1.0000
  C   C6        1.0  0.24044  0.25324  0.15336  1.0000
  C   C7        1.0  0.19904  0.27801  0.16536  1.0000
  C   C8        1.0  0.15213  0.26604  0.17511  1.0000
  C   C9        1.0  0.14812  0.22888  0.17475  1.0000
  H   H7        1.0  0.26867  0.19738  0.14400  1.0000
  H   H8        1.0  0.27591  0.26276  0.14471  1.0000
  H   H9        1.0  0.11986  0.28513  0.18426  1.0000
  H   H10       1.0  0.11251  0.21944  0.18339  1.0000
  C   C10       1.0  0.42995  0.10974  0.23839  1.0000
  C   C11       1.0  0.43703  0.12691  0.26357  1.0000
  C   C12       1.0  0.45102  0.10653  0.28621  1.0000
  C   C13       1.0  0.02442  0.35962  0.07873  1.0000
  C   C14       1.0  0.17905  0.34538  0.03961  1.0000
  C   C15       1.0  0.43695  0.07208  0.23594  1.0000
  H   H11       1.0  0.43174  0.15601  0.26555  1.0000
  H   H12       1.0  0.45908  0.02264  0.25599  1.0000
  C   C16       1.0  0.20237  0.28057  0.03564  1.0000
  S   S15       1.0  0.07072  0.47985  0.22735  1.0000
  C   C17       1.0  0.36972  0.09271  0.05046  1.0000
  H   H13       1.0  0.02895  0.29757  0.04716  1.0000
  H   H14       1.0  0.37659  0.01932  0.30868  1.0000
  H   H15       1.0  0.46210  0.48780  0.09633  1.0000
  C   C18       1.0  0.14183  0.43184  0.28906  1.0000
  C   C19       1.0  0.34473  0.03786  0.32078  1.0000
  H   H16       1.0  0.10419  0.49252  0.12981  1.0000
  C   C20       1.0  0.03409  0.36194  0.02823  1.0000
  N   N1        1.0  0.34312  0.24532  0.20522  1.0000
  C   C21       1.0  0.34372  0.28378  0.19807  1.0000
  C   C22       1.0  0.37708  0.23722  0.22676  1.0000
  C   C23       1.0  0.36482  0.22333  0.17906  1.0000
  C   C24       1.0  0.29143  0.23652  0.21643  1.0000
  C   C25       1.0  0.28274  0.20016  0.22052  1.0000
  C   C26       1.0  0.20060  0.25420  0.23496  1.0000
  H   H17       1.0  0.33294  0.30211  0.21714  1.0000
  H   H18       1.0  0.38229  0.28932  0.18816  1.0000
  H   H19       1.0  0.31691  0.29171  0.18276  1.0000
  H   H20       1.0  0.41660  0.24315  0.21926  1.0000
  H   H21       1.0  0.38024  0.20823  0.23199  1.0000
  H   H22       1.0  0.33881  0.22633  0.16298  1.0000
  H   H23       1.0  0.40241  0.23083  0.16933  1.0000
  H   H24       1.0  0.37197  0.19419  0.18288  1.0000
  H   H25       1.0  0.31325  0.17821  0.21556  1.0000
  C   C27       1.0  0.25779  0.06576  0.32337  1.0000
  H   H26       1.0  0.21010  0.25618  0.04684  1.0000
  H   H27       1.0  0.33633  0.02754  0.34239  1.0000
  H   H28       1.0  0.22775  0.16328  0.23214  1.0000
  H   H29       1.0  0.22193  0.06746  0.31387  1.0000
  H   H30       1.0  0.25133  0.29181  0.22225  1.0000
  C   C28       1.0  0.05312  0.45905  0.06958  1.0000
  C   C29       1.0  0.19307  0.21820  0.23760  1.0000
  C   C30       1.0  0.09485  0.47098  0.25920  1.0000
  H   H31       1.0  0.16558  0.40693  0.29174  1.0000
  C   C31       1.0  0.12663  0.45672  0.31199  1.0000
  C   C32       1.0  0.34983  0.15284  0.03357  1.0000
  H   H32       1.0  0.02948  0.38850  0.08158  1.0000
  C   C33       1.0  0.09626  0.48894  0.30823  1.0000
  C   C34       1.0  0.45244  0.05173  0.25827  1.0000
  H   H33       1.0  0.19287  0.21001  0.01713  1.0000
  H   H34       1.0  0.34649  0.04373  0.26532  1.0000
  H   H35       1.0  0.49155  0.21342  0.32944  1.0000
  H   H36       1.0  0.43195  0.05865  0.21650  1.0000
  H   H37       1.0  0.13685  0.41927  0.24530  1.0000
  N   N2        1.0  0.29951  0.04157  0.30594  1.0000
  H   H38       1.0  0.16832  0.27511  0.23966  1.0000
  H   H39       1.0  0.45676  0.11995  0.30548  1.0000
  H   H40       1.0  0.16933  0.37011  0.05256  1.0000
  H   H41       1.0  0.28087  0.06363  0.26677  1.0000
  Fe  Fe8       1.0  0.08598  0.43580  0.19318  1.0000
  H   H42       1.0  0.00207  0.35192  0.09874  1.0000
  H   H43       1.0  0.35128  0.14064  0.07742  1.0000
  C   C35       1.0  0.23411  0.19127  0.23061  1.0000
  C   C36       1.0  0.45942  0.06890  0.28346  1.0000
  H   H44       1.0  0.38691  0.05028  0.01807  1.0000
  C   C37       1.0  0.12567  0.43882  0.26275  1.0000
  C   C38       1.0  0.31352  0.05956  0.27896  1.0000
  H   H45       1.0  0.26801  0.09356  0.32556  1.0000
  C   C39       1.0  0.00903  0.40900  0.29072  1.0000
  H   H46       1.0  0.06287  0.34358  0.07670  1.0000
  C   C40       1.0  0.12610  0.44676  0.03267  1.0000
  H   H47       1.0  0.03666  0.41531  0.30489  1.0000
  C   C41       1.0  0.35589  0.12971  0.05598  1.0000
  C   C42       1.0  0.02144  0.46714  0.04894  1.0000
  H   H48       1.0  0.36229  0.25311  0.24679  1.0000
  C   C43       1.0  0.24896  0.26342  0.22465  1.0000
  C   C44       1.0  0.04204  0.46470  0.02015  1.0000
  H   H49       1.0  0.03705  0.46126  0.09174  1.0000
  C   C45       1.0  0.37589  0.07883  0.02251  1.0000
  H   H50       1.0  0.48971  0.48910  0.06031  1.0000
  C   C46       1.0  0.28325  0.00557  0.30197  1.0000
  H   H51       1.0  0.24912  0.05668  0.34536  1.0000
  H   H52       1.0  0.02643  0.41490  0.26901  1.0000
  H   H53       1.0  0.07093  0.34382  0.02564  1.0000
  H   H54       1.0  0.04416  0.38985  0.02949  1.0000
  H   H55       1.0  0.00671  0.37951  0.29112  1.0000
  S   S16       1.0  0.14517  0.44679  0.34520  1.0000
  H   H56       1.0  0.26029  0.21395  0.01607  1.0000
  Fe  Fe9       1.0  0.44807  0.08550  0.61342  1.0000
  H   H57       1.0  0.16090  0.37320  0.38224  1.0000
  S   S17       1.0  0.39156  0.11335  0.36233  1.0000
  N   N3        1.0  0.17602  0.37195  0.42546  1.0000
  S   S18       1.0  0.40024  0.10865  0.42923  1.0000
  C   C47       1.0  0.08822  0.45835  0.51201  1.0000
  Fe  Fe10      1.0  0.36351  0.07939  0.39797  1.0000
  S   S19       1.0  0.28166  0.06872  0.40497  1.0000
  Fe  Fe11      1.0  0.43665  0.13748  0.39239  1.0000
  S   S20       1.0  0.43897  0.19764  0.39852  1.0000
  S   S21       1.0  0.42698  0.03432  0.38874  1.0000
  H   H58       1.0  0.30913  0.29284  0.37302  1.0000
  H   H59       1.0  0.22670  0.40672  0.43950  1.0000
  C   C48       1.0  0.08632  0.47091  0.56237  1.0000
  H   H60       1.0  0.46466  0.26947  0.40443  1.0000
  C   C49       1.0  0.17104  0.39105  0.39887  1.0000
  Fe  Fe12      1.0  0.06527  0.47529  0.44610  1.0000
  Fe  Fe13      1.0  0.44043  0.10518  0.67616  1.0000
  Fe  Fe14      1.0  0.46639  0.06556  0.41746  1.0000
  S   S22       1.0  0.06492  0.47426  0.65162  1.0000
  H   H61       1.0  0.06746  0.47041  0.58395  1.0000
  C   C50       1.0  0.12544  0.36065  0.43611  1.0000
  C   C51       1.0  0.21140  0.02230  0.40592  1.0000
  C   C52       1.0  0.21586  0.34023  0.42186  1.0000
  H   H62       1.0  0.18790  0.38721  0.46771  1.0000
  H   H63       1.0  0.09427  0.38373  0.43776  1.0000
  S   S23       1.0  0.40278  0.08601  0.57707  1.0000
  C   C53       1.0  0.06469  0.45686  0.54010  1.0000
  C   C54       1.0  0.24773  0.33015  0.39566  1.0000
  C   C55       1.0  0.43303  0.07305  0.54255  1.0000
  H   H64       1.0  0.24458  0.34501  0.37673  1.0000
  C   C56       1.0  0.13290  0.48487  0.55668  1.0000
  H   H65       1.0  0.43548  0.14030  0.48484  1.0000
  H   H66       1.0  0.26736  0.27234  0.46053  1.0000
  C   C57       1.0  0.18836  0.39818  0.44626  1.0000
  H   H67       1.0  0.32142  0.25610  0.41436  1.0000
  S   S24       1.0  0.13582  0.49193  0.42141  1.0000
  C   C58       1.0  0.15738  0.48495  0.52865  1.0000
  H   H68       1.0  0.11583  0.33950  0.42183  1.0000
  C   C59       1.0  0.44463  0.16790  0.47962  1.0000
  H   H69       1.0  0.02951  0.44521  0.54469  1.0000
  C   C60       1.0  0.26348  0.02497  0.40427  1.0000
  H   H70       1.0  0.42476  0.18727  0.49680  1.0000
  H   H71       1.0  0.20180  0.32473  0.46582  1.0000
  H   H72       1.0  0.15314  0.47371  0.48478  1.0000
  C   C61       1.0  0.13437  0.47279  0.50632  1.0000
  H   H73       1.0  0.20654  0.40251  0.39033  1.0000
  S   S25       1.0  0.42335  0.05644  0.65282  1.0000
  H   H74       1.0  0.18414  0.04649  0.40780  1.0000
  C   C62       1.0  0.28523  0.30013  0.39317  1.0000
  H   H75       1.0  0.42731  0.17517  0.46032  1.0000
  C   C63       1.0  0.40340  0.07432  0.52067  1.0000
  C   C64       1.0  0.42595  0.06430  0.49284  1.0000
  Fe  Fe15      1.0  0.45774  0.06953  0.35458  1.0000
  H   H76       1.0  0.36274  0.08312  0.52525  1.0000
  H   H77       1.0  0.40241  0.06500  0.47633  1.0000
  H   H78       1.0  0.14021  0.41426  0.40214  1.0000
  H   H79       1.0  0.12359  0.35000  0.45770  1.0000
  H   H80       1.0  0.45677  0.15021  0.52941  1.0000
  C   C65       1.0  0.26178  0.28857  0.44243  1.0000
  C   C66       1.0  0.29224  0.27937  0.41647  1.0000
  S   S26       1.0  0.45647  0.13647  0.63684  1.0000
  C   C67       1.0  0.22422  0.31855  0.44519  1.0000
  S   S27       1.0  0.06079  0.44079  0.48426  1.0000
  S   S28       1.0  0.03595  0.45825  0.40713  1.0000
  H   H81       1.0  0.15993  0.42283  0.44892  1.0000
  C   C68       1.0  0.47839  0.05288  0.48665  1.0000
  H   H82       1.0  0.19427  0.49439  0.52412  1.0000
  Fe  Fe16      1.0  0.10165  0.48101  0.38248  1.0000
  C   C69       1.0  0.48545  0.06124  0.53648  1.0000
  H   H83       1.0  0.44987  0.01419  0.58432  1.0000
  H   H84       1.0  0.48836  0.21554  0.44963  1.0000
  H   H85       1.0  0.49644  0.22574  0.48537  1.0000
  H   H86       1.0  0.37375  0.00427  0.57353  1.0000
  H   H87       1.0  0.39466  0.01103  0.44975  1.0000
  C   C70       1.0  0.49759  0.15091  0.52628  1.0000
  C   C71       1.0  0.49763  0.21540  0.39052  1.0000
  C   C72       1.0  0.49930  0.25228  0.39576  1.0000
  S   S29       1.0  0.16127  0.50275  0.58394  1.0000
  Fe  Fe17      1.0  0.34012  0.14551  0.93565  1.0000
  S   S30       1.0  0.26178  0.13210  0.93181  1.0000
  H   H88       1.0  0.34434  0.02841  0.96963  1.0000
  Fe  Fe18      1.0  0.37917  0.12746  0.87301  1.0000
  S   S31       1.0  0.30333  0.11388  0.86466  1.0000
  H   H89       1.0  0.13060  0.34097  0.82497  1.0000
  Fe  Fe19      1.0  0.27041  0.16281  0.89206  1.0000
  S   S32       1.0  0.20203  0.19935  0.88235  1.0000
  Fe  Fe20      1.0  0.30281  0.08471  0.90491  1.0000
  S   S33       1.0  0.27724  0.02975  0.90544  1.0000
  S   S34       1.0  0.34669  0.17937  0.89715  1.0000
  S   S35       1.0  0.38083  0.09529  0.91220  1.0000
  Fe  Fe21      1.0  0.11445  0.39722  0.91565  1.0000
  S   S36       1.0  0.10861  0.45711  0.92337  1.0000
  S   S37       1.0  0.19071  0.36428  0.91595  1.0000
  H   H90       1.0  0.14551  0.24180  0.98111  1.0000
  H   H91       1.0  0.48618  0.18072  0.78416  1.0000
  Fe  Fe22      1.0  0.06288  0.46030  0.88724  1.0000
  H   H92       1.0  0.19476  0.48270  0.80156  1.0000
  Fe  Fe23      1.0  0.03522  0.45025  0.95129  1.0000
  C   C73       1.0  0.35635  0.13902  0.00563  1.0000
  S   S38       1.0  0.07450  0.40079  0.87749  1.0000
  S   S39       1.0  0.04447  0.39004  0.94618  1.0000
  S   S40       1.0  0.38689  0.13170  0.71381  1.0000
  H   H93       1.0  0.25724  0.01817  0.81597  1.0000
  C   C74       1.0  0.07378  0.45295  0.80895  1.0000
  C   C75       1.0  0.08249  0.44265  0.78007  1.0000
  C   C76       1.0  0.09311  0.46794  0.75944  1.0000
  H   H94       1.0  0.47710  0.24146  0.76656  1.0000
  H   H95       1.0  0.19414  0.21863  0.95460  1.0000
  H   H96       1.0  0.06584  0.43321  0.82457  1.0000
  H   H97       1.0  0.08188  0.41483  0.77370  1.0000
  S   S41       1.0  0.35044  0.16893  0.97793  1.0000
  C   C77       1.0  0.42668  0.11905  0.80312  1.0000
  C   C78       1.0  0.44528  0.10251  0.75283  1.0000
  H   H98       1.0  0.17931  0.26608  0.95413  1.0000
  H   H99       1.0  0.15692  0.34555  0.85696  1.0000
  H   H100      1.0  0.27954  0.06381  0.78094  1.0000
  C   C79       1.0  0.18365  0.24346  0.96857  1.0000
  C   C80       1.0  0.19893  0.24496  0.89237  1.0000
  C   C81       1.0  0.24285  0.25970  0.89692  1.0000
  C   C82       1.0  0.23978  0.29634  0.90453  1.0000
  C   C83       1.0  0.19275  0.31829  0.90783  1.0000
  C   C84       1.0  0.14859  0.30355  0.90371  1.0000
  C   C85       1.0  0.15182  0.26696  0.89570  1.0000
  H   H101      1.0  0.27935  0.24309  0.89404  1.0000
  H   H102      1.0  0.27404  0.30777  0.90754  1.0000
  H   H103      1.0  0.11210  0.32041  0.90628  1.0000
  H   H104      1.0  0.11772  0.25562  0.89221  1.0000
  C   C86       1.0  0.38286  0.14127  0.79845  1.0000
  C   C87       1.0  0.37084  0.14465  0.77095  1.0000
  H   H105      1.0  0.35887  0.15654  0.81594  1.0000
  H   H106      1.0  0.33730  0.16235  0.76738  1.0000
  H   H107      1.0  0.38548  0.02940  0.88443  1.0000
  C   C88       1.0  0.18306  0.34654  0.01029  1.0000
  H   H108      1.0  0.38006  0.04479  0.82726  1.0000
  C   C89       1.0  0.19990  0.45398  0.80485  1.0000
  H   H109      1.0  0.22491  0.28717  0.79785  1.0000
  C   C90       1.0  0.40215  0.12548  0.74805  1.0000
  C   C91       1.0  0.07673  0.48851  0.81746  1.0000
  H   H110      1.0  0.24884  0.34374  0.85642  1.0000
  H   H111      1.0  0.34426  0.07286  0.77267  1.0000
  H   H112      1.0  0.31087  0.08284  0.80742  1.0000
  H   H113      1.0  0.18810  0.46064  0.85010  1.0000
  H   H114      1.0  0.18984  0.32128  0.78033  1.0000
  C   C92       1.0  0.27209  0.25061  0.96941  1.0000
  Fe  Fe24      1.0  0.09529  0.49375  0.68993  1.0000
  H   H115      1.0  0.37407  0.09113  0.97868  1.0000
  H   H116      1.0  0.21665  0.37527  0.76721  1.0000
  H   H117      1.0  0.20831  0.43954  0.76063  1.0000
  Fe  Fe25      1.0  0.00354  0.39988  0.90887  1.0000
  C   C93       1.0  0.36720  0.00391  0.96073  1.0000
  C   C94       1.0  0.21195  0.39247  0.78601  1.0000
  H   H118      1.0  0.25867  0.30008  0.83980  1.0000
  S   S42       1.0  0.10836  0.45333  0.72359  1.0000
  H   H119      1.0  0.30286  0.25252  0.98260  1.0000
  H   H120      1.0  0.48804  0.15959  0.72211  1.0000
  S   S43       1.0  0.06940  0.50204  0.85354  1.0000
  C   C95       1.0  0.20765  0.42956  0.78183  1.0000
  H   H121      1.0  0.29319  0.03611  0.84024  1.0000
  H   H122      1.0  0.29188  0.33559  0.82388  1.0000
  H   H123      1.0  0.49978  0.49648  0.71190  1.0000
  H   H124      1.0  0.23939  0.18981  0.98866  1.0000
  N   N4        1.0  0.21242  0.33973  0.81906  1.0000
  H   H125      1.0  0.49162  0.08226  0.78388  1.0000
  C   C96       1.0  0.25480  0.32937  0.83541  1.0000
  C   C97       1.0  0.16395  0.33183  0.83575  1.0000
  C   C98       1.0  0.20886  0.37877  0.81367  1.0000
  C   C99       1.0  0.20080  0.40450  0.83663  1.0000
  H   H126      1.0  0.25820  0.32049  0.77946  1.0000
  H   H127      1.0  0.19697  0.39627  0.85831  1.0000
  C   C100      1.0  0.36864  0.10188  0.00018  1.0000
  H   H128      1.0  0.17628  0.37223  0.00041  1.0000
  H   H129      1.0  0.27056  0.27453  0.95607  1.0000
  H   H130      1.0  0.42979  0.03375  0.94656  1.0000
  S   S44       1.0  0.44456  0.11649  0.83698  1.0000
  H   H131      1.0  0.16412  0.30250  0.83949  1.0000
  H   H132      1.0  0.44660  0.19533  0.74122  1.0000
  C   C101      1.0  0.31643  0.06291  0.78933  1.0000
  H   H133      1.0  0.11042  0.45203  0.98988  1.0000
  C   C102      1.0  0.22181  0.31631  0.79292  1.0000
  C   C103      1.0  0.19617  0.44148  0.83219  1.0000
  H   H134      1.0  0.41330  0.03571  0.79244  1.0000
  C   C104      1.0  0.45771  0.09955  0.78029  1.0000
  H   H135      1.0  0.20048  0.31743  0.97081  1.0000
  S   S45       1.0  0.00201  0.47453  0.99453  1.0000
  N   N5        1.0  0.33402  0.02607  0.79773  1.0000
  C   C105      1.0  0.19683  0.31485  0.99349  1.0000
  H   H136      1.0  0.28461  0.22659  0.95478  1.0000
  C   C106      1.0  0.29632  0.01695  0.82174  1.0000
  C   C107      1.0  0.38359  0.02630  0.80830  1.0000
  H   H137      1.0  0.46932  0.08732  0.73539  1.0000
  N   N6        1.0  0.22247  0.24772  0.98726  1.0000
  H   H138      1.0  0.39873  0.02763  0.74754  1.0000
  C   C108      1.0  0.20686  0.28078  0.00562  1.0000
  H   H139      1.0  0.25972  0.01727  0.96863  1.0000
  C   C109      1.0  0.22872  0.21412  0.00317  1.0000
  H   H140      1.0  0.28160  0.01385  0.00271  1.0000
  C   C110      1.0  0.48524  0.18849  0.72855  1.0000
  H   H141      1.0  0.48609  0.20392  0.70892  1.0000
  C   C111      1.0  0.41655  0.00746  0.94742  1.0000
  C   C112      1.0  0.37548  0.00582  0.74837  1.0000
  H   H142      1.0  0.01699  0.35859  0.00861  1.0000
  C   C113      1.0  0.09430  0.45397  0.01205  1.0000
  Fe  Fe26      1.0  0.39489  0.75506  0.11334  1.0000
  H   H143      1.0  0.06515  0.60615  0.14252  1.0000
  S   S46       1.0  0.37715  0.73357  0.07196  1.0000
  Fe  Fe27      1.0  0.36773  0.76513  0.17750  1.0000
  S   S47       1.0  0.44411  0.78117  0.18277  1.0000
  S   S48       1.0  0.30455  0.76844  0.21482  1.0000
  Fe  Fe28      1.0  0.43376  0.81448  0.14530  1.0000
  S   S49       1.0  0.45840  0.86957  0.14525  1.0000
  H   H144      1.0  0.42761  0.51354  0.07215  1.0000
  C   C114      1.0  0.09541  0.58363  0.13439  1.0000
  S   S50       1.0  0.35500  0.80169  0.14166  1.0000
  S   S51       1.0  0.40033  0.71685  0.14880  1.0000
  H   H145      1.0  0.48593  0.78404  0.02067  1.0000
  H   H146      1.0  0.41920  0.56393  0.10915  1.0000
  H   H147      1.0  0.45731  0.93262  0.26262  1.0000
  H   H148      1.0  0.37946  0.90224  0.11028  1.0000
  H   H149      1.0  0.06724  0.55214  0.08336  1.0000
  H   H150      1.0  0.23780  0.91064  0.29325  1.0000
  N   N7        1.0  0.22840  0.70067  0.32975  1.0000
  H   H151      1.0  0.29377  0.96651  0.07460  1.0000
  C   C115      1.0  0.39995  0.90250  0.05087  1.0000
  H   H152      1.0  0.28752  0.91839  0.19235  1.0000
  C   C116      1.0  0.28463  0.98892  0.27486  1.0000
  H   H153      1.0  0.28413  0.63775  0.34200  1.0000
  H   H154      1.0  0.45140  0.64827  0.04192  1.0000
  C   C117      1.0  0.26840  0.95510  0.27187  1.0000
  C   C118      1.0  0.43183  0.92476  0.28047  1.0000
  C   C119      1.0  0.33925  0.95856  0.18803  1.0000
  C   C120      1.0  0.36170  0.75163  0.01869  1.0000
  H   H155      1.0  0.20343  0.75528  0.31915  1.0000
  C   C121      1.0  0.38995  0.96479  0.18060  1.0000
  H   H156      1.0  0.42890  0.86354  0.01668  1.0000
  H   H157      1.0  0.33202  0.00269  0.07475  1.0000
  N   N8        1.0  0.07688  0.54825  0.13975  1.0000
  C   C122      1.0  0.24958  0.95202  0.32253  1.0000
  H   H158      1.0  0.32324  0.95583  0.01642  1.0000
  C   C123      1.0  0.40137  0.96940  0.10437  1.0000
  C   C124      1.0  0.26575  0.98584  0.32571  1.0000
  H   H159      1.0  0.27574  0.71828  0.29334  1.0000
  C   C125      1.0  0.39304  0.93930  0.06034  1.0000
  H   H160      1.0  0.47671  0.57914  0.11860  1.0000
  H   H161      1.0  0.44633  0.96997  0.30537  1.0000
  C   C126      1.0  0.32276  0.77052  0.24858  1.0000
  C   C127      1.0  0.28783  0.78726  0.27120  1.0000
  C   C128      1.0  0.30143  0.78915  0.29840  1.0000
  C   C129      1.0  0.34949  0.77333  0.30329  1.0000
  C   C130      1.0  0.38416  0.75623  0.28071  1.0000
  C   C131      1.0  0.37111  0.75522  0.25334  1.0000
  H   H162      1.0  0.25041  0.79922  0.26754  1.0000
  H   H163      1.0  0.27472  0.80288  0.31547  1.0000
  H   H164      1.0  0.42145  0.74398  0.28434  1.0000
  H   H165      1.0  0.39804  0.74193  0.23604  1.0000
  C   C132      1.0  0.36184  0.76456  0.04633  1.0000
  C   C133      1.0  0.42554  0.94679  0.30501  1.0000
  C   C134      1.0  0.32662  0.92346  0.18614  1.0000
  H   H166      1.0  0.35519  0.86217  0.30604  1.0000
  C   C135      1.0  0.45973  0.55539  0.11157  1.0000
  C   C136      1.0  0.35028  0.80158  0.05282  1.0000
  C   C137      1.0  0.34740  0.92264  0.10635  1.0000
  H   H167      1.0  0.10478  0.54442  0.18007  1.0000
  H   H168      1.0  0.34961  0.81167  0.07421  1.0000
  C   C138      1.0  0.36383  0.89533  0.17431  1.0000
  C   C139      1.0  0.41343  0.90248  0.16426  1.0000
  H   H169      1.0  0.36926  0.84469  0.22680  1.0000
  H   H170      1.0  0.35346  0.86859  0.17185  1.0000
  H   H171      1.0  0.46564  0.94229  0.16136  1.0000
  N   N9        1.0  0.36622  0.95194  0.08878  1.0000
  H   H172      1.0  0.38692  0.88142  0.06412  1.0000
  C   C140      1.0  0.44555  0.88149  0.22939  1.0000
  S   S52       1.0  0.47266  0.77152  0.11358  1.0000
  H   H173      1.0  0.32751  0.85379  0.03682  1.0000
  C   C141      1.0  0.11750  0.51936  0.12719  1.0000
  H   H174      1.0  0.08484  0.50848  0.32552  1.0000
  H   H175      1.0  0.44646  0.81325  0.24368  1.0000
  H   H176      1.0  0.10698  0.58752  0.11148  1.0000
  H   H177      1.0  0.16419  0.72289  0.31005  1.0000
  H   H178      1.0  0.29751  0.00161  0.25552  1.0000
  H   H179      1.0  0.43518  0.95002  0.10741  1.0000
  H   H180      1.0  0.05739  0.52123  0.27920  1.0000
  H   H181      1.0  0.29617  0.67402  0.30338  1.0000
  C   C142      1.0  0.03191  0.54949  0.09698  1.0000
  H   H182      1.0  0.44739  0.61120  0.08272  1.0000
  H   H183      1.0  0.44932  0.86261  0.21064  1.0000
  C   C143      1.0  0.41311  0.96422  0.04104  1.0000
  H   H184      1.0  0.41587  0.99279  0.09341  1.0000
  H   H185      1.0  0.42780  0.90807  0.22316  1.0000
  C   C144      1.0  0.33808  0.82537  0.03166  1.0000
  C   C145      1.0  0.44108  0.83343  0.26165  1.0000
  H   H186      1.0  0.24058  0.68213  0.28614  1.0000
  H   H187      1.0  0.48526  0.88389  0.23304  1.0000
  C   C146      1.0  0.42463  0.89169  0.02363  1.0000
  C   C147      1.0  0.25085  0.93669  0.29564  1.0000
  C   C148      1.0  0.46796  0.59883  0.06310  1.0000
  C   C149      1.0  0.18745  0.73025  0.32626  1.0000
  H   H188      1.0  0.15265  0.51877  0.13725  1.0000
  C   C150      1.0  0.20888  0.66699  0.33966  1.0000
  H   H189      1.0  0.12668  0.68454  0.34121  1.0000
  N   N10       1.0  0.41440  0.86843  0.25455  1.0000
  H   H190      1.0  0.46590  0.59780  0.18034  1.0000
  C   C151      1.0  0.36447  0.86249  0.24623  1.0000
  C   C152      1.0  0.40649  0.89351  0.27961  1.0000
  C   C153      1.0  0.37455  0.88600  0.30474  1.0000
  C   C154      1.0  0.36789  0.90856  0.32899  1.0000
  H   H191      1.0  0.23561  0.93775  0.34106  1.0000
  C   C155      1.0  0.47000  0.62064  0.03963  1.0000
  H   H192      1.0  0.31948  0.90880  0.09642  1.0000
  H   H193      1.0  0.04054  0.56572  0.18203  1.0000
  H   H194      1.0  0.05568  0.51747  0.17632  1.0000
  H   H195      1.0  0.34238  0.88845  0.24183  1.0000
  C   C156      1.0  0.26161  0.69338  0.30202  1.0000
  C   C157      1.0  0.49184  0.56249  0.06084  1.0000
  H   H196      1.0  0.38198  0.98016  0.12556  1.0000
  H   H197      1.0  0.34046  0.84901  0.26267  1.0000
  C   C158      1.0  0.46620  0.50588  0.07811  1.0000
  H   H198      1.0  0.12946  0.52200  0.10416  1.0000
  C   C159      1.0  0.39336  0.93889  0.32913  1.0000
  H   H199      1.0  0.41957  0.82151  0.28005  1.0000
  C   C160      1.0  0.42690  0.93691  0.16834  1.0000
  H   H200      1.0  0.47251  0.75080  0.04568  1.0000
  H   H201      1.0  0.26873  0.94356  0.25084  1.0000
  H   H202      1.0  0.12949  0.58654  0.14480  1.0000
  H   H203      1.0  0.40979  0.99262  0.04682  1.0000
  C   C161      1.0  0.06886  0.54390  0.17084  1.0000
  C   C162      1.0  0.03017  0.54644  0.12665  1.0000
  H   H204      1.0  0.27193  0.74030  0.34442  1.0000
  S   S53       1.0  0.29094  0.99465  0.19740  1.0000
  C   C163      1.0  0.32125  0.97855  0.08613  1.0000
  Fe  Fe29      1.0  0.47596  0.73647  0.15078  1.0000
  S   S54       1.0  0.36792  0.77488  0.33710  1.0000
  H   H205      1.0  0.46901  0.66304  0.17358  1.0000
  C   C164      1.0  0.24341  0.63671  0.34494  1.0000
  H   H206      1.0  0.47939  0.83656  0.26725  1.0000
  H   H207      1.0  0.32743  0.93326  0.12750  1.0000
  N   N11       1.0  0.48969  0.53828  0.08501  1.0000
  H   H208      1.0  0.45935  0.53662  0.12941  1.0000
  H   H209      1.0  0.40063  0.99124  0.18374  1.0000
  H   H210      1.0  0.30050  0.98886  0.10725  1.0000
  C   C165      1.0  0.15599  0.66293  0.34408  1.0000
  H   H211      1.0  0.16176  0.73768  0.34666  1.0000
  C   C166      1.0  0.43820  0.95304  0.01399  1.0000
  H   H212      1.0  0.36918  0.72299  0.01372  1.0000
  Fe  Fe30      1.0  0.27686  0.82852  0.63610  1.0000
  S   S55       1.0  0.34368  0.78603  0.62418  1.0000
  S   S56       1.0  0.23529  0.85197  0.60134  1.0000
  H   H213      1.0  0.44146  0.99251  0.53666  1.0000
  Fe  Fe31      1.0  0.38040  0.81609  0.65504  1.0000
  S   S57       1.0  0.46171  0.82841  0.64751  1.0000
  Fe  Fe32      1.0  0.30828  0.75696  0.66120  1.0000
  S   S58       1.0  0.30519  0.69679  0.65562  1.0000
  S   S59       1.0  0.31594  0.86042  0.66470  1.0000
  H   H214      1.0  0.40424  0.90205  0.65314  1.0000
  Fe  Fe33      1.0  0.23872  0.85898  0.40422  1.0000
  S   S60       1.0  0.32182  0.84078  0.40389  1.0000
  Fe  Fe34      1.0  0.20929  0.78241  0.40976  1.0000
  S   S61       1.0  0.29039  0.75835  0.41037  1.0000
  Fe  Fe35      1.0  0.29416  0.80585  0.43918  1.0000
  S   S62       1.0  0.33684  0.80065  0.47657  1.0000
  Fe  Fe36      1.0  0.30985  0.79544  0.37504  1.0000
  C   C167      1.0  0.15469  0.64767  0.67586  1.0000
  S   S63       1.0  0.21132  0.82707  0.44150  1.0000
  S   S64       1.0  0.22848  0.81649  0.37254  1.0000
  S   S65       1.0  0.05240  0.55905  0.63366  1.0000
  H   H215      1.0  0.23658  0.97023  0.46214  1.0000
  H   H216      1.0  0.21410  0.56346  0.50405  1.0000
  C   C168      1.0  0.14191  0.70593  0.41621  1.0000
  C   C169      1.0  0.20040  0.62591  0.66545  1.0000
  H   H217      1.0  0.45658  0.90360  0.46567  1.0000
  H   H218      1.0  0.26990  0.93038  0.60407  1.0000
  H   H219      1.0  0.06349  0.63984  0.41834  1.0000
  C   C170      1.0  0.37455  0.91545  0.47523  1.0000
  H   H220      1.0  0.30872  0.99770  0.46522  1.0000
  C   C171      1.0  0.19401  0.98865  0.40492  1.0000
  H   H221      1.0  0.33881  0.99502  0.40051  1.0000
  H   H222      1.0  0.13936  0.61344  0.62384  1.0000
  C   C172      1.0  0.18449  0.64900  0.42927  1.0000
  C   C173      1.0  0.18515  0.68570  0.42375  1.0000
  H   H223      1.0  0.21817  0.63348  0.43500  1.0000
  H   H224      1.0  0.21898  0.69832  0.42544  1.0000
  C   C174      1.0  0.24699  0.67839  0.66421  1.0000
  C   C175      1.0  0.24631  0.64125  0.65961  1.0000
  H   H225      1.0  0.45837  0.94581  0.52630  1.0000
  H   H226      1.0  0.07011  0.66401  0.62709  1.0000
  Fe  Fe37      1.0  0.11357  0.51163  0.62734  1.0000
  C   C176      1.0  0.39958  0.91546  0.58866  1.0000
  H   H227      1.0  0.28144  0.62423  0.65153  1.0000
  C   C177      1.0  0.29845  0.99330  0.40175  1.0000
  S   S66       1.0  0.23898  0.79808  0.67175  1.0000
  C   C178      1.0  0.22608  0.60460  0.35433  1.0000
  C   C179      1.0  0.26359  0.83863  0.56647  1.0000
  C   C180      1.0  0.23329  0.83931  0.54482  1.0000
  C   C181      1.0  0.25515  0.82795  0.51701  1.0000
  C   C182      1.0  0.30750  0.81598  0.51077  1.0000
  C   C183      1.0  0.33777  0.81582  0.53233  1.0000
  C   C184      1.0  0.31600  0.82724  0.56001  1.0000
  H   H228      1.0  0.19267  0.84810  0.54966  1.0000
  H   H229      1.0  0.23133  0.82788  0.50062  1.0000
  H   H230      1.0  0.37835  0.80680  0.52761  1.0000
  H   H231      1.0  0.34008  0.82747  0.57621  1.0000
  H   H232      1.0  0.23562  0.71794  0.37181  1.0000
  H   H233      1.0  0.29567  0.87612  0.46993  1.0000
  C   C185      1.0  0.46177  0.93787  0.65511  1.0000
  C   C186      1.0  0.44440  0.90378  0.65301  1.0000
  H   H234      1.0  0.17643  0.58389  0.57926  1.0000
  H   H235      1.0  0.10284  0.55761  0.53321  1.0000
  N   N12       1.0  0.46330  0.95808  0.56987  1.0000
  H   H236      1.0  0.12466  0.64146  0.49748  1.0000
  C   C187      1.0  0.12632  0.62344  0.60471  1.0000
  C   C188      1.0  0.09815  0.68920  0.41420  1.0000
  C   C189      1.0  0.43094  0.95846  0.45715  1.0000
  C   C190      1.0  0.36837  0.97723  0.57996  1.0000
  N   N13       1.0  0.15018  0.60002  0.52536  1.0000
  C   C191      1.0  0.16024  0.62702  0.50350  1.0000
  C   C192      1.0  0.19881  0.57594  0.52542  1.0000
  Fe  Fe38      1.0  0.00638  0.52290  0.66104  1.0000
  C   C193      1.0  0.12985  0.61811  0.55323  1.0000
  H   H237      1.0  0.20041  0.59727  0.66196  1.0000
  C   C194      1.0  0.14746  0.60661  0.57864  1.0000
  C   C195      1.0  0.08694  0.65182  0.60653  1.0000
  H   H238      1.0  0.19347  0.55296  0.53946  1.0000
  C   C196      1.0  0.47942  0.87215  0.65043  1.0000
  H   H239      1.0  0.18337  0.64728  0.51061  1.0000
  H   H240      1.0  0.18149  0.61410  0.48335  1.0000
  H   H241      1.0  0.43485  0.96218  0.65703  1.0000
  H   H242      1.0  0.22868  0.59083  0.53240  1.0000
  S   S67       1.0  0.15076  0.52616  0.66469  1.0000
  H   H243      1.0  0.07546  0.59455  0.51470  1.0000
  H   H244      1.0  0.03652  0.68491  0.58375  1.0000
  C   C197      1.0  0.38885  0.98441  0.45712  1.0000
  S   S68       1.0  0.02120  0.53045  0.44983  1.0000
  C   C198      1.0  0.47474  0.98881  0.58688  1.0000
  C   C199      1.0  0.33941  0.97625  0.46617  1.0000
  Fe  Fe39      1.0  0.09048  0.54694  0.42271  1.0000
  S   S69       1.0  0.14085  0.75215  0.40934  1.0000
  H   H245      1.0  0.30304  0.89657  0.51801  1.0000
  S   S70       1.0  0.06088  0.53707  0.38176  1.0000
  H   H246      1.0  0.37096  0.88822  0.48180  1.0000
  H   H247      1.0  0.06451  0.70479  0.40846  1.0000
  H   H248      1.0  0.30767  0.93482  0.39901  1.0000
  N   N14       1.0  0.27908  0.93170  0.48564  1.0000
  H   H249      1.0  0.19902  0.95325  0.49160  1.0000
  C   C200      1.0  0.14075  0.63222  0.42726  1.0000
  H   H250      1.0  0.23727  0.91434  0.52410  1.0000
  H   H251      1.0  0.22979  0.89379  0.47438  1.0000
  H   H252      1.0  0.27293  0.90743  0.44540  1.0000
  H   H253      1.0  0.28668  0.99153  0.58908  1.0000
  H   H254      1.0  0.49899  0.90364  0.55868  1.0000
  C   C201      1.0  0.09751  0.65242  0.41970  1.0000
  H   H255      1.0  0.28500  0.94293  0.52925  1.0000
  C   C202      1.0  0.28081  0.95918  0.40099  1.0000
  C   C203      1.0  0.30872  0.93595  0.59720  1.0000
  C   C204      1.0  0.26909  0.90095  0.46814  1.0000
  S   S71       1.0  0.14111  0.58666  0.43621  1.0000
  C   C205      1.0  0.31825  0.97019  0.58868  1.0000
  C   C206      1.0  0.22827  0.95697  0.40257  1.0000
  C   C207      1.0  0.42380  0.92398  0.46611  1.0000
  H   H256      1.0  0.07191  0.65576  0.53767  1.0000
  C   C208      1.0  0.33075  0.94136  0.47559  1.0000
  C   C209      1.0  0.41068  0.95007  0.57972  1.0000
  H   H257      1.0  0.34158  0.88226  0.60408  1.0000
  C   C210      1.0  0.34928  0.90874  0.59718  1.0000
  N   N15       1.0  0.23825  0.72270  0.57773  1.0000
  C   C211      1.0  0.21041  0.74988  0.59932  1.0000
  C   C212      1.0  0.23032  0.68620  0.58769  1.0000
  C   C213      1.0  0.29363  0.72587  0.57591  1.0000
  C   C214      1.0  0.21860  0.72822  0.55051  1.0000
  C   C215      1.0  0.16673  0.72490  0.54859  1.0000
  C   C216      1.0  0.24970  0.73669  0.52533  1.0000
  C   C217      1.0  0.14733  0.72955  0.52307  1.0000
  C   C218      1.0  0.22992  0.74123  0.49993  1.0000
  C   C219      1.0  0.17891  0.73764  0.49876  1.0000
  H   H258      1.0  0.22547  0.74721  0.61983  1.0000
  H   H259      1.0  0.21404  0.77777  0.59227  1.0000
  H   H260      1.0  0.16898  0.74741  0.60404  1.0000
  H   H261      1.0  0.18927  0.68319  0.59372  1.0000
  H   H262      1.0  0.24830  0.68006  0.60690  1.0000
  H   H263      1.0  0.24736  0.66504  0.57123  1.0000
  H   H264      1.0  0.30200  0.75341  0.57001  1.0000
  H   H265      1.0  0.30731  0.72108  0.59662  1.0000
  H   H266      1.0  0.31727  0.70575  0.56045  1.0000
  H   H267      1.0  0.14072  0.71905  0.56697  1.0000
  H   H268      1.0  0.28933  0.74057  0.52465  1.0000
  H   H269      1.0  0.10743  0.72739  0.52215  1.0000
  H   H270      1.0  0.25427  0.74823  0.48112  1.0000
  H   H271      1.0  0.16374  0.74163  0.47902  1.0000
  H   H272      1.0  0.24106  0.98529  0.49781  1.0000
  S   S72       1.0  0.20205  0.91605  0.40142  1.0000
  H   H273      1.0  0.42897  0.89309  0.58963  1.0000
  C   C220      1.0  0.23735  0.96155  0.48425  1.0000
  Fe  Fe40      1.0  0.08694  0.57183  0.67215  1.0000
  C   C221      1.0  0.27602  0.92099  0.51549  1.0000
  C   C222      1.0  0.06822  0.66347  0.58212  1.0000
  C   C223      1.0  0.08901  0.64676  0.55583  1.0000
  H   H274      1.0  0.46909  0.96514  0.44995  1.0000
  H   H275      1.0  0.15346  0.98721  0.40603  1.0000
  H   H276      1.0  0.12594  0.56300  0.49642  1.0000
  C   C224      1.0  0.46770  0.96790  0.53979  1.0000
  C   C225      1.0  0.20132  0.70007  0.67460  1.0000
  C   C226      1.0  0.11197  0.57788  0.51706  1.0000
  H   H277      1.0  0.09866  0.62809  0.35683  1.0000
  H   H278      1.0  0.46965  0.98330  0.60978  1.0000
  H   H279      1.0  0.38865  0.95609  0.34807  1.0000
  C   C227      1.0  0.17407  0.60150  0.35839  1.0000
  C   C228      1.0  0.13918  0.63048  0.35311  1.0000
  H   H280      1.0  0.16069  0.57678  0.36617  1.0000
  H   H281      1.0  0.25297  0.58202  0.35873  1.0000
  H   H282      1.0  0.29394  0.69549  0.35215  1.0000
  C   C229      1.0  0.25879  0.71402  0.35040  1.0000
  H   H283      1.0  0.20119  0.72861  0.67841  1.0000
  H   H284      1.0  0.34325  0.90220  0.34788  1.0000
  H   H285      1.0  0.26417  0.99653  0.34696  1.0000
  Fe  Fe41      1.0  0.42729  0.85302  0.88232  1.0000
  S   S73       1.0  0.34559  0.84293  0.89261  1.0000
  S   S74       1.0  0.44960  0.90310  0.86090  1.0000
  Fe  Fe42      1.0  0.46712  0.78190  0.90641  1.0000
  S   S75       1.0  0.38859  0.76598  0.91706  1.0000
  H   H286      1.0  0.49539  0.68735  0.83399  1.0000
  Fe  Fe43      1.0  0.37588  0.78738  0.87469  1.0000
  S   S76       1.0  0.34470  0.75685  0.84134  1.0000
  Fe  Fe44      1.0  0.36726  0.82315  0.93376  1.0000
  S   S77       1.0  0.32676  0.84265  0.97715  1.0000
  S   S78       1.0  0.45680  0.79825  0.86251  1.0000
  S   S79       1.0  0.44658  0.83800  0.92499  1.0000
  H   H287      1.0  0.28332  0.96550  0.78920  1.0000
  S   S80       1.0  0.26664  0.85020  0.74304  1.0000
  C   C230      1.0  0.45298  0.62542  0.84750  1.0000
  C   C231      1.0  0.38076  0.98328  0.72421  1.0000
  H   H288      1.0  0.35152  0.76518  0.97622  1.0000
  C   C232      1.0  0.32919  0.59272  0.72837  1.0000
  C   C233      1.0  0.46472  0.51557  0.71052  1.0000
  H   H289      1.0  0.47978  0.90113  0.70946  1.0000
  C   C234      1.0  0.42926  0.83350  0.77399  1.0000
  H   H290      1.0  0.45118  0.64580  0.90190  1.0000
  H   H291      1.0  0.37127  0.69885  0.87881  1.0000
  H   H292      1.0  0.46218  0.82718  0.78570  1.0000
  C   C235      1.0  0.38146  0.67084  0.86959  1.0000
  C   C236      1.0  0.32294  0.78308  0.81418  1.0000
  C   C237      1.0  0.31032  0.82048  0.81784  1.0000
  C   C238      1.0  0.29226  0.84075  0.79609  1.0000
  C   C239      1.0  0.28775  0.82391  0.77031  1.0000
  C   C240      1.0  0.30085  0.78658  0.76653  1.0000
  C   C241      1.0  0.31797  0.76621  0.78848  1.0000
  H   H293      1.0  0.31350  0.83376  0.83760  1.0000
  H   H294      1.0  0.28192  0.86958  0.79924  1.0000
  H   H295      1.0  0.29643  0.77320  0.74700  1.0000
  H   H296      1.0  0.32717  0.73729  0.78555  1.0000
  C   C242      1.0  0.44840  0.97756  0.93458  1.0000
  C   C243      1.0  0.35114  0.95517  0.72364  1.0000
  C   C244      1.0  0.41343  0.97451  0.87113  1.0000
  C   C245      1.0  0.40095  0.93950  0.86846  1.0000
  C   C246      1.0  0.34975  0.93365  0.87335  1.0000
  C   C247      1.0  0.31169  0.96181  0.88374  1.0000
  H   H297      1.0  0.29777  0.64122  0.71030  1.0000
  H   H298      1.0  0.45292  0.97942  0.86678  1.0000
  H   H299      1.0  0.33930  0.90750  0.86903  1.0000
  H   H300      1.0  0.27224  0.95682  0.88800  1.0000
  S   S81       1.0  0.03427  0.54058  0.70037  1.0000
  N   N16       1.0  0.44355  0.85348  0.74805  1.0000
  H   H301      1.0  0.10273  0.52344  0.75212  1.0000
  H   H302      1.0  0.37819  0.60545  0.85489  1.0000
  H   H303      1.0  0.45337  0.69308  0.89608  1.0000
  C   C248      1.0  0.46269  0.66556  0.88587  1.0000
  H   H304      1.0  0.08898  0.54147  0.80324  1.0000
  H   H305      1.0  0.36001  0.66944  0.85138  1.0000
  C   C249      1.0  0.43124  0.94388  0.93518  1.0000
  C   C250      1.0  0.32466  0.99611  0.88900  1.0000
  C   C251      1.0  0.46157  0.88843  0.75383  1.0000
  C   C252      1.0  0.34029  0.00080  0.77288  1.0000
  H   H306      1.0  0.35490  0.93797  0.70476  1.0000
  C   C253      1.0  0.47926  0.93548  0.78627  1.0000
  H   H307      1.0  0.49761  0.62411  0.99531  1.0000
  Fe  Fe45      1.0  0.28687  0.82475  0.69905  1.0000
  H   H308      1.0  0.26455  0.96176  0.93829  1.0000
  H   H309      1.0  0.37111  0.91304  0.94892  1.0000
  C   C254      1.0  0.39792  0.85985  0.73366  1.0000
  H   H310      1.0  0.32472  0.91562  0.99530  1.0000
  N   N17       1.0  0.46891  0.55223  0.72165  1.0000
  H   H311      1.0  0.47240  0.80270  0.72568  1.0000
  H   H312      1.0  0.38128  0.65522  0.68699  1.0000
  C   C255      1.0  0.48711  0.55365  0.82635  1.0000
  C   C256      1.0  0.38226  0.93989  0.94877  1.0000
  H   H313      1.0  0.47610  0.57742  0.76144  1.0000
  H   H314      1.0  0.40626  0.87209  0.71277  1.0000
  H   H315      1.0  0.00492  0.56552  0.78495  1.0000
  H   H316      1.0  0.43238  0.50347  0.72238  1.0000
  H   H317      1.0  0.28774  0.91850  0.95049  1.0000
  H   H318      1.0  0.45341  0.97261  0.99973  1.0000
  H   H319      1.0  0.12034  0.70178  0.68856  1.0000
  H   H320      1.0  0.36676  0.87784  0.74688  1.0000
  C   C257      1.0  0.49702  0.95551  0.76349  1.0000
  H   H321      1.0  0.41557  0.80745  0.76907  1.0000
  H   H322      1.0  0.39728  0.84906  0.78851  1.0000
  C   C258      1.0  0.33219  0.62343  0.71253  1.0000
  H   H323      1.0  0.38228  0.83433  0.72967  1.0000
  C   C259      1.0  0.15545  0.68477  0.68039  1.0000
  C   C260      1.0  0.08644  0.51395  0.79681  1.0000
  C   C261      1.0  0.35170  0.77553  0.99738  1.0000
  H   H324      1.0  0.43550  0.68787  0.82075  1.0000
  C   C262      1.0  0.31102  0.97160  0.77170  1.0000
  H   H325      1.0  0.44175  0.71749  0.84953  1.0000
  C   C263      1.0  0.31633  0.94938  0.74731  1.0000
  N   N18       1.0  0.43744  0.66213  0.86052  1.0000
  C   C264      1.0  0.45338  0.68964  0.84026  1.0000
  C   C265      1.0  0.26879  0.94603  0.95744  1.0000
  C   C266      1.0  0.42417  0.60857  0.70214  1.0000
  H   H326      1.0  0.22968  0.94244  0.96784  1.0000
  C   C267      1.0  0.37357  0.56980  0.73125  1.0000
  C   C268      1.0  0.43556  0.56403  0.83655  1.0000
  C   C269      1.0  0.49043  0.72050  0.99392  1.0000
  H   H327      1.0  0.36680  0.65289  0.88630  1.0000
  C   C270      1.0  0.41843  0.59939  0.84693  1.0000
  C   C271      1.0  0.33975  0.81246  0.00377  1.0000
  H   H328      1.0  0.26498  0.93745  0.01293  1.0000
  H   H329      1.0  0.29295  0.92760  0.74672  1.0000
  H   H330      1.0  0.40892  0.54428  0.83710  1.0000
  H   H331      1.0  0.46979  0.74399  0.98457  1.0000
  C   C272      1.0  0.48403  0.82981  0.72930  1.0000
  C   C273      1.0  0.42253  0.57699  0.71823  1.0000
  H   H332      1.0  0.22589  0.99472  0.99666  1.0000
  H   H333      1.0  0.48606  0.98061  0.92356  1.0000
  C   C274      1.0  0.37524  0.00283  0.88141  1.0000
  C   C275      1.0  0.44390  0.91684  0.00530  1.0000
  C   C276      1.0  0.26485  0.99922  0.98659  1.0000
  H   H334      1.0  0.45566  0.92085  0.92445  1.0000
  C   C277      1.0  0.47408  0.55025  0.75206  1.0000
  C   C278      1.0  0.34843  0.96986  0.96176  1.0000
  H   H335      1.0  0.44882  0.88843  0.80037  1.0000
  H   H336      1.0  0.40780  0.98787  0.70579  1.0000
  C   C279      1.0  0.09415  0.50381  0.76787  1.0000
  N   N19       1.0  0.29704  0.96480  0.97653  1.0000
  C   C280      1.0  0.37949  0.63129  0.69944  1.0000
  S   S82       1.0  0.35392  0.78166  0.69073  1.0000
  C   C281      1.0  0.49706  0.94268  0.73598  1.0000
  C   C282      1.0  0.46168  0.90247  0.78166  1.0000
  C   C283      1.0  0.30269  0.94253  0.00142  1.0000
  C   C284      1.0  0.47932  0.90979  0.73115  1.0000
  H   H337      1.0  0.44169  0.53899  0.76466  1.0000
  S   S83       1.0  0.09571  0.62993  0.68294  1.0000
  H   H338      1.0  0.45935  0.51603  0.68788  1.0000
  H   H339      1.0  0.47968  0.94520  0.80776  1.0000
  H   H340      1.0  0.46342  0.90819  0.98434  1.0000
  H   H341      1.0  0.45934  0.61642  0.69133  1.0000
  H   H342      1.0  0.29211  0.58668  0.73836  1.0000
  H   H343      1.0  0.46155  0.70717  0.00778  1.0000
  H   H344      1.0  0.49269  0.84066  0.70789  1.0000
  H   H345      1.0  0.30762  0.98967  0.82941  1.0000
  H   H346      1.0  0.39843  0.99889  0.81439  1.0000
  H   H347      1.0  0.36916  0.54631  0.74373  1.0000
  C   C285      1.0  0.49596  0.60714  0.01343  1.0000
  H   H348      1.0  0.74377  0.45089  0.04419  1.0000
  S   S84       1.0  0.71861  0.42546  0.11597  1.0000
  C   C286      1.0  0.89056  0.42790  0.04481  1.0000
  S   S85       1.0  0.63339  0.43613  0.05377  1.0000
  Fe  Fe46      1.0  0.66548  0.42556  0.15717  1.0000
  H   H349      1.0  0.91625  0.35008  0.09497  1.0000
  H   H350      1.0  0.69601  0.37903  0.28878  1.0000
  C   C287      1.0  0.67297  0.39029  0.27358  1.0000
  C   C288      1.0  0.68696  0.38028  0.24470  1.0000
  H   H351      1.0  0.72040  0.36098  0.23786  1.0000
  C   C289      1.0  0.63889  0.46578  0.02536  1.0000
  H   H352      1.0  0.90983  0.41681  0.21013  1.0000
  H   H353      1.0  0.96408  0.41229  0.02196  1.0000
  H   H354      1.0  0.56661  0.44874  0.26918  1.0000
  H   H355      1.0  0.96765  0.43392  0.24150  1.0000
  C   C290      1.0  0.56807  0.20464  0.26587  1.0000
  Fe  Fe47      1.0  0.61206  0.49978  0.14865  1.0000
  C   C291      1.0  0.91286  0.40348  0.14952  1.0000
  C   C292      1.0  0.93176  0.42887  0.13107  1.0000
  C   C293      1.0  0.84257  0.39692  0.27247  1.0000
  H   H356      1.0  0.93777  0.39456  0.33322  1.0000
  C   C294      1.0  0.58903  0.23710  0.26634  1.0000
  C   C295      1.0  0.86051  0.40666  0.15973  1.0000
  H   H357      1.0  0.86350  0.40232  0.31313  1.0000
  H   H358      1.0  0.78716  0.43833  0.16050  1.0000
  Fe  Fe48      1.0  0.65109  0.45110  0.09717  1.0000
  H   H359      1.0  0.97152  0.42556  0.12189  1.0000
  H   H360      1.0  0.88341  0.45057  0.03153  1.0000
  C   C296      1.0  0.84657  0.46162  0.13416  1.0000
  C   C297      1.0  0.82744  0.43586  0.15225  1.0000
  H   H361      1.0  0.84554  0.38676  0.17363  1.0000
  C   C298      1.0  0.62943  0.41495  0.28256  1.0000
  H   H362      1.0  0.80735  0.38647  0.28070  1.0000
  H   H363      1.0  0.60868  0.30311  0.24416  1.0000
  S   S86       1.0  0.60956  0.42775  0.31861  1.0000
  C   C299      1.0  0.94874  0.37665  0.05743  1.0000
  C   C300      1.0  0.90997  0.37079  0.07995  1.0000
  H   H364      1.0  0.59205  0.43155  0.21817  1.0000
  C   C301      1.0  0.86293  0.39264  0.08445  1.0000
  H   H365      1.0  0.82962  0.39326  0.22915  1.0000
  C   C302      1.0  0.94169  0.42348  0.32964  1.0000
  N   N20       1.0  0.95795  0.42996  0.29933  1.0000
  C   C303      1.0  0.57526  0.26228  0.28963  1.0000
  H   H366      1.0  0.57940  0.18569  0.24795  1.0000
  C   C304      1.0  0.85494  0.40076  0.24345  1.0000
  C   C305      1.0  0.58813  0.31671  0.26418  1.0000
  H   H367      1.0  0.66335  0.27220  0.30729  1.0000
  H   H368      1.0  0.97102  0.30578  0.07120  1.0000
  C   C306      1.0  0.93314  0.42360  0.25094  1.0000
  C   C307      1.0  0.76357  0.44197  0.02331  1.0000
  C   C308      1.0  0.60060  0.42992  0.26241  1.0000
  C   C309      1.0  0.99176  0.31531  0.05143  1.0000
  H   H369      1.0  0.98747  0.47809  0.31172  1.0000
  C   C310      1.0  0.96263  0.46892  0.29695  1.0000
  H   H370      1.0  0.76808  0.38596  0.03301  1.0000
  N   N21       1.0  0.59827  0.29639  0.28955  1.0000
  H   H371      1.0  0.67296  0.31312  0.28930  1.0000
  C   C311      1.0  0.90010  0.41409  0.23275  1.0000
  H   H372      1.0  0.92461  0.48549  0.30201  1.0000
  C   C312      1.0  0.65431  0.28813  0.28878  1.0000
  H   H373      1.0  0.60080  0.34392  0.26462  1.0000
  C   C313      1.0  0.53927  0.25283  0.31241  1.0000
  H   H374      1.0  0.67322  0.27234  0.26938  1.0000
  C   C314      1.0  0.93728  0.40563  0.03965  1.0000
  H   H375      1.0  0.91323  0.47634  0.10817  1.0000
  S   S87       1.0  0.95441  0.36786  0.16002  1.0000
  H   H376      1.0  0.58690  0.30764  0.33460  1.0000
  H   H377      1.0  0.96964  0.31045  0.03400  1.0000
  H   H378      1.0  0.83438  0.38813  0.10220  1.0000
  C   C315      1.0  0.87546  0.40618  0.29092  1.0000
  C   C316      1.0  0.61502  0.42035  0.23353  1.0000
  C   C317      1.0  0.85368  0.42160  0.06731  1.0000
  C   C318      1.0  0.92206  0.41973  0.28061  1.0000
  C   C319      1.0  0.89868  0.45781  0.12337  1.0000
  C   C320      1.0  0.65818  0.39547  0.22456  1.0000
  S   S88       1.0  0.67488  0.38161  0.18861  1.0000
  S   S89       1.0  0.59666  0.44443  0.13684  1.0000
  H   H379      1.0  0.61652  0.24223  0.24839  1.0000
  H   H380      1.0  0.81829  0.43968  0.07198  1.0000
  H   H381      1.0  0.59598  0.34605  0.31394  1.0000
  H   H382      1.0  0.54659  0.32064  0.26268  1.0000
  C   C321      1.0  0.57823  0.32053  0.31478  1.0000
  H   H383      1.0  0.53627  0.32842  0.31653  1.0000
  C   C322      1.0  0.53296  0.19622  0.28853  1.0000
  N   N22       1.0  0.99895  0.35391  0.05378  1.0000
  S   S90       1.0  0.67700  0.48068  0.17183  1.0000
  S   S91       1.0  0.80518  0.49753  0.12387  1.0000
  Fe  Fe49      1.0  0.72604  0.48180  0.12970  1.0000
  H   H384      1.0  0.97978  0.47557  0.27535  1.0000
  H   H385      1.0  0.98091  0.47516  0.05529  1.0000
  H   H386      1.0  0.63944  0.49677  0.27506  1.0000
  H   H387      1.0  0.52694  0.26984  0.33123  1.0000
  S   S92       1.0  0.70535  0.34969  0.34354  1.0000
  H   H388      1.0  0.90474  0.43993  0.33780  1.0000
  C   C323      1.0  0.51853  0.22028  0.31170  1.0000
  H   H389      1.0  0.51727  0.17082  0.28825  1.0000
  C   C324      1.0  0.64915  0.50115  0.02928  1.0000
  H   H390      1.0  0.96960  0.43121  0.34316  1.0000
  H   H391      1.0  0.60961  0.49366  0.23030  1.0000
  C   C325      1.0  0.77710  0.40528  0.01701  1.0000
  S   S93       1.0  0.50551  0.09579  0.38212  1.0000
  H   H392      1.0  0.84317  0.36139  0.58338  1.0000
  H   H393      1.0  0.69022  0.36399  0.46639  1.0000
  S   S94       1.0  0.53070  0.06347  0.60984  1.0000
  H   H394      1.0  0.50877  0.06026  0.55310  1.0000
  Fe  Fe50      1.0  0.53784  0.11247  0.63617  1.0000
  C   C326      1.0  0.57909  0.15849  0.49870  1.0000
  Fe  Fe51      1.0  0.63428  0.38679  0.41706  1.0000
  H   H395      1.0  0.51959  0.11549  0.45638  1.0000
  Fe  Fe52      1.0  0.64638  0.34213  0.66298  1.0000
  S   S95       1.0  0.61004  0.38724  0.63931  1.0000
  C   C327      1.0  0.65756  0.28327  0.57586  1.0000
  Fe  Fe53      1.0  0.74572  0.37668  0.66126  1.0000
  S   S96       1.0  0.71614  0.42331  0.63738  1.0000
  C   C328      1.0  0.67778  0.47868  0.48373  1.0000
  Fe  Fe54      1.0  0.68650  0.38235  0.61156  1.0000
  S   S97       1.0  0.71346  0.37519  0.56458  1.0000
  S   S98       1.0  0.72081  0.33500  0.63362  1.0000
  Fe  Fe55      1.0  0.65728  0.32133  0.37652  1.0000
  Fe  Fe56      1.0  0.73696  0.37342  0.37972  1.0000
  S   S99       1.0  0.82056  0.37647  0.38113  1.0000
  S   S100      1.0  0.69592  0.33981  0.41170  1.0000
  S   S101      1.0  0.60451  0.14396  0.62342  1.0000
  C   C329      1.0  0.59044  0.24510  0.37835  1.0000
  C   C330      1.0  0.67729  0.38314  0.53695  1.0000
  C   C331      1.0  0.62961  0.40430  0.54063  1.0000
  C   C332      1.0  0.60394  0.41122  0.51718  1.0000
  C   C333      1.0  0.62588  0.39700  0.49013  1.0000
  C   C334      1.0  0.67293  0.37528  0.48686  1.0000
  C   C335      1.0  0.69861  0.36856  0.51008  1.0000
  H   H396      1.0  0.65856  0.22105  0.48228  1.0000
  C   C336      1.0  0.63929  0.24595  0.49283  1.0000
  H   H397      1.0  0.73536  0.35200  0.50712  1.0000
  H   H398      1.0  0.94498  0.44228  0.53781  1.0000
  S   S102      1.0  0.50754  0.04072  0.45176  1.0000
  C   C337      1.0  0.52230  0.14209  0.54952  1.0000
  S   S103      1.0  0.82582  0.37502  0.67173  1.0000
  C   C338      1.0  0.92690  0.44827  0.66510  1.0000
  C   C339      1.0  0.92849  0.39184  0.58299  1.0000
  C   C340      1.0  0.85116  0.39382  0.50088  1.0000
  H   H399      1.0  0.64866  0.22767  0.53384  1.0000
  C   C341      1.0  0.92105  0.42930  0.49888  1.0000
  C   C342      1.0  0.50802  0.05107  0.50859  1.0000
  H   H400      1.0  0.60266  0.16445  0.47943  1.0000
  C   C343      1.0  0.88125  0.41041  0.54498  1.0000
  C   C344      1.0  0.60081  0.18822  0.63755  1.0000
  C   C345      1.0  0.88527  0.48174  0.39657  1.0000
  C   C346      1.0  0.64178  0.24207  0.64406  1.0000
  C   C347      1.0  0.59750  0.25820  0.66125  1.0000
  C   C348      1.0  0.85212  0.41611  0.66945  1.0000
  C   C349      1.0  0.55630  0.20468  0.65424  1.0000
  C   C350      1.0  0.60343  0.14935  0.52202  1.0000
  C   C351      1.0  0.83797  0.39032  0.59039  1.0000
  H   H401      1.0  0.56409  0.14578  0.44357  1.0000
  N   N23       1.0  0.72528  0.47523  0.46272  1.0000
  H   H402      1.0  0.53983  0.25796  0.57417  1.0000
  C   C352      1.0  0.57821  0.32192  0.57973  1.0000
  C   C353      1.0  0.54261  0.19343  0.37940  1.0000
  H   H403      1.0  0.54866  0.04230  0.50394  1.0000
  S   S104      1.0  0.64908  0.26250  0.36950  1.0000
  N   N24       1.0  0.50071  0.16913  0.47498  1.0000
  H   H404      1.0  0.92758  0.38961  0.60628  1.0000
  H   H405      1.0  0.78706  0.45104  0.36832  1.0000
  C   C354      1.0  0.64330  0.20720  0.63212  1.0000
  H   H406      1.0  0.55039  0.20842  0.45953  1.0000
  H   H407      1.0  0.59905  0.23059  0.57696  1.0000
  H   H408      1.0  0.93746  0.36409  0.57327  1.0000
  C   C355      1.0  0.57764  0.25801  0.58138  1.0000
  Fe  Fe57      1.0  0.64386  0.42308  0.66805  1.0000
  C   C356      1.0  0.89573  0.48117  0.66496  1.0000
  C   C357      1.0  0.57507  0.14111  0.54736  1.0000
  C   C358      1.0  0.59196  0.31095  0.51965  1.0000
  C   C359      1.0  0.84778  0.39293  0.53031  1.0000
  C   C360      1.0  0.59764  0.30644  0.49019  1.0000
  H   H409      1.0  0.59404  0.13349  0.56531  1.0000
  H   H410      1.0  0.65630  0.28900  0.59888  1.0000
  H   H411      1.0  0.74931  0.42068  0.47323  1.0000
  C   C361      1.0  0.52302  0.14392  0.45078  1.0000
  H   H412      1.0  0.75512  0.46210  0.51483  1.0000
  C   C362      1.0  0.58873  0.20825  0.37326  1.0000
  S   S105      1.0  0.59511  0.40798  0.46061  1.0000
  C   C363      1.0  0.62141  0.27411  0.47679  1.0000
  H   H413      1.0  0.81878  0.37815  0.54101  1.0000
  H   H414      1.0  0.67535  0.25590  0.64082  1.0000
  C   C364      1.0  0.81689  0.49302  0.51394  1.0000
  S   S106      1.0  0.67758  0.42171  0.38703  1.0000
  H   H415      1.0  0.83700  0.39071  0.61370  1.0000
  C   C365      1.0  0.84239  0.41775  0.38818  1.0000
  H   H416      1.0  0.70898  0.15921  0.67880  1.0000
  H   H417      1.0  0.90236  0.39213  0.40924  1.0000
  C   C366      1.0  0.55468  0.23956  0.66603  1.0000
  C   C367      1.0  0.88508  0.41733  0.40206  1.0000
  H   H418      1.0  0.79962  0.40286  0.58662  1.0000
  H   H419      1.0  0.77998  0.44984  0.67201  1.0000
  H   H420      1.0  0.64459  0.14807  0.52039  1.0000
  C   C368      1.0  0.74108  0.43665  0.45473  1.0000
  H   H421      1.0  0.57480  0.32363  0.60327  1.0000
  Fe  Fe58      1.0  0.50668  0.03782  0.65091  1.0000
  C   C369      1.0  0.87064  0.44715  0.58839  1.0000
  S   S107      1.0  0.59226  0.36605  0.38382  1.0000
  C   C370      1.0  0.54559  0.26709  0.38982  1.0000
  H   H422      1.0  0.54644  0.29550  0.39391  1.0000
  S   S108      1.0  0.59469  0.30061  0.67845  1.0000
  C   C371      1.0  0.81986  0.45052  0.37926  1.0000
  H   H423      1.0  0.67796  0.19444  0.61936  1.0000
  H   H424      1.0  0.89014  0.41266  0.46244  1.0000
  C   C372      1.0  0.63355  0.25007  0.52231  1.0000
  H   H425      1.0  0.68094  0.30271  0.56444  1.0000
  H   H426      1.0  0.57427  0.33704  0.52844  1.0000
  C   C373      1.0  0.90557  0.44927  0.40684  1.0000
  H   H427      1.0  0.93681  0.44865  0.41875  1.0000
  H   H428      1.0  0.56745  0.42809  0.51991  1.0000
  H   H429      1.0  0.61305  0.41587  0.56132  1.0000
  C   C374      1.0  0.60979  0.28275  0.53666  1.0000
  C   C375      1.0  0.52541  0.15934  0.50003  1.0000
  H   H430      1.0  0.71084  0.42455  0.44543  1.0000
  H   H431      1.0  0.92947  0.39055  0.66777  1.0000
  H   H432      1.0  0.62664  0.27115  0.45388  1.0000
  H   H433      1.0  0.94966  0.44327  0.48660  1.0000
  C   C376      1.0  0.90512  0.41587  0.66749  1.0000
  H   H434      1.0  0.83411  0.46177  0.58371  1.0000
  N   N25       1.0  0.60559  0.28668  0.56783  1.0000
  H   H435      1.0  0.82557  0.38002  0.49013  1.0000
  H   H436      1.0  0.96110  0.40685  0.57547  1.0000
  C   C377      1.0  0.82095  0.44907  0.66956  1.0000
  H   H437      1.0  0.67860  0.25580  0.57115  1.0000
  H   H438      1.0  0.59910  0.34466  0.57198  1.0000
  C   C378      1.0  0.91802  0.42857  0.52829  1.0000
  H   H439      1.0  0.90201  0.46313  0.58066  1.0000
  S   S109      1.0  0.52268  0.08459  0.67717  1.0000
  H   H440      1.0  0.57048  0.26171  0.60484  1.0000
  H   H441      1.0  0.52334  0.19034  0.65831  1.0000
  H   H442      1.0  0.68067  0.46024  0.50149  1.0000
  Fe  Fe59      1.0  0.64263  0.39584  0.35293  1.0000
  H   H443      1.0  0.54193  0.16511  0.37502  1.0000
  C   C379      1.0  0.84267  0.48143  0.66732  1.0000
  H   H444      1.0  0.77637  0.43282  0.43883  1.0000
  N   N26       1.0  0.87928  0.40979  0.57609  1.0000
  C   C380      1.0  0.88762  0.41202  0.48522  1.0000
  H   H445      1.0  0.86850  0.44742  0.61180  1.0000
  H   H446      1.0  0.58447  0.32854  0.47758  1.0000
  H   H447      1.0  0.50351  0.14943  0.43200  1.0000
  C   C381      1.0  0.50947  0.20628  0.46712  1.0000
  H   H448      1.0  0.96776  0.44771  0.66355  1.0000
  C   C382      1.0  0.84161  0.48242  0.38323  1.0000
  C   C383      1.0  0.71230  0.49408  0.43717  1.0000
  H   H449      1.0  0.82351  0.48575  0.53500  1.0000
  C   C384      1.0  0.77724  0.48005  0.50228  1.0000
  H   H450      1.0  0.53864  0.32643  0.57456  1.0000
  C   C385      1.0  0.76718  0.48948  0.47484  1.0000
  H   H451      1.0  0.67835  0.48461  0.42968  1.0000
  H   H452      1.0  0.62322  0.19111  0.36424  1.0000
  H   H453      1.0  0.64449  0.47138  0.47422  1.0000
  H   H454      1.0  0.74360  0.48877  0.41898  1.0000
  H   H455      1.0  0.52028  0.25207  0.67914  1.0000
  H   H456      1.0  0.50040  0.13518  0.56920  1.0000
  Fe  Fe60      1.0  0.63124  0.49942  0.84974  1.0000
  S   S110      1.0  0.93590  0.37339  0.90075  1.0000
  H   H457      1.0  0.88698  0.47873  0.95521  1.0000
  N   N27       1.0  0.52649  0.19636  0.74458  1.0000
  C   C386      1.0  0.61326  0.21157  0.72128  1.0000
  C   C387      1.0  0.60858  0.49861  0.77534  1.0000
  C   C388      1.0  0.92401  0.43643  0.74082  1.0000
  S   S111      1.0  0.58806  0.46415  0.82569  1.0000
  C   C389      1.0  0.79794  0.45610  0.97489  1.0000
  H   H458      1.0  0.77789  0.38958  0.74522  1.0000
  C   C390      1.0  0.80158  0.39354  0.99011  1.0000
  S   S112      1.0  0.68510  0.47828  0.87965  1.0000
  H   H459      1.0  0.62997  0.46755  0.95470  1.0000
  S   S113      1.0  0.60846  0.47471  0.69220  1.0000
  H   H460      1.0  0.75852  0.40093  0.79741  1.0000
  C   C391      1.0  0.59565  0.46722  0.78854  1.0000
  H   H461      1.0  0.96485  0.50278  0.76136  1.0000
  C   C392      1.0  0.63861  0.14155  0.69788  1.0000
  C   C393      1.0  0.60517  0.47115  0.72915  1.0000
  C   C394      1.0  0.59210  0.43984  0.74234  1.0000
  C   C395      1.0  0.58713  0.43797  0.77191  1.0000
  C   C396      1.0  0.94554  0.41947  0.76266  1.0000
  H   H462      1.0  0.94869  0.44450  0.72256  1.0000
  H   H463      1.0  0.58455  0.41727  0.72983  1.0000
  H   H464      1.0  0.57657  0.41373  0.78194  1.0000
  C   C397      1.0  0.85257  0.45812  0.85180  1.0000
  C   C398      1.0  0.77380  0.46716  0.00271  1.0000
  C   C399      1.0  0.93136  0.42770  0.86399  1.0000
  C   C400      1.0  0.90434  0.40289  0.87925  1.0000
  C   C401      1.0  0.85158  0.40445  0.87949  1.0000
  C   C402      1.0  0.82558  0.43224  0.86579  1.0000
  H   H465      1.0  0.83882  0.40615  0.80642  1.0000
  C   C403      1.0  0.63223  0.45380  0.99829  1.0000
  H   H466      1.0  0.83067  0.38504  0.89111  1.0000
  H   H467      1.0  0.78477  0.43376  0.86632  1.0000
  C   C404      1.0  0.67299  0.16661  0.69257  1.0000
  H   H468      1.0  0.92689  0.47487  0.83941  1.0000
  H   H469      1.0  0.60573  0.23933  0.72895  1.0000
  H   H470      1.0  0.73341  0.48054  0.93899  1.0000
  H   H471      1.0  0.82995  0.40784  0.94855  1.0000
  S   S114      1.0  0.82132  0.49423  0.83585  1.0000
  H   H472      1.0  0.78065  0.49563  0.77905  1.0000
  C   C405      1.0  0.76570  0.41897  0.74380  1.0000
  H   H473      1.0  0.68696  0.22111  0.69980  1.0000
  H   H474      1.0  0.62451  0.42642  0.99501  1.0000
  H   H475      1.0  0.98300  0.50115  0.79559  1.0000
  H   H476      1.0  0.93082  0.39579  0.80314  1.0000
  C   C406      1.0  0.61329  0.50057  0.74576  1.0000
  C   C407      1.0  0.86141  0.47634  0.93899  1.0000
  C   C408      1.0  0.52386  0.17473  0.77029  1.0000
  H   H477      1.0  0.72400  0.48578  0.76556  1.0000
  H   H478      1.0  0.72348  0.42303  0.74416  1.0000
  C   C409      1.0  0.87089  0.44292  0.74231  1.0000
  H   H479      1.0  0.55407  0.17993  0.78305  1.0000
  C   C410      1.0  0.91400  0.40881  0.78603  1.0000
  H   H480      1.0  0.76165  0.44532  0.81229  1.0000
  C   C411      1.0  0.63545  0.47701  0.97541  1.0000
  H   H481      1.0  0.64803  0.11465  0.68819  1.0000
  H   H482      1.0  0.76140  0.49504  0.00902  1.0000
  H   H483      1.0  0.78302  0.42668  0.72264  1.0000
  H   H484      1.0  0.52918  0.14534  0.76510  1.0000
  H   H485      1.0  0.85615  0.45580  0.72469  1.0000
  C   C412      1.0  0.76628  0.47891  0.76315  1.0000
  S   S115      1.0  0.98897  0.45972  0.91617  1.0000
  C   C413      1.0  0.66052  0.20142  0.70443  1.0000
  H   H486      1.0  0.81207  0.36495  0.98520  1.0000
  H   H487      1.0  0.78132  0.48764  0.74183  1.0000
  C   C414      1.0  0.90557  0.45527  0.85036  1.0000
  C   C415      1.0  0.81178  0.41845  0.96927  1.0000
  C   C416      1.0  0.86080  0.41505  0.78768  1.0000
  N   N28       1.0  0.78132  0.43997  0.76692  1.0000
  C   C417      1.0  0.83751  0.43268  0.76589  1.0000
  H   H488      1.0  0.70976  0.43713  0.79436  1.0000
  H   H489      1.0  0.97224  0.42618  0.86313  1.0000
  H   H490      1.0  0.92028  0.49189  0.79106  1.0000
  C   C418      1.0  0.57703  0.18672  0.72692  1.0000
  C   C419      1.0  0.75180  0.43034  0.79395  1.0000
  H   H491      1.0  0.87287  0.44952  0.92805  1.0000
  N   N29       1.0  0.80690  0.48180  0.95207  1.0000
  C   C420      1.0  0.59161  0.15121  0.71506  1.0000
  H   H492      1.0  0.87011  0.49628  0.92255  1.0000
  H   H493      1.0  0.56655  0.13066  0.71875  1.0000
  C   C421      1.0  0.77476  0.47544  0.93017  1.0000
  H   H494      1.0  0.54349  0.24250  0.76757  1.0000
  S   S116      1.0  0.67529  0.37845  0.69340  1.0000
  H   H495      1.0  0.78210  0.44722  0.92161  1.0000
  H   H496      1.0  0.98676  0.41465  0.76146  1.0000
  H   H497      1.0  0.78166  0.49322  0.91195  1.0000
  H   H498      1.0  0.51720  0.25282  0.73543  1.0000
  C   C422      1.0  0.51579  0.23501  0.75388  1.0000
  C   C423      1.0  0.98196  0.54220  0.14260  1.0000
  C   C424      1.0  0.58987  0.59440  0.14962  1.0000
  C   C425      1.0  0.62175  0.52549  0.27756  1.0000
  H   H499      1.0  0.54188  0.50926  0.10948  1.0000
  C   C426      1.0  0.54451  0.58233  0.16199  1.0000
  S   S117      1.0  0.54128  0.53645  0.16694  1.0000
  C   C427      1.0  0.59165  0.63134  0.14600  1.0000
  H   H500      1.0  0.62377  0.57542  0.14321  1.0000
  H   H501      1.0  0.62694  0.64078  0.13677  1.0000
  H   H502      1.0  0.56908  0.66282  0.08711  1.0000
  H   H503      1.0  0.61604  0.59013  0.20673  1.0000
  H   H504      1.0  0.57815  0.65297  0.20956  1.0000
  S   S118      1.0  0.66255  0.50766  0.10802  1.0000
  C   C428      1.0  0.51853  0.54984  0.03389  1.0000
  C   C429      1.0  0.60027  0.60198  0.22742  1.0000
  H   H505      1.0  0.61773  0.61310  0.05562  1.0000
  H   H506      1.0  0.68204  0.54897  0.21439  1.0000
  C   C430      1.0  0.54791  0.65612  0.15433  1.0000
  C   C431      1.0  0.55663  0.63560  0.27934  1.0000
  C   C432      1.0  0.57847  0.63801  0.22877  1.0000
  C   C433      1.0  0.60019  0.63701  0.04662  1.0000
  H   H507      1.0  0.53815  0.52267  0.03058  1.0000
  C   C434      1.0  0.59486  0.52279  0.23208  1.0000
  H   H508      1.0  0.53941  0.64882  0.29943  1.0000
  H   H509      1.0  0.97676  0.53892  0.16516  1.0000
  C   C435      1.0  0.67764  0.53985  0.23650  1.0000
  C   C436      1.0  0.94157  0.54482  0.10040  1.0000
  C   C437      1.0  0.55403  0.69966  0.02308  1.0000
  C   C438      1.0  0.54973  0.69580  0.05284  1.0000
  H   H510      1.0  0.57670  0.58619  0.29813  1.0000
  H   H511      1.0  0.58178  0.52493  0.28813  1.0000
  S   S119      1.0  0.55145  0.70216  0.15034  1.0000
  C   C439      1.0  0.57268  0.66494  0.06430  1.0000
  H   H512      1.0  0.56201  0.55007  0.09511  1.0000
  C   C440      1.0  0.50253  0.64397  0.16657  1.0000
  H   H513      1.0  0.90212  0.53767  0.14189  1.0000
  H   H514      1.0  0.53140  0.77048  0.04381  1.0000
  H   H515      1.0  0.65520  0.51067  0.04975  1.0000
  H   H516      1.0  0.53945  0.68267  0.25551  1.0000
  C   C441      1.0  0.55661  0.65478  0.25466  1.0000
  H   H517      1.0  0.70006  0.55611  0.24857  1.0000
  N   N30       1.0  0.62334  0.54314  0.24992  1.0000
  C   C442      1.0  0.60094  0.58153  0.25212  1.0000
  H   H518      1.0  0.56582  0.51000  0.07299  1.0000
  C   C443      1.0  0.57838  0.59948  0.27825  1.0000
  H   H519      1.0  0.55337  0.52560  0.24060  1.0000
  H   H520      1.0  0.64324  0.53903  0.29200  1.0000
  C   C444      1.0  0.93847  0.54156  0.12952  1.0000
  H   H521      1.0  0.69606  0.51132  0.23524  1.0000
  H   H522      1.0  0.59828  0.53218  0.21015  1.0000
  C   C445      1.0  0.54213  0.52651  0.09078  1.0000
  H   H523      1.0  0.52881  0.71617  0.06788  1.0000
  H   H524      1.0  0.90783  0.54352  0.09039  1.0000
  C   C446      1.0  0.98822  0.54865  0.08415  1.0000
  C   C447      1.0  0.50398  0.76043  0.03105  1.0000
  C   C448      1.0  0.60499  0.63985  0.01737  1.0000
  C   C449      1.0  0.50094  0.60710  0.17056  1.0000
  H   H525      1.0  0.99075  0.55025  0.06136  1.0000
  C   C450      1.0  0.51403  0.94013  0.65498  1.0000
  H   H526      1.0  0.70348  0.52370  0.44146  1.0000
  H   H527      1.0  0.55857  0.85067  0.64819  1.0000
  H   H528      1.0  0.58858  0.90985  0.65277  1.0000
  H   H529      1.0  0.50693  0.97378  0.53138  1.0000
  C   C451      1.0  0.54828  0.90844  0.65269  1.0000
  S   S120      1.0  0.53959  0.98104  0.65871  1.0000
  S   S121      1.0  0.91393  0.52150  0.40002  1.0000
  C   C452      1.0  0.53124  0.87484  0.65015  1.0000
  H   H530      1.0  0.54245  0.93448  0.56509  1.0000
  H   H531      1.0  0.51478  0.99458  0.58080  1.0000
  H   H532      1.0  0.82527  0.50751  0.37543  1.0000
  C   C453      1.0  0.84884  0.51457  0.49833  1.0000
  H   H533      1.0  0.50255  0.91900  0.59439  1.0000
  H   H534      1.0  0.79780  0.51866  0.43795  1.0000
  C   C454      1.0  0.84107  0.52337  0.47104  1.0000
  C   C455      1.0  0.50333  0.92735  0.57210  1.0000
  S   S122      1.0  0.92135  0.52240  0.66174  1.0000
  H   H535      1.0  0.88018  0.52406  0.50718  1.0000
  H   H536      1.0  0.86664  0.53957  0.45866  1.0000
  Fe  Fe61      1.0  0.99600  0.51456  0.40885  1.0000
  H   H537      1.0  0.66773  0.50675  0.49267  1.0000
  C   C456      1.0  0.80096  0.51111  0.45934  1.0000
  H   H538      1.0  0.81825  0.50679  0.66744  1.0000
  C   C457      1.0  0.56840  0.74776  0.99049  1.0000
  C   C458      1.0  0.59358  0.69447  0.84868  1.0000
  C   C459      1.0  0.56392  0.71396  0.89756  1.0000
  C   C460      1.0  0.64465  0.51256  0.97961  1.0000
  C   C461      1.0  0.52157  0.57877  0.82594  1.0000
  S   S123      1.0  0.71626  0.56106  0.88140  1.0000
  H   H539      1.0  0.58557  0.72948  0.97208  1.0000
  C   C462      1.0  0.61588  0.66155  0.85743  1.0000
  H   H540      1.0  0.58511  0.67627  0.92860  1.0000
  H   H541      1.0  0.75784  0.57719  0.74275  1.0000
  S   S124      1.0  0.64689  0.54357  0.95221  1.0000
  H   H542      1.0  0.59612  0.69959  0.82637  1.0000
  H   H543      1.0  0.51114  0.95821  0.71821  1.0000
  C   C463      1.0  0.61294  0.65505  0.88627  1.0000
  H   H544      1.0  0.63008  0.62962  0.89312  1.0000
  S   S125      1.0  0.64415  0.62785  0.83214  1.0000
  C   C464      1.0  0.58754  0.68146  0.90633  1.0000
  N   N31       1.0  0.93011  0.54798  0.78959  1.0000
  H   H545      1.0  0.91050  0.58444  0.82620  1.0000
  C   C465      1.0  0.79055  0.57749  0.78123  1.0000
  H   H546      1.0  0.95398  0.59967  0.77943  1.0000
  Fe  Fe62      1.0  0.65900  0.57497  0.85241  1.0000
  H   H547      1.0  0.75481  0.58856  0.79413  1.0000
  C   C466      1.0  0.56705  0.72051  0.86873  1.0000
  S   S126      1.0  0.68835  0.52773  0.82304  1.0000
  C   C467      1.0  0.52056  0.57192  0.01062  1.0000
  H   H548      1.0  0.97808  0.56492  0.75310  1.0000
  N   N32       1.0  0.52960  0.73164  0.01010  1.0000
  C   C468      1.0  0.83786  0.55673  0.73574  1.0000
  H   H549      1.0  0.56187  0.57072  0.81844  1.0000
  C   C469      1.0  0.88224  0.54916  0.74799  1.0000
  Fe  Fe63      1.0  0.65691  0.53027  0.90495  1.0000
  S   S127      1.0  0.59729  0.54827  0.87745  1.0000
  Fe  Fe64      1.0  0.73960  0.51073  0.85435  1.0000
  H   H550      1.0  0.54152  0.56161  0.99029  1.0000
  H   H551      1.0  0.54949  0.74576  0.86189  1.0000
  H   H552      1.0  0.89668  0.53895  0.83231  1.0000
  H   H553      1.0  0.61386  0.52171  0.78788  1.0000
  H   H554      1.0  0.65879  0.55189  0.01003  1.0000
  H   H555      1.0  0.53369  0.63194  0.83654  1.0000
  C   C470      1.0  0.92395  0.55551  0.82060  1.0000
  C   C471      1.0  0.88221  0.55577  0.77734  1.0000
  C   C472      1.0  0.58220  0.67060  0.00572  1.0000
  H   H556      1.0  0.62335  0.52493  0.73578  1.0000
  H   H557      1.0  0.52381  0.59028  0.71456  1.0000
  H   H558      1.0  0.58649  0.67132  0.98292  1.0000
  C   C473      1.0  0.83477  0.56993  0.79371  1.0000
  C   C474      1.0  0.79213  0.57102  0.75231  1.0000
  C   C475      1.0  0.95039  0.50936  0.78409  1.0000
  H   H559      1.0  0.59996  0.75491  0.00151  1.0000
  C   C476      1.0  0.96838  0.57045  0.77619  1.0000
  H   H560      1.0  0.96074  0.54893  0.82903  1.0000
  H   H561      1.0  0.83935  0.55181  0.71317  1.0000
  H   H562      1.0  0.55135  0.77260  0.98113  1.0000
  H   H563      1.0  0.62603  0.61794  0.00360  1.0000
  H   H564      1.0  0.83061  0.57510  0.81626  1.0000
  H   H565      1.0  0.91681  0.53831  0.73415  1.0000
  C   C477      1.0  0.65144  0.52449  0.00662  1.0000
  S   S128      1.0  0.52831  0.74505  0.92289  1.0000
  H   H566      1.0  0.80255  0.53871  0.94420  1.0000
  H   H567      1.0  0.52020  0.82612  0.73852  1.0000
  H   H568      1.0  0.55092  0.54423  0.70939  1.0000
  H   H569      1.0  0.51114  0.98088  0.76716  1.0000
  C   C478      1.0  0.79438  0.52024  0.96182  1.0000
  C   C479      1.0  0.50495  0.61400  0.83640  1.0000
  H   H570      1.0  0.50068  0.52594  0.81924  1.0000
  H   H571      1.0  0.75296  0.52713  0.97004  1.0000
  H   H572      1.0  0.50493  0.66058  0.88063  1.0000
  C   C480      1.0  0.51690  0.56347  0.70655  1.0000
  H   H573      1.0  0.81715  0.52685  0.97850  1.0000
  H   H574      1.0  0.50733  0.70157  0.97586  1.0000
  H   H575      1.0  0.50929  0.53247  0.75533  1.0000
  H   H576      1.0  0.51660  0.56414  0.68332  1.0000
