data_image0
_chemical_formula_structural       FeS2FeS2FeSFeS3FeS2FeSHFeSFeS3H13C3HCH5C6H4CH3C2H3CHCH4C4HCHCH5C3H2CHC3H2C8H2CHNCH2CHNHC3HSC4H6C3NC2H2CHCH2CHFeS2FeS2FeSFeS3FeSHFeS2FeHFeS3H2SHSH4C2FeCHC3H2CHNHC3HC6H4SC3HC2H2C3H2CHC2HCHC3HSC2HC2HCH2CHSH7C3H2C2HCHC2H2CHC2HNCH2C2HCH2CH4NH5CH5CHCH3C5NHCH6CHCHSCH2C2HCHC3H2CHC2HC3H2CH3C2H3NCHSFeCHCH4C3HC4FeH3CH2FeHSFeSH2S3FeSCFeSFeHSFeS2FeS2FeSFeS3FeS2FeS2FeSFeS3C2H2C4H2C6H4C9H3C2H2C6H5CHCH3CH2NCH2CHCH4C2H5CH2C2H2SCHCH2CHNHC3HCH4C2HC3HC2HCH4NH4CHCH3CHNHCH4C4H3CH2CHNCHSC3HC3H3C4NCH4C3HCH5CH2CHCHC2HNCH4CNH9C2H2SC4H2FeS2FeS2FeSFeS3FeSCFeS2FeSFeS3FeS2FeHFeCS2FeCFeS2FeHS2C3HC3NCH5CNC2H2C7H2CHCHC8H4C6H7C2H2SNC9H15CHC4HCSCH2CH2CH2C2HCH2C2H2NC9H15CH3CHC5HNC2SH2C2HCHSHCH2FeCH2C2HC5HC2H2CH3C2H8CHCH5C3H2CSFeS2FeSCFeSFeS3FeS2FeS2FeSFeS3CH4CHCHC2NC2H7SNHC6H4CH3CHC2HCHNC2HNC4H5SH2CHCH3C2HCH3CHC4H2CHCH7CHNC4H2SHCHC2H4C3HCHNC4HC4HSC2H3CH7C2H7C3HNCH2C2SH3C4H4CH2C3HCH2CH2FeCFeS2FeS2FeSFeCS2FeS2FeS2FeSFeS3CH2CHC3H3CH5C4NC8H4C2H8CH2C2HCH2C3HC2H2C2H4N2C4H5C2HC2H3C2H3SH2C2H2CH3CH2C2H2CHCHNCHCHCH3CH2CH3C2H2FeS2FeS2FeSFeS3FeS2FeHNFeSFeHS2CH3CH2C3H2C3HCHC6H4C4H2CH2CNC9H13SC2HCH3NCH2SH2CSHCHCH5C2H2CHCH5CSHNH4C3HC3H4C2HC2H3CHCFeS2FeS2FeSFeS3FeSCFeSHFeSFeS2C2H2CSH5C2NCH13SC6H4C2H2C2HC4H3CHNHC3H4CHNHCHC6H6C2HC2HSH2CH3NC9H12CH2CSC3HCHSC3NH2CHSHC2H2CHCH2C2HCH3CH8CHCH3C2SH2C2HCHC2HC2SHNH4FeC2H2CH2CFeSFeS2HCS3FeSHFeSFeHSFeS2FeS2FeSFeS3FeS2FeS2FeSFeS3C6H4C6H4C6H4C2HC3HC2H2C4HC2HC2HCFeHCH2C2HC6HCH2NC9H14NC10H15C2H5CH4NC3H2C2HCNC9H14CHCHFeH4CH5C2HNSC2HNH2C2H5CHC2H3C2HCSH2CH2CHCH2CH3C3HCH3C2HC5HFeS2FeS2FeSFeHS2FeS2FeS2FeSFeS3FeHFeS2FeS3FeS2FeCHCS2C4SHC6H4C6H2NHC6H5C2HNC2H2C2H2C2H2C2H4C3H3CNC9H17SC2H2CH2C2H2C3HFeCH3NC4HNHCH11CHCH6CHCHCH2CHC5HNH3FeC2HCH2C3H4CH5C3H3C2HNH2CNH2CHCH2CH2CH2CH2C3HC6H2CH2CH3CH2SC2SFeHCFeS2FeSFeHS2FeS2FeS2FeSFeS3C2HCH3CFeCHC4HCH2CH2NC6H5CHCHC2H2C3HNCHCHCHCHCH3C2H2C3HC4H3C2H2SH6CHSH4C3HCSH3SH3CHCHC2HCH2CHSC3H2CHC2H6NC5HCH2CH3CNH3SH3CHC6H4C3HNHCH2C3HCH2CHC2FeS2FeHSFeCFeCS2FeS2FeS2FeSFeS3C2HCH2SCHCSHC2HCH3CHC7H4CHCH5C5H3CH2C2HC2H3C2HNHCHCHCNC9H14NCH9CH2C2S
_chemical_formula_sum              "Fe128 S256 H1152 C960 N64"
_cell_length_a       41.6598
_cell_length_b       41.7784
_cell_length_c       84.284
_cell_angle_alpha    90.7514
_cell_angle_beta     90.6089
_cell_angle_gamma    91.0784

_space_group_name_H-M_alt    "P 1"
_space_group_IT_number       1

loop_
  _space_group_symop_operation_xyz
  'x, y, z'

loop_
  _atom_site_type_symbol
  _atom_site_label
  _atom_site_symmetry_multiplicity
  _atom_site_fract_x
  _atom_site_fract_y
  _atom_site_fract_z
  _atom_site_occupancy
  Fe  Fe1       1.0  0.18284  0.42318  0.05475  1.0000
  S   S1        1.0  0.19402  0.38579  0.03599  1.0000
  S   S2        1.0  0.22420  0.45613  0.06421  1.0000
  Fe  Fe2       1.0  0.11014  0.41104  0.04981  1.0000
  S   S3        1.0  0.11641  0.37377  0.03069  1.0000
  S   S4        1.0  0.06329  0.42947  0.05954  1.0000
  Fe  Fe3       1.0  0.15521  0.35435  0.04668  1.0000
  S   S5        1.0  0.15737  0.30245  0.05611  1.0000
  Fe  Fe4       1.0  0.15444  0.40807  0.02142  1.0000
  S   S6        1.0  0.16163  0.41791  0.99487  1.0000
  S   S7        1.0  0.14679  0.39055  0.06644  1.0000
  S   S8        1.0  0.14517  0.44645  0.03952  1.0000
  Fe  Fe5       1.0  0.15100  0.10494  0.04294  1.0000
  S   S9        1.0  0.14438  0.09177  0.06845  1.0000
  S   S10       1.0  0.15972  0.15516  0.03250  1.0000
  Fe  Fe6       1.0  0.14012  0.03442  0.03162  1.0000
  S   S11       1.0  0.13236  0.01702  0.05669  1.0000
  H   H1        1.0  0.19293  0.01329  0.99779  1.0000
  Fe  Fe7       1.0  0.10261  0.06119  0.05967  1.0000
  S   S12       1.0  0.05624  0.06670  0.07336  1.0000
  Fe  Fe8       1.0  0.17498  0.04852  0.06353  1.0000
  S   S13       1.0  0.21783  0.03876  0.08050  1.0000
  S   S14       1.0  0.10748  0.07661  0.03443  1.0000
  S   S15       1.0  0.18444  0.06373  0.03820  1.0000
  H   H2        1.0  0.21522  0.49061  0.14994  1.0000
  H   H3        1.0  0.04936  0.32302  0.04870  1.0000
  H   H4        1.0  0.08049  0.31098  0.09664  1.0000
  H   H5        1.0  0.22744  0.23991  0.04637  1.0000
  H   H6        1.0  0.29401  0.17245  0.08119  1.0000
  H   H7        1.0  0.05779  0.45394  0.99586  1.0000
  H   H8        1.0  0.04223  0.10650  0.04489  1.0000
  H   H9        1.0  0.08161  0.06595  0.99333  1.0000
  H   H10       1.0  0.26686  0.26458  0.06518  1.0000
  H   H11       1.0  0.26882  0.09114  0.07056  1.0000
  H   H12       1.0  0.23080  0.43965  0.99720  1.0000
  H   H13       1.0  0.01180  0.33589  0.07065  1.0000
  H   H14       1.0  0.09028  0.31394  0.05316  1.0000
  C   C1        1.0  0.01864  0.05308  0.06570  1.0000
  C   C2        1.0  0.01622  0.03557  0.05147  1.0000
  C   C3        1.0  0.28289  0.21935  0.07403  1.0000
  H   H15       1.0  0.03773  0.02977  0.04503  1.0000
  C   C4        1.0  0.23697  0.47111  0.08335  1.0000
  H   H16       1.0  0.22071  0.18201  0.04451  1.0000
  H   H17       1.0  0.30000  0.23033  0.08233  1.0000
  H   H18       1.0  0.23242  0.13232  0.03770  1.0000
  H   H19       1.0  0.27545  0.13122  0.03972  1.0000
  H   H20       1.0  0.20751  0.47304  0.16855  1.0000
  C   C5        1.0  0.15698  0.26168  0.04912  1.0000
  C   C6        1.0  0.15815  0.25333  0.03300  1.0000
  C   C7        1.0  0.15840  0.22073  0.02819  1.0000
  C   C8        1.0  0.15681  0.19586  0.03933  1.0000
  C   C9        1.0  0.15510  0.20420  0.05545  1.0000
  C   C10       1.0  0.15556  0.23679  0.06027  1.0000
  H   H21       1.0  0.15935  0.27197  0.02423  1.0000
  H   H22       1.0  0.15999  0.21475  0.01570  1.0000
  H   H23       1.0  0.15420  0.18558  0.06423  1.0000
  H   H24       1.0  0.15487  0.24278  0.07279  1.0000
  C   C11       1.0  0.99847  0.42316  0.06393  1.0000
  H   H25       1.0  0.19156  0.01535  0.12073  1.0000
  H   H26       1.0  0.21291  0.10289  0.06816  1.0000
  H   H27       1.0  0.19911  0.14005  0.06055  1.0000
  C   C12       1.0  0.02521  0.41171  0.05574  1.0000
  C   C13       1.0  0.02119  0.38595  0.04513  1.0000
  H   H28       1.0  0.11819  0.00175  0.30739  1.0000
  H   H29       1.0  0.04130  0.37785  0.03826  1.0000
  H   H30       1.0  0.00139  0.44331  0.07206  1.0000
  C   C14       1.0  0.22974  0.00488  0.09197  1.0000
  H   H31       1.0  0.25058  0.09714  0.04468  1.0000
  C   C15       1.0  0.24221  0.22482  0.05375  1.0000
  H   H32       1.0  0.07589  0.35265  0.05789  1.0000
  H   H33       1.0  0.13941  0.07963  0.99468  1.0000
  H   H34       1.0  0.10836  0.30813  0.08059  1.0000
  H   H35       1.0  0.06677  0.15742  0.03599  1.0000
  C   C16       1.0  0.22410  0.45969  0.09752  1.0000
  C   C17       1.0  0.27920  0.18596  0.07322  1.0000
  C   C18       1.0  0.23851  0.19154  0.05278  1.0000
  C   C19       1.0  0.15381  0.01049  0.13775  1.0000
  H   H36       1.0  0.09346  0.34614  0.08611  1.0000
  C   C20       1.0  0.25672  0.17103  0.06252  1.0000
  H   H37       1.0  0.12104  0.00257  0.15685  1.0000
  C   C21       1.0  0.14763  0.48248  0.99033  1.0000
  H   H38       1.0  0.09614  0.26534  0.06471  1.0000
  H   H39       1.0  0.04084  0.36266  0.07939  1.0000
  H   H40       1.0  0.29654  0.47134  0.02456  1.0000
  H   H41       1.0  0.22599  0.46200  0.12313  1.0000
  H   H42       1.0  0.29890  0.12181  0.06776  1.0000
  C   C22       1.0  0.25245  0.12378  0.04530  1.0000
  C   C23       1.0  0.26433  0.23872  0.06437  1.0000
  C   C24       1.0  0.27373  0.11748  0.07160  1.0000
  H   H43       1.0  0.24894  0.42132  0.01370  1.0000
  H   H44       1.0  0.26778  0.44960  0.03610  1.0000
  C   C25       1.0  0.08640  0.32036  0.08471  1.0000
  H   H45       1.0  0.21140  0.45343  0.03059  1.0000
  C   C26       1.0  0.02700  0.12639  0.04188  1.0000
  C   C27       1.0  0.06380  0.22570  0.06681  1.0000
  C   C28       1.0  0.03250  0.45254  0.99881  1.0000
  H   H46       1.0  0.16895  0.48324  0.18609  1.0000
  H   H47       1.0  0.08165  0.20855  0.06318  1.0000
  C   C29       1.0  0.14569  0.00081  0.15297  1.0000
  C   C30       1.0  0.03285  0.33701  0.07892  1.0000
  C   C31       1.0  0.27143  0.47157  0.02890  1.0000
  C   C32       1.0  0.04938  0.28147  0.07253  1.0000
  C   C33       1.0  0.21544  0.47384  0.02251  1.0000
  C   C34       1.0  0.25791  0.00722  0.10140  1.0000
  C   C35       1.0  0.04084  0.15510  0.03691  1.0000
  C   C36       1.0  0.07194  0.25829  0.06777  1.0000
  H   H48       1.0  0.20541  0.44137  0.09708  1.0000
  H   H49       1.0  0.03219  0.20297  0.02920  1.0000
  C   C37       1.0  0.06900  0.32676  0.05763  1.0000
  H   H50       1.0  0.21533  0.13846  0.08030  1.0000
  N   N1        1.0  0.25070  0.13597  0.06191  1.0000
  C   C38       1.0  0.21811  0.12910  0.06798  1.0000
  H   H51       1.0  0.19615  0.47227  0.01334  1.0000
  H   H52       1.0  0.27172  0.12323  0.08448  1.0000
  C   C39       1.0  0.23586  0.47154  0.11233  1.0000
  H   H53       1.0  0.27195  0.02926  0.10146  1.0000
  N   N2        1.0  0.05893  0.31579  0.07349  1.0000
  H   H54       1.0  0.13562  0.01972  0.12981  1.0000
  C   C40       1.0  0.00997  0.23731  0.07507  1.0000
  C   C41       1.0  0.26149  0.49484  0.08430  1.0000
  C   C42       1.0  0.15667  0.45334  0.98348  1.0000
  H   H55       1.0  0.23232  0.01646  0.18233  1.0000
  S   S16       1.0  0.12876  0.99955  0.01089  1.0000
  C   C43       1.0  0.09688  0.05955  0.98349  1.0000
  C   C44       1.0  0.20137  0.49388  0.16110  1.0000
  C   C45       1.0  0.25058  0.44290  0.00609  1.0000
  C   C46       1.0  0.02132  0.18067  0.03310  1.0000
  H   H56       1.0  0.27374  0.44229  0.99966  1.0000
  H   H57       1.0  0.14182  0.48364  0.00280  1.0000
  H   H58       1.0  0.02471  0.33083  0.09104  1.0000
  H   H59       1.0  0.02674  0.18985  0.06987  1.0000
  H   H60       1.0  0.21565  0.48643  0.98789  1.0000
  H   H61       1.0  0.04150  0.43973  0.02306  1.0000
  C   C47       1.0  0.00916  0.45854  0.98731  1.0000
  C   C48       1.0  0.02331  0.44453  0.01411  1.0000
  C   C49       1.0  0.01789  0.27001  0.07605  1.0000
  N   N3        1.0  0.24787  0.47297  0.01556  1.0000
  C   C50       1.0  0.18536  0.00806  0.13265  1.0000
  C   C51       1.0  0.03290  0.21520  0.07053  1.0000
  H   H62       1.0  0.26859  0.49184  0.03747  1.0000
  H   H63       1.0  0.14240  0.49441  0.21098  1.0000
  C   C52       1.0  0.12949  0.06733  0.98427  1.0000
  H   H64       1.0  0.17546  0.49251  0.15777  1.0000
  C   C53       1.0  0.26040  0.49526  0.11328  1.0000
  H   H65       1.0  0.26721  0.99708  0.15990  1.0000
  H   H66       1.0  0.99892  0.28580  0.07956  1.0000
  C   C54       1.0  0.18007  0.99714  0.98974  1.0000
  H   H67       1.0  0.21198  0.49617  0.02961  1.0000
  Fe  Fe9       1.0  0.33954  0.35642  0.40554  1.0000
  S   S17       1.0  0.35640  0.38779  0.38547  1.0000
  S   S18       1.0  0.35015  0.30261  0.40201  1.0000
  Fe  Fe10      1.0  0.32068  0.41611  0.42529  1.0000
  S   S19       1.0  0.33603  0.45061  0.40644  1.0000
  S   S20       1.0  0.29607  0.43252  0.44804  1.0000
  Fe  Fe11      1.0  0.31158  0.41665  0.38901  1.0000
  S   S21       1.0  0.27846  0.42657  0.36747  1.0000
  Fe  Fe12      1.0  0.37920  0.41912  0.40441  1.0000
  S   S22       1.0  0.42805  0.44397  0.40414  1.0000
  S   S23       1.0  0.29334  0.38339  0.40802  1.0000
  S   S24       1.0  0.36533  0.38665  0.42433  1.0000
  Fe  Fe13      1.0  0.29748  0.03973  0.39567  1.0000
  S   S25       1.0  0.28500  0.06772  0.41788  1.0000
  H   H68       1.0  0.22741  0.41866  0.40850  1.0000
  Fe  Fe14      1.0  0.36625  0.06587  0.39660  1.0000
  S   S26       1.0  0.35927  0.09558  0.41861  1.0000
  S   S27       1.0  0.41215  0.06474  0.38244  1.0000
  Fe  Fe15      1.0  0.33246  0.05227  0.42795  1.0000
  H   H69       1.0  0.08260  0.07138  0.61488  1.0000
  Fe  Fe16      1.0  0.31261  0.10960  0.40736  1.0000
  S   S28       1.0  0.29179  0.16008  0.41044  1.0000
  S   S29       1.0  0.34344  0.02165  0.40662  1.0000
  S   S30       1.0  0.32117  0.08261  0.38440  1.0000
  H   H70       1.0  0.27867  0.04605  0.57259  1.0000
  H   H71       1.0  0.25962  0.33259  0.37325  1.0000
  S   S31       1.0  0.20075  0.46452  0.63107  1.0000
  H   H72       1.0  0.47201  0.43449  0.43190  1.0000
  S   S32       1.0  0.18499  0.02626  0.61635  1.0000
  H   H73       1.0  0.42144  0.00404  0.49232  1.0000
  H   H74       1.0  0.23875  0.47423  0.44169  1.0000
  H   H75       1.0  0.06101  0.01904  0.31315  1.0000
  H   H76       1.0  0.19708  0.47963  0.43741  1.0000
  C   C55       1.0  0.29878  0.26541  0.36552  1.0000
  C   C56       1.0  0.47128  0.13180  0.41046  1.0000
  Fe  Fe17      1.0  0.17549  0.05492  0.63948  1.0000
  C   C57       1.0  0.46306  0.19710  0.41587  1.0000
  H   H77       1.0  0.14180  0.18520  0.63637  1.0000
  C   C58       1.0  0.44729  0.03902  0.40695  1.0000
  C   C59       1.0  0.44777  0.05194  0.39175  1.0000
  C   C60       1.0  0.28129  0.08865  0.60781  1.0000
  H   H78       1.0  0.42478  0.03652  0.41315  1.0000
  H   H79       1.0  0.25307  0.44630  0.57896  1.0000
  C   C61       1.0  0.28703  0.28861  0.35489  1.0000
  H   H80       1.0  0.22996  0.08352  0.44392  1.0000
  N   N4        1.0  0.22547  0.46786  0.41694  1.0000
  H   H81       1.0  0.42318  0.13167  0.40079  1.0000
  C   C62       1.0  0.24340  0.01273  0.35348  1.0000
  C   C63       1.0  0.04621  0.01581  0.60872  1.0000
  C   C64       1.0  0.28882  0.23333  0.36448  1.0000
  H   H82       1.0  0.16876  0.99803  0.36117  1.0000
  C   C65       1.0  0.33382  0.26327  0.40534  1.0000
  C   C66       1.0  0.35247  0.23648  0.40149  1.0000
  C   C67       1.0  0.34025  0.20486  0.40312  1.0000
  C   C68       1.0  0.30897  0.19947  0.40852  1.0000
  C   C69       1.0  0.29026  0.22626  0.41230  1.0000
  C   C70       1.0  0.30254  0.25789  0.41076  1.0000
  H   H83       1.0  0.37654  0.24024  0.39711  1.0000
  H   H84       1.0  0.35489  0.18466  0.40001  1.0000
  H   H85       1.0  0.26598  0.22254  0.41640  1.0000
  H   H86       1.0  0.28770  0.27807  0.41364  1.0000
  S   S33       1.0  0.14761  0.09947  0.63429  1.0000
  C   C71       1.0  0.46275  0.42310  0.39861  1.0000
  C   C72       1.0  0.46121  0.39092  0.39386  1.0000
  C   C73       1.0  0.28435  0.34374  0.34423  1.0000
  H   H87       1.0  0.43820  0.37851  0.39303  1.0000
  C   C74       1.0  0.33289  0.32534  0.35629  1.0000
  C   C75       1.0  0.44204  0.44880  0.46829  1.0000
  H   H88       1.0  0.25451  0.29343  0.33439  1.0000
  H   H89       1.0  0.29283  0.36908  0.34598  1.0000
  C   C76       1.0  0.29679  0.46625  0.47646  1.0000
  C   C77       1.0  0.31294  0.46042  0.46214  1.0000
  C   C78       1.0  0.28757  0.05466  0.58404  1.0000
  H   H90       1.0  0.27473  0.45321  0.47886  1.0000
  H   H91       1.0  0.23816  0.23740  0.33284  1.0000
  C   C79       1.0  0.26041  0.46064  0.35838  1.0000
  H   H92       1.0  0.23305  0.13986  0.44951  1.0000
  C   C80       1.0  0.23080  0.45330  0.60179  1.0000
  C   C81       1.0  0.30938  0.07445  0.61413  1.0000
  H   H93       1.0  0.11768  0.05691  0.60572  1.0000
  C   C82       1.0  0.24073  0.02741  0.47178  1.0000
  H   H94       1.0  0.21980  0.42965  0.60189  1.0000
  C   C83       1.0  0.28616  0.33499  0.37224  1.0000
  C   C84       1.0  0.20268  0.46487  0.38920  1.0000
  C   C85       1.0  0.49702  0.14973  0.41759  1.0000
  H   H95       1.0  0.28764  0.15250  0.60592  1.0000
  S   S34       1.0  0.12642  0.39546  0.63562  1.0000
  C   C86       1.0  0.31054  0.11948  0.45567  1.0000
  C   C87       1.0  0.32982  0.01043  0.46650  1.0000
  H   H96       1.0  0.29797  0.21623  0.37293  1.0000
  C   C88       1.0  0.13169  0.03302  0.36286  1.0000
  C   C89       1.0  0.27440  0.14381  0.47425  1.0000
  H   H97       1.0  0.24978  0.08757  0.58691  1.0000
  C   C90       1.0  0.47721  0.05511  0.38386  1.0000
  H   H98       1.0  0.35502  0.02981  0.48706  1.0000
  H   H99       1.0  0.09141  0.06425  0.36186  1.0000
  C   C91       1.0  0.47112  0.43406  0.44469  1.0000
  H   H100      1.0  0.34667  0.03986  0.61071  1.0000
  S   S35       1.0  0.13697  0.30241  0.63304  1.0000
  H   H101      1.0  0.29455  0.08339  0.48485  1.0000
  H   H102      1.0  0.34138  0.35078  0.35617  1.0000
  H   H103      1.0  0.47773  0.06509  0.37208  1.0000
  H   H104      1.0  0.49408  0.46391  0.40318  1.0000
  H   H105      1.0  0.28204  0.16875  0.47136  1.0000
  H   H106      1.0  0.41577  0.18967  0.40577  1.0000
  H   H107      1.0  0.26885  0.16186  0.44447  1.0000
  C   C92       1.0  0.22568  0.47450  0.61449  1.0000
  C   C93       1.0  0.49215  0.18304  0.42008  1.0000
  C   C94       1.0  0.15492  0.26633  0.63913  1.0000
  H   H108      1.0  0.30039  0.13029  0.63254  1.0000
  H   H109      1.0  0.25205  0.03705  0.35541  1.0000
  C   C95       1.0  0.25903  0.13743  0.44695  1.0000
  C   C96       1.0  0.49278  0.43893  0.39963  1.0000
  H   H110      1.0  0.34635  0.03293  0.34819  1.0000
  C   C97       1.0  0.27558  0.12003  0.63285  1.0000
  H   H111      1.0  0.32703  0.02221  0.58424  1.0000
  C   C98       1.0  0.23988  0.07342  0.45458  1.0000
  C   C99       1.0  0.09208  0.01369  0.62631  1.0000
  H   H112      1.0  0.25040  0.01023  0.62757  1.0000
  H   H113      1.0  0.05355  0.32176  0.63274  1.0000
  C   C100      1.0  0.21828  0.00619  0.60746  1.0000
  H   H114      1.0  0.22576  0.02145  0.32973  1.0000
  C   C101      1.0  0.26704  0.22330  0.35272  1.0000
  C   C102      1.0  0.30896  0.48877  0.48776  1.0000
  H   H115      1.0  0.35416  0.47333  0.44829  1.0000
  N   N5        1.0  0.27642  0.12206  0.46023  1.0000
  C   C103      1.0  0.44467  0.44814  0.45184  1.0000
  H   H116      1.0  0.11872  0.01528  0.62753  1.0000
  H   H117      1.0  0.27534  0.09823  0.64033  1.0000
  C   C104      1.0  0.26352  0.08980  0.46411  1.0000
  C   C105      1.0  0.22887  0.04264  0.45840  1.0000
  H   H118      1.0  0.24270  0.43294  0.33825  1.0000
  C   C106      1.0  0.24975  0.46288  0.58875  1.0000
  H   H119      1.0  0.06659  0.26844  0.64373  1.0000
  H   H120      1.0  0.31559  0.01902  0.36168  1.0000
  C   C107      1.0  0.47597  0.02909  0.41414  1.0000
  H   H121      1.0  0.06448  0.03542  0.34019  1.0000
  H   H122      1.0  0.34461  0.31468  0.36687  1.0000
  H   H123      1.0  0.29266  0.36075  0.37392  1.0000
  H   H124      1.0  0.24937  0.14454  0.47874  1.0000
  N   N6        1.0  0.29730  0.32260  0.35673  1.0000
  H   H125      1.0  0.32109  0.14296  0.45209  1.0000
  H   H126      1.0  0.29697  0.32219  0.38242  1.0000
  H   H127      1.0  0.14357  0.04619  0.37249  1.0000
  H   H128      1.0  0.31305  0.10266  0.44546  1.0000
  H   H129      1.0  0.24945  0.16232  0.61435  1.0000
  C   C108      1.0  0.27541  0.07331  0.47751  1.0000
  H   H130      1.0  0.45976  0.22254  0.41784  1.0000
  H   H131      1.0  0.25767  0.34452  0.34451  1.0000
  H   H132      1.0  0.34250  0.31326  0.34555  1.0000
  H   H133      1.0  0.23267  0.00330  0.47455  1.0000
  H   H134      1.0  0.31566  0.27205  0.37483  1.0000
  C   C109      1.0  0.24347  0.45633  0.34390  1.0000
  H   H135      1.0  0.29217  0.33607  0.33221  1.0000
  C   C110      1.0  0.25513  0.24536  0.34198  1.0000
  H   H136      1.0  0.21879  0.44577  0.38619  1.0000
  H   H137      1.0  0.49231  0.48982  0.55846  1.0000
  H   H138      1.0  0.32575  0.11004  0.46541  1.0000
  C   C111      1.0  0.49260  0.42122  0.47059  1.0000
  C   C112      1.0  0.22911  0.10140  0.61835  1.0000
  C   C113      1.0  0.22131  0.43285  0.41925  1.0000
  C   C114      1.0  0.02581  0.03648  0.61728  1.0000
  C   C115      1.0  0.33957  0.01060  0.48256  1.0000
  N   N7        1.0  0.26275  0.11290  0.61663  1.0000
  H   H139      1.0  0.21411  0.47791  0.32564  1.0000
  C   C116      1.0  0.09105  0.05364  0.60596  1.0000
  H   H140      1.0  0.19615  0.42662  0.42247  1.0000
  H   H141      1.0  0.21140  0.03025  0.45079  1.0000
  H   H142      1.0  0.27355  0.03043  0.49153  1.0000
  H   H143      1.0  0.22836  0.07761  0.62412  1.0000
  H   H144      1.0  0.11660  0.23663  0.62927  1.0000
  H   H145      1.0  0.03118  0.41607  0.63952  1.0000
  C   C117      1.0  0.26481  0.27762  0.34300  1.0000
  H   H146      1.0  0.42122  0.45939  0.47376  1.0000
  C   C118      1.0  0.34151  0.47741  0.45925  1.0000
  H   H147      1.0  0.47338  0.10653  0.40792  1.0000
  S   S36       1.0  0.34373  0.04183  0.45409  1.0000
  C   C119      1.0  0.27106  0.07818  0.59243  1.0000
  H   H148      1.0  0.46405  0.43636  0.49047  1.0000
  H   H149      1.0  0.21615  0.09855  0.60682  1.0000
  C   C120      1.0  0.32580  0.05107  0.60557  1.0000
  C   C121      1.0  0.26377  0.04281  0.48137  1.0000
  H   H150      1.0  0.42594  0.45824  0.44447  1.0000
  C   C122      1.0  0.10106  0.99860  0.33747  1.0000
  H   H151      1.0  0.03551  0.05616  0.62434  1.0000
  C   C123      1.0  0.14584  0.00587  0.35650  1.0000
  C   C124      1.0  0.22719  0.48190  0.33667  1.0000
  C   C125      1.0  0.31490  0.04118  0.59059  1.0000
  H   H152      1.0  0.26159  0.12384  0.43561  1.0000
  H   H153      1.0  0.29025  0.13649  0.48419  1.0000
  C   C126      1.0  0.10235  0.04314  0.35682  1.0000
  H   H154      1.0  0.21484  0.11834  0.62561  1.0000
  C   C127      1.0  0.44237  0.14605  0.40629  1.0000
  C   C128      1.0  0.34138  0.01729  0.35850  1.0000
  H   H155      1.0  0.08199  0.03103  0.63499  1.0000
  C   C129      1.0  0.43822  0.17865  0.40904  1.0000
  C   C130      1.0  0.46610  0.43563  0.47765  1.0000
  C   C131      1.0  0.08710  0.02628  0.34431  1.0000
  H   H156      1.0  0.23737  0.42410  0.42888  1.0000
  H   H157      1.0  0.31890  0.08051  0.62576  1.0000
  C   C132      1.0  0.24735  0.00146  0.61552  1.0000
  H   H158      1.0  0.25936  0.19837  0.35197  1.0000
  H   H159      1.0  0.25088  0.14068  0.59597  1.0000
  H   H160      1.0  0.26080  0.13800  0.63923  1.0000
  C   C133      1.0  0.13950  0.23688  0.63543  1.0000
  C   C134      1.0  0.26271  0.14337  0.60780  1.0000
  H   H161      1.0  0.35541  0.02784  0.36867  1.0000
  H   H162      1.0  0.29625  0.49296  0.49870  1.0000
  H   H163      1.0  0.47531  0.01898  0.42588  1.0000
  N   N8        1.0  0.08155  0.02020  0.60985  1.0000
  C   C135      1.0  0.15376  0.20767  0.63944  1.0000
  H   H164      1.0  0.30284  0.00950  0.33518  1.0000
  S   S37       1.0  0.26516  0.00002  0.38434  1.0000
  Fe  Fe18      1.0  0.17341  0.42131  0.64214  1.0000
  C   C136      1.0  0.49562  0.41952  0.45379  1.0000
  H   H165      1.0  0.26482  0.46050  0.40084  1.0000
  C   C137      1.0  0.22833  0.00380  0.33891  1.0000
  H   H166      1.0  0.08130  0.06047  0.59416  1.0000
  H   H167      1.0  0.49644  0.39047  0.42439  1.0000
  H   H168      1.0  0.49533  0.36133  0.43970  1.0000
  H   H169      1.0  0.48819  0.34992  0.38633  1.0000
  C   C138      1.0  0.22163  0.48373  0.43269  1.0000
  C   C139      1.0  0.48955  0.37476  0.39012  1.0000
  C   C140      1.0  0.18290  0.47608  0.37707  1.0000
  H   H170      1.0  0.27660  0.46847  0.42100  1.0000
  C   C141      1.0  0.20274  0.47892  0.40463  1.0000
  C   C142      1.0  0.25870  0.47455  0.41167  1.0000
  C   C143      1.0  0.26103  0.49121  0.36544  1.0000
  C   C144      1.0  0.26419  0.49367  0.58815  1.0000
  Fe  Fe19      1.0  0.15056  0.35071  0.64430  1.0000
  H   H171      1.0  0.18405  0.46557  0.36524  1.0000
  H   H172      1.0  0.09228  0.00201  0.58646  1.0000
  H   H173      1.0  0.19284  0.99763  0.58534  1.0000
  C   C145      1.0  0.09944  0.99862  0.59907  1.0000
  H   H174      1.0  0.12589  0.00325  0.59987  1.0000
  H   H175      1.0  0.27399  0.49523  0.37648  1.0000
  Fe  Fe20      1.0  0.18074  0.38504  0.67348  1.0000
  H   H176      1.0  0.11527  0.45083  0.85403  1.0000
  S   S38       1.0  0.21543  0.37105  0.69346  1.0000
  Fe  Fe21      1.0  0.11199  0.40196  0.66112  1.0000
  S   S39       1.0  0.06112  0.40866  0.67123  1.0000
  H   H177      1.0  0.42904  0.20301  0.79562  1.0000
  H   H178      1.0  0.31253  0.15773  0.74569  1.0000
  S   S40       1.0  0.13498  0.35668  0.66941  1.0000
  S   S41       1.0  0.15692  0.43124  0.66736  1.0000
  S   S42       1.0  0.14040  0.03932  0.65839  1.0000
  Fe  Fe22      1.0  0.17829  0.12377  0.65296  1.0000
  S   S43       1.0  0.14369  0.11331  0.67249  1.0000
  C   C146      1.0  0.24462  0.45956  0.84150  1.0000
  Fe  Fe23      1.0  0.17176  0.06836  0.67573  1.0000
  S   S44       1.0  0.17921  0.05143  0.70126  1.0000
  Fe  Fe24      1.0  0.11466  0.08538  0.65413  1.0000
  H   H179      1.0  0.14178  0.45860  0.87028  1.0000
  S   S45       1.0  0.20857  0.08034  0.65722  1.0000
  Fe  Fe25      1.0  0.33990  0.12804  0.80118  1.0000
  S   S46       1.0  0.35848  0.10734  0.77860  1.0000
  S   S47       1.0  0.35940  0.17849  0.80557  1.0000
  Fe  Fe26      1.0  0.31008  0.06322  0.81075  1.0000
  S   S48       1.0  0.32757  0.03864  0.78829  1.0000
  S   S49       1.0  0.28551  0.04304  0.83321  1.0000
  Fe  Fe27      1.0  0.37464  0.06577  0.79290  1.0000
  S   S50       1.0  0.42528  0.04723  0.78753  1.0000
  Fe  Fe28      1.0  0.31023  0.08275  0.77557  1.0000
  S   S51       1.0  0.29277  0.09206  0.75004  1.0000
  S   S52       1.0  0.35834  0.08756  0.81578  1.0000
  S   S53       1.0  0.29057  0.10622  0.79767  1.0000
  Fe  Fe29      1.0  0.31384  0.42244  0.81188  1.0000
  S   S54       1.0  0.34509  0.43685  0.79121  1.0000
  S   S55       1.0  0.30960  0.45832  0.83294  1.0000
  Fe  Fe30      1.0  0.30466  0.35420  0.79777  1.0000
  S   S56       1.0  0.33472  0.36422  0.77637  1.0000
  S   S57       1.0  0.27939  0.30611  0.80105  1.0000
  Fe  Fe31      1.0  0.36929  0.38919  0.79359  1.0000
  S   S58       1.0  0.42235  0.37404  0.79515  1.0000
  Fe  Fe32      1.0  0.30811  0.41065  0.77565  1.0000
  S   S59       1.0  0.28719  0.43517  0.75378  1.0000
  S   S60       1.0  0.34016  0.37615  0.81508  1.0000
  S   S61       1.0  0.27576  0.39930  0.79616  1.0000
  C   C147      1.0  0.46250  0.38915  0.79281  1.0000
  C   C148      1.0  0.46955  0.42099  0.78893  1.0000
  H   H180      1.0  0.24023  0.44207  0.83210  1.0000
  H   H181      1.0  0.45016  0.43740  0.78703  1.0000
  C   C149      1.0  0.41099  0.45379  0.85036  1.0000
  C   C150      1.0  0.46536  0.05241  0.79522  1.0000
  C   C151      1.0  0.47198  0.06137  0.81101  1.0000
  C   C152      1.0  0.10390  0.03262  0.95767  1.0000
  H   H182      1.0  0.45239  0.06571  0.81902  1.0000
  H   H183      1.0  0.12792  0.02231  0.92705  1.0000
  C   C153      1.0  0.33659  0.21366  0.80495  1.0000
  C   C154      1.0  0.30311  0.21286  0.80606  1.0000
  C   C155      1.0  0.28586  0.24144  0.80502  1.0000
  C   C156      1.0  0.30192  0.27094  0.80288  1.0000
  C   C157      1.0  0.33540  0.27173  0.80191  1.0000
  C   C158      1.0  0.35265  0.24320  0.80303  1.0000
  H   H184      1.0  0.29055  0.19033  0.80786  1.0000
  H   H185      1.0  0.25996  0.24075  0.80591  1.0000
  H   H186      1.0  0.34798  0.29434  0.80031  1.0000
  H   H187      1.0  0.37855  0.24410  0.80229  1.0000
  C   C159      1.0  0.47239  0.40552  0.83339  1.0000
  C   C160      1.0  0.02221  0.07950  0.65412  1.0000
  C   C161      1.0  0.28093  0.49380  0.85676  1.0000
  C   C162      1.0  0.21109  0.06276  0.71466  1.0000
  C   C163      1.0  0.23638  0.08311  0.71019  1.0000
  C   C164      1.0  0.26118  0.09136  0.72113  1.0000
  C   C165      1.0  0.26106  0.07967  0.73675  1.0000
  C   C166      1.0  0.23570  0.05942  0.74125  1.0000
  C   C167      1.0  0.21095  0.05100  0.73026  1.0000
  H   H188      1.0  0.23698  0.09231  0.69826  1.0000
  H   H189      1.0  0.28068  0.10693  0.71745  1.0000
  H   H190      1.0  0.23516  0.05020  0.75318  1.0000
  C   C168      1.0  0.11771  0.44817  0.86711  1.0000
  C   C169      1.0  0.02040  0.40921  0.66415  1.0000
  H   H191      1.0  0.33400  0.43652  0.72532  1.0000
  H   H192      1.0  0.42193  0.01105  0.81766  1.0000
  C   C170      1.0  0.23240  0.38905  0.71103  1.0000
  C   C171      1.0  0.22850  0.42137  0.71504  1.0000
  C   C172      1.0  0.24477  0.43491  0.72838  1.0000
  C   C173      1.0  0.26441  0.41621  0.73815  1.0000
  C   C174      1.0  0.26733  0.38364  0.73449  1.0000
  C   C175      1.0  0.25167  0.37028  0.72094  1.0000
  H   H193      1.0  0.21325  0.43606  0.70784  1.0000
  H   H194      1.0  0.24230  0.46010  0.73110  1.0000
  H   H195      1.0  0.28243  0.36896  0.74182  1.0000
  H   H196      1.0  0.25480  0.34525  0.71803  1.0000
  H   H197      1.0  0.37896  0.40136  0.84182  1.0000
  C   C176      1.0  0.48600  0.16729  0.79439  1.0000
  H   H198      1.0  0.09901  0.45564  0.93969  1.0000
  C   C177      1.0  0.09730  0.45671  0.92685  1.0000
  H   H199      1.0  0.11600  0.04265  0.71887  1.0000
  H   H200      1.0  0.29470  0.39316  0.68334  1.0000
  H   H201      1.0  0.09166  0.28651  0.65863  1.0000
  C   C178      1.0  0.37436  0.02243  0.84235  1.0000
  H   H202      1.0  0.22123  0.46145  0.66324  1.0000
  H   H203      1.0  0.19478  0.46176  0.84818  1.0000
  N   N9        1.0  0.04451  0.30700  0.65670  1.0000
  C   C179      1.0  0.28327  0.47515  0.66006  1.0000
  H   H204      1.0  0.01542  0.24698  0.64906  1.0000
  H   H205      1.0  0.19162  0.03517  0.73389  1.0000
  C   C180      1.0  0.06823  0.03583  0.93496  1.0000
  H   H206      1.0  0.48320  0.34361  0.79822  1.0000
  C   C181      1.0  0.14945  0.05852  0.97188  1.0000
  H   H207      1.0  0.41175  0.13492  0.80057  1.0000
  H   H208      1.0  0.05965  0.26056  0.66460  1.0000
  H   H209      1.0  0.05228  0.48095  0.92691  1.0000
  H   H210      1.0  0.05862  0.03766  0.97026  1.0000
  C   C182      1.0  0.05627  0.33091  0.64515  1.0000
  C   C183      1.0  0.08410  0.04282  0.97032  1.0000
  H   H211      1.0  0.29229  0.41181  0.65636  1.0000
  H   H212      1.0  0.08155  0.05735  0.93067  1.0000
  H   H213      1.0  0.48680  0.03923  0.77295  1.0000
  H   H214      1.0  0.25528  0.39966  0.66582  1.0000
  H   H215      1.0  0.14237  0.43383  0.92327  1.0000
  C   C184      1.0  0.16371  0.45253  0.96716  1.0000
  H   H216      1.0  0.38929  0.03850  0.83492  1.0000
  H   H217      1.0  0.36969  0.00782  0.81155  1.0000
  C   C185      1.0  0.18466  0.26631  0.64699  1.0000
  C   C186      1.0  0.26792  0.41970  0.65973  1.0000
  H   H218      1.0  0.05738  0.02319  0.92439  1.0000
  H   H219      1.0  0.42688  0.13053  0.77188  1.0000
  S   S62       1.0  0.19825  0.37567  0.64862  1.0000
  C   C187      1.0  0.99935  0.26691  0.64975  1.0000
  H   H220      1.0  0.20302  0.20883  0.70841  1.0000
  C   C188      1.0  0.06061  0.45102  0.86974  1.0000
  H   H221      1.0  0.00107  0.40262  0.68754  1.0000
  H   H222      1.0  0.14043  0.43723  0.89461  1.0000
  C   C189      1.0  0.07106  0.47097  0.91964  1.0000
  H   H223      1.0  0.11452  0.04759  0.69037  1.0000
  N   N10       1.0  0.26947  0.44909  0.66985  1.0000
  H   H224      1.0  0.04805  0.04438  0.94232  1.0000
  C   C190      1.0  0.09379  0.46104  0.89324  1.0000
  C   C191      1.0  0.02125  0.04946  0.71411  1.0000
  C   C192      1.0  0.29967  0.41519  0.68982  1.0000
  H   H225      1.0  0.03426  0.34376  0.67422  1.0000
  C   C193      1.0  0.13707  0.04125  0.95878  1.0000
  H   H226      1.0  0.27035  0.47702  0.64843  1.0000
  H   H227      1.0  0.40826  0.17888  0.78135  1.0000
  H   H228      1.0  0.22198  0.25746  0.72303  1.0000
  H   H229      1.0  0.25977  0.25395  0.74494  1.0000
  C   C194      1.0  0.28850  0.44534  0.68464  1.0000
  C   C195      1.0  0.16247  0.48048  0.95788  1.0000
  H   H230      1.0  0.07578  0.02858  0.68773  1.0000
  C   C196      1.0  0.48825  0.36826  0.79519  1.0000
  C   C197      1.0  0.49145  0.04648  0.78515  1.0000
  C   C198      1.0  0.31146  0.46893  0.70922  1.0000
  H   H231      1.0  0.41751  0.47935  0.84852  1.0000
  C   C199      1.0  0.12022  0.44651  0.90100  1.0000
  C   C200      1.0  0.31773  0.18246  0.75018  1.0000
  H   H232      1.0  0.05713  0.42580  0.87360  1.0000
  C   C201      1.0  0.29478  0.47210  0.69486  1.0000
  H   H233      1.0  0.42384  0.44572  0.86120  1.0000
  H   H234      1.0  0.03973  0.46486  0.87394  1.0000
  H   H235      1.0  0.25347  0.18833  0.77446  1.0000
  H   H236      1.0  0.43526  0.15977  0.81393  1.0000
  N   N11       1.0  0.28876  0.19801  0.75658  1.0000
  H   H237      1.0  0.31027  0.24541  0.75524  1.0000
  H   H238      1.0  0.29301  0.17423  0.77904  1.0000
  H   H239      1.0  0.26863  0.15307  0.76489  1.0000
  H   H240      1.0  0.16861  0.47950  0.94545  1.0000
  C   C202      1.0  0.27530  0.17758  0.76925  1.0000
  H   H241      1.0  0.46594  0.14524  0.76616  1.0000
  C   C203      1.0  0.40202  0.44584  0.82229  1.0000
  H   H242      1.0  0.11774  0.42207  0.86959  1.0000
  H   H243      1.0  0.07279  0.32701  0.67619  1.0000
  H   H244      1.0  0.44970  0.12161  0.80754  1.0000
  C   C204      1.0  0.06627  0.27924  0.65587  1.0000
  H   H245      1.0  0.03783  0.03409  0.66280  1.0000
  N   N12       1.0  0.07793  0.06543  0.70578  1.0000
  H   H246      1.0  0.08217  0.33690  0.64707  1.0000
  C   C205      1.0  0.22374  0.49371  0.86297  1.0000
  H   H247      1.0  0.40821  0.38452  0.82903  1.0000
  H   H248      1.0  0.46138  0.11194  0.77930  1.0000
  H   H249      1.0  0.12098  0.09443  0.70954  1.0000
  H   H250      1.0  0.31792  0.22551  0.77338  1.0000
  C   C206      1.0  0.23616  0.45730  0.67401  1.0000
  C   C207      1.0  0.21985  0.20681  0.71824  1.0000
  C   C208      1.0  0.43286  0.18644  0.78537  1.0000
  C   C209      1.0  0.45179  0.13573  0.77623  1.0000
  H   H251      1.0  0.08581  0.10888  0.71940  1.0000
  H   H252      1.0  0.26033  0.15047  0.73824  1.0000
  H   H253      1.0  0.33672  0.18010  0.75949  1.0000
  C   C210      1.0  0.04741  0.32100  0.67294  1.0000
  H   H254      1.0  0.30903  0.47092  0.65754  1.0000
  H   H255      1.0  0.35055  0.03396  0.84351  1.0000
  C   C211      1.0  0.26304  0.01068  0.84195  1.0000
  H   H256      1.0  0.32361  0.38899  0.70822  1.0000
  N   N13       1.0  0.45243  0.15856  0.78992  1.0000
  C   C212      1.0  0.47042  0.46318  0.83107  1.0000
  H   H257      1.0  0.03785  0.30421  0.68195  1.0000
  S   S63       1.0  0.06124  0.09601  0.65032  1.0000
  C   C213      1.0  0.45383  0.43377  0.83377  1.0000
  C   C214      1.0  0.04263  0.06913  0.70528  1.0000
  C   C215      1.0  0.29932  0.22895  0.76402  1.0000
  H   H258      1.0  0.32798  0.19637  0.74021  1.0000
  C   C216      1.0  0.25265  0.17421  0.73523  1.0000
  C   C217      1.0  0.09441  0.09694  0.70840  1.0000
  C   C218      1.0  0.01039  0.29869  0.65323  1.0000
  H   H259      1.0  0.04363  0.35396  0.64610  1.0000
  H   H260      1.0  0.41664  0.38983  0.85005  1.0000
  H   H261      1.0  0.44402  0.19995  0.77550  1.0000
  C   C219      1.0  0.25199  0.01415  0.85763  1.0000
  C   C220      1.0  0.06929  0.47326  0.90311  1.0000
  C   C221      1.0  0.26461  0.20157  0.74371  1.0000
  C   C222      1.0  0.12175  0.44444  0.91756  1.0000
  N   N14       1.0  0.41872  0.43329  0.83646  1.0000
  C   C223      1.0  0.08825  0.05186  0.69039  1.0000
  H   H262      1.0  0.40840  0.47124  0.81997  1.0000
  H   H263      1.0  0.27909  0.24129  0.76994  1.0000
  H   H264      1.0  0.31498  0.48937  0.71715  1.0000
  H   H265      1.0  0.22220  0.15551  0.71633  1.0000
  C   C224      1.0  0.27596  0.47104  0.84441  1.0000
  C   C225      1.0  0.43669  0.14303  0.80357  1.0000
  C   C226      1.0  0.23064  0.23417  0.72647  1.0000
  H   H266      1.0  0.17076  0.43020  0.96169  1.0000
  C   C227      1.0  0.23071  0.17686  0.72267  1.0000
  H   H267      1.0  0.45782  0.48553  0.83083  1.0000
  H   H268      1.0  0.40807  0.43176  0.81147  1.0000
  H   H269      1.0  0.02960  0.03157  0.72221  1.0000
  H   H270      1.0  0.37544  0.44468  0.82362  1.0000
  H   H271      1.0  0.38470  0.45320  0.85283  1.0000
  C   C228      1.0  0.25261  0.23177  0.73907  1.0000
  H   H272      1.0  0.38565  0.02215  0.85437  1.0000
  H   H273      1.0  0.23499  0.47930  0.68150  1.0000
  C   C229      1.0  0.40524  0.40078  0.83949  1.0000
  H   H274      1.0  0.22448  0.43754  0.68070  1.0000
  C   C230      1.0  0.32232  0.43913  0.71385  1.0000
  H   H275      1.0  0.08300  0.06807  0.68037  1.0000
  C   C231      1.0  0.08923  0.04384  0.71848  1.0000
  C   C232      1.0  0.21880  0.47081  0.85070  1.0000
  H   H276      1.0  0.08056  0.01874  0.71647  1.0000
  N   N15       1.0  0.09169  0.46457  0.87578  1.0000
  C   C233      1.0  0.01742  0.04875  0.66015  1.0000
  H   H277      1.0  0.33133  0.00043  0.81999  1.0000
  H   H278      1.0  0.19680  0.28879  0.64988  1.0000
  H   H279      1.0  0.17493  0.06413  0.97269  1.0000
  H   H280      1.0  0.09078  0.11355  0.69839  1.0000
  C   C234      1.0  0.31644  0.41236  0.70418  1.0000
  N   N16       1.0  0.08981  0.01464  0.94392  1.0000
  H   H281      1.0  0.08152  0.05230  0.73040  1.0000
  H   H282      1.0  0.05917  0.45125  0.85654  1.0000
  H   H283      1.0  0.04893  0.48548  0.89815  1.0000
  H   H284      1.0  0.01644  0.46456  0.97538  1.0000
  H   H285      1.0  0.25658  0.03649  0.86397  1.0000
  H   H286      1.0  0.15420  0.03437  0.94989  1.0000
  H   H287      1.0  0.48107  0.21960  0.79550  1.0000
  H   H288      1.0  0.46187  0.38189  0.83465  1.0000
  H   H289      1.0  0.22272  0.23737  0.65629  1.0000
  C   C235      1.0  0.11420  0.00251  0.93272  1.0000
  C   C236      1.0  0.18402  0.20766  0.64682  1.0000
  H   H290      1.0  0.25416  0.42358  0.64851  1.0000
  H   H291      1.0  0.04304  0.10617  0.68715  1.0000
  S   S64       1.0  0.20445  0.17154  0.65048  1.0000
  C   C237      1.0  0.19932  0.23711  0.65060  1.0000
  C   C238      1.0  0.01232  0.41290  0.64811  1.0000
  C   C239      1.0  0.02852  0.09138  0.69482  1.0000
  C   C240      1.0  0.49679  0.19953  0.79682  1.0000
  H   H292      1.0  0.28585  0.49549  0.69209  1.0000
  H   H293      1.0  0.99842  0.12153  0.64570  1.0000
  Fe  Fe33      1.0  0.29967  0.90537  0.14164  1.0000
  S   S65       1.0  0.33476  0.93426  0.15696  1.0000
  S   S66       1.0  0.26217  0.91862  0.12240  1.0000
  Fe  Fe34      1.0  0.31292  0.84337  0.16077  1.0000
  S   S67       1.0  0.34815  0.86826  0.17730  1.0000
  S   S68       1.0  0.29332  0.79335  0.16599  1.0000
  Fe  Fe35      1.0  0.31246  0.90812  0.17776  1.0000
  S   S69       1.0  0.29525  0.93303  0.20041  1.0000
  Fe  Fe36      1.0  0.36804  0.89176  0.15539  1.0000
  S   S70       1.0  0.42070  0.88678  0.14747  1.0000
  S   S71       1.0  0.27628  0.88188  0.16258  1.0000
  S   S72       1.0  0.33394  0.86443  0.13870  1.0000
  Fe  Fe37      1.0  0.30850  0.54754  0.14364  1.0000
  S   S73       1.0  0.32730  0.53699  0.16841  1.0000
  C   C241      1.0  0.15596  0.51331  0.20523  1.0000
  Fe  Fe38      1.0  0.33371  0.61680  0.14606  1.0000
  S   S74       1.0  0.35289  0.61102  0.17065  1.0000
  S   S75       1.0  0.34245  0.66453  0.13415  1.0000
  Fe  Fe39      1.0  0.37255  0.56445  0.16181  1.0000
  S   S76       1.0  0.42146  0.55444  0.17356  1.0000
  Fe  Fe40      1.0  0.30692  0.58429  0.17567  1.0000
  S   S77       1.0  0.28042  0.59983  0.19812  1.0000
  S   S78       1.0  0.35559  0.57135  0.13653  1.0000
  S   S79       1.0  0.28594  0.59381  0.15150  1.0000
  Fe  Fe41      1.0  0.17044  0.88571  0.27166  1.0000
  S   S80       1.0  0.19767  0.87477  0.29422  1.0000
  S   S81       1.0  0.18788  0.87499  0.24639  1.0000
  Fe  Fe42      1.0  0.10727  0.90070  0.28989  1.0000
  H   H294      1.0  0.29190  0.52508  0.09955  1.0000
  Fe  Fe43      1.0  0.15227  0.84852  0.30129  1.0000
  C   C242      1.0  0.01810  0.55581  0.25477  1.0000
  S   S82       1.0  0.14938  0.93084  0.28153  1.0000
  S   S83       1.0  0.12649  0.85646  0.27823  1.0000
  Fe  Fe44      1.0  0.12156  0.57866  0.29275  1.0000
  C   C243      1.0  0.13268  0.96561  0.98282  1.0000
  Fe  Fe45      1.0  0.18241  0.55677  0.27523  1.0000
  S   S84       1.0  0.21572  0.57938  0.29339  1.0000
  S   S85       1.0  0.20367  0.53069  0.25384  1.0000
  Fe  Fe46      1.0  0.18276  0.62135  0.29233  1.0000
  H   H295      1.0  0.24151  0.50592  0.22826  1.0000
  S   S86       1.0  0.15057  0.53318  0.29367  1.0000
  S   S87       1.0  0.15149  0.59986  0.27303  1.0000
  C   C244      1.0  0.02799  0.57460  0.29510  1.0000
  C   C245      1.0  0.14889  0.98682  0.99342  1.0000
  C   C246      1.0  0.24398  0.52395  0.17398  1.0000
  H   H296      1.0  0.29306  0.61765  0.25362  1.0000
  C   C247      1.0  0.31279  0.53935  0.25313  1.0000
  C   C248      1.0  0.01682  0.90734  0.29199  1.0000
  C   C249      1.0  0.17151  0.50722  0.19089  1.0000
  N   N17       1.0  0.20977  0.52484  0.16915  1.0000
  C   C250      1.0  0.39835  0.55694  0.22550  1.0000
  H   H297      1.0  0.38924  0.59822  0.20227  1.0000
  H   H298      1.0  0.00956  0.51610  0.27013  1.0000
  H   H299      1.0  0.27178  0.50390  0.07348  1.0000
  H   H300      1.0  0.23472  0.92730  0.18054  1.0000
  H   H301      1.0  0.17991  0.55357  0.15420  1.0000
  C   C251      1.0  0.21200  0.97607  0.09211  1.0000
  N   N18       1.0  0.36670  0.56791  0.21973  1.0000
  C   C252      1.0  0.46131  0.55503  0.16582  1.0000
  C   C253      1.0  0.46741  0.55307  0.14953  1.0000
  H   H302      1.0  0.28323  0.92572  0.30730  1.0000
  H   H303      1.0  0.44754  0.55125  0.14119  1.0000
  C   C254      1.0  0.20700  0.73492  0.29525  1.0000
  C   C255      1.0  0.26025  0.57975  0.21375  1.0000
  C   C256      1.0  0.24408  0.59821  0.22512  1.0000
  C   C257      1.0  0.22711  0.58359  0.23757  1.0000
  C   C258      1.0  0.22585  0.55022  0.23873  1.0000
  C   C259      1.0  0.24222  0.53174  0.22742  1.0000
  C   C260      1.0  0.25959  0.54639  0.21509  1.0000
  H   H304      1.0  0.24458  0.62402  0.22427  1.0000
  H   H305      1.0  0.21472  0.59813  0.24619  1.0000
  C   C261      1.0  0.48770  0.55703  0.17643  1.0000
  H   H306      1.0  0.27238  0.53184  0.20668  1.0000
  C   C262      1.0  0.46087  0.89663  0.15401  1.0000
  H   H307      1.0  0.40779  0.57276  0.23528  1.0000
  C   C263      1.0  0.46803  0.92127  0.16500  1.0000
  C   C264      1.0  0.48663  0.88001  0.14724  1.0000
  C   C265      1.0  0.26582  0.91636  0.21328  1.0000
  C   C266      1.0  0.26075  0.93066  0.22825  1.0000
  C   C267      1.0  0.23714  0.91843  0.23861  1.0000
  C   C268      1.0  0.21782  0.89212  0.23394  1.0000
  C   C269      1.0  0.22242  0.87837  0.21880  1.0000
  C   C270      1.0  0.24657  0.88999  0.20867  1.0000
  H   H308      1.0  0.27541  0.95113  0.23194  1.0000
  H   H309      1.0  0.23386  0.92941  0.25016  1.0000
  H   H310      1.0  0.20730  0.85841  0.21489  1.0000
  H   H311      1.0  0.25008  0.87864  0.19723  1.0000
  C   C271      1.0  0.30873  0.75791  0.15750  1.0000
  C   C272      1.0  0.29714  0.72816  0.16280  1.0000
  C   C273      1.0  0.30806  0.69939  0.15608  1.0000
  C   C274      1.0  0.33034  0.70015  0.14379  1.0000
  C   C275      1.0  0.34206  0.72990  0.13852  1.0000
  C   C276      1.0  0.33141  0.75870  0.14538  1.0000
  H   H312      1.0  0.27955  0.72734  0.17214  1.0000
  H   H313      1.0  0.29880  0.67664  0.16020  1.0000
  H   H314      1.0  0.35924  0.73068  0.12899  1.0000
  H   H315      1.0  0.34056  0.78145  0.14121  1.0000
  H   H316      1.0  0.43232  0.62350  0.15662  1.0000
  H   H317      1.0  0.23988  0.87970  0.98458  1.0000
  H   H318      1.0  0.25273  0.54741  0.17888  1.0000
  C   C277      1.0  0.29775  0.56741  0.25771  1.0000
  C   C278      1.0  0.27707  0.55352  0.99937  1.0000
  H   H319      1.0  0.23158  0.73464  0.29123  1.0000
  H   H320      1.0  0.33050  0.55226  0.20296  1.0000
  S   S88       1.0  0.05613  0.91972  0.28583  1.0000
  N   N19       1.0  0.19619  0.77185  0.24858  1.0000
  C   C279      1.0  0.16747  0.78760  0.24198  1.0000
  C   C280      1.0  0.18527  0.74131  0.25583  1.0000
  C   C281      1.0  0.20996  0.79243  0.26155  1.0000
  C   C282      1.0  0.22001  0.76756  0.23581  1.0000
  C   C283      1.0  0.22878  0.73696  0.22982  1.0000
  C   C284      1.0  0.23422  0.79466  0.22847  1.0000
  C   C285      1.0  0.25025  0.73404  0.21721  1.0000
  C   C286      1.0  0.25555  0.79149  0.21587  1.0000
  C   C287      1.0  0.26348  0.76124  0.21021  1.0000
  H   H321      1.0  0.15621  0.77297  0.23223  1.0000
  H   H322      1.0  0.14902  0.79174  0.25124  1.0000
  H   H323      1.0  0.17341  0.81149  0.23702  1.0000
  H   H324      1.0  0.17229  0.72544  0.24711  1.0000
  H   H325      1.0  0.16823  0.74549  0.26574  1.0000
  H   H326      1.0  0.20578  0.72801  0.26095  1.0000
  H   H327      1.0  0.21644  0.81693  0.25758  1.0000
  H   H328      1.0  0.19241  0.79609  0.27125  1.0000
  H   H329      1.0  0.23190  0.78175  0.26674  1.0000
  H   H330      1.0  0.21934  0.71491  0.23461  1.0000
  H   H331      1.0  0.22865  0.81864  0.23233  1.0000
  H   H332      1.0  0.25659  0.71053  0.21274  1.0000
  H   H333      1.0  0.26588  0.81264  0.21038  1.0000
  H   H334      1.0  0.27987  0.75899  0.20033  1.0000
  H   H335      1.0  0.14080  0.53303  0.98670  1.0000
  C   C288      1.0  0.22235  0.95016  0.10144  1.0000
  H   H336      1.0  0.34627  0.51732  0.23782  1.0000
  C   C289      1.0  0.27438  0.52667  0.00908  1.0000
  C   C290      1.0  0.35482  0.54544  0.20714  1.0000
  C   C291      1.0  0.44708  0.64324  0.15235  1.0000
  C   C292      1.0  0.14412  0.73578  0.30620  1.0000
  H   H337      1.0  0.20435  0.98874  0.19116  1.0000
  C   C293      1.0  0.18908  0.70615  0.29584  1.0000
  S   S89       1.0  0.27447  0.50874  0.13248  1.0000
  C   C294      1.0  0.37190  0.59959  0.21226  1.0000
  H   H338      1.0  0.01955  0.59621  0.23937  1.0000
  H   H339      1.0  0.35319  0.52030  0.21117  1.0000
  C   C295      1.0  0.99867  0.53341  0.26235  1.0000
  H   H340      1.0  0.44074  0.72004  0.14042  1.0000
  H   H341      1.0  0.40729  0.67503  0.15005  1.0000
  C   C296      1.0  0.25790  0.55591  0.98580  1.0000
  H   H342      1.0  0.04591  0.98004  0.30760  1.0000
  H   H343      1.0  0.21864  0.54495  0.14604  1.0000
  C   C297      1.0  0.15858  0.54336  0.21251  1.0000
  C   C298      1.0  0.20570  0.55045  0.15726  1.0000
  H   H344      1.0  0.19027  0.97369  0.08501  1.0000
  C   C299      1.0  0.00112  0.59345  0.29158  1.0000
  H   H345      1.0  0.23277  0.99447  0.13791  1.0000
  H   H346      1.0  0.27636  0.96271  0.17130  1.0000
  C   C300      1.0  0.34353  0.56844  0.23295  1.0000
  C   C301      1.0  0.32784  0.59672  0.23799  1.0000
  H   H347      1.0  0.25954  0.51797  0.16380  1.0000
  H   H348      1.0  0.22319  0.84030  0.98288  1.0000
  N   N20       1.0  0.26010  0.81084  0.11351  1.0000
  C   C302      1.0  0.22703  0.81505  0.10733  1.0000
  C   C303      1.0  0.26153  0.82200  0.13027  1.0000
  C   C304      1.0  0.28189  0.83214  0.10436  1.0000
  C   C305      1.0  0.26856  0.77657  0.11255  1.0000
  C   C306      1.0  0.25121  0.75351  0.12146  1.0000
  C   C307      1.0  0.29399  0.76506  0.10302  1.0000
  C   C308      1.0  0.25908  0.72113  0.12103  1.0000
  C   C309      1.0  0.30150  0.73255  0.10261  1.0000
  C   C310      1.0  0.28410  0.71067  0.11159  1.0000
  H   H349      1.0  0.20891  0.80182  0.11444  1.0000
  H   H350      1.0  0.22019  0.84075  0.10765  1.0000
  H   H351      1.0  0.22473  0.80628  0.09484  1.0000
  H   H352      1.0  0.24326  0.81023  0.13784  1.0000
  H   H353      1.0  0.25770  0.84825  0.13141  1.0000
  H   H354      1.0  0.28529  0.81673  0.13560  1.0000
  H   H355      1.0  0.28086  0.82643  0.09144  1.0000
  H   H356      1.0  0.27535  0.85782  0.10565  1.0000
  H   H357      1.0  0.30718  0.83057  0.10867  1.0000
  H   H358      1.0  0.23189  0.76043  0.12915  1.0000
  H   H359      1.0  0.30891  0.78069  0.09601  1.0000
  H   H360      1.0  0.24637  0.70411  0.12839  1.0000
  H   H361      1.0  0.32155  0.72427  0.09567  1.0000
  H   H362      1.0  0.29076  0.68567  0.11164  1.0000
  H   H363      1.0  0.04390  0.55589  0.25674  1.0000
  C   C311      1.0  0.27300  0.50698  0.09911  1.0000
  H   H364      1.0  0.48154  0.86098  0.13870  1.0000
  H   H365      1.0  0.20829  0.92814  0.10138  1.0000
  H   H366      1.0  0.39720  0.53209  0.23002  1.0000
  C   C312      1.0  0.25056  0.95246  0.11084  1.0000
  H   H367      1.0  0.17917  0.59070  0.21134  1.0000
  C   C313      1.0  0.30547  0.59605  0.25026  1.0000
  C   C314      1.0  0.19259  0.56165  0.19125  1.0000
  C   C315      1.0  0.19047  0.53131  0.18346  1.0000
  C   C316      1.0  0.15752  0.70665  0.30127  1.0000
  C   C317      1.0  0.21668  0.93854  0.17263  1.0000
  H   H368      1.0  0.26015  0.95714  0.15179  1.0000
  N   N21       1.0  0.22572  0.97223  0.16923  1.0000
  C   C318      1.0  0.22705  0.99065  0.18442  1.0000
  C   C319      1.0  0.14695  0.51051  0.98113  1.0000
  S   S90       1.0  0.06734  0.58953  0.29038  1.0000
  H   H369      1.0  0.48341  0.55834  0.18905  1.0000
  H   H370      1.0  0.38191  0.61762  0.22088  1.0000
  C   C320      1.0  0.48008  0.63940  0.15040  1.0000
  C   C321      1.0  0.25237  0.50118  0.00530  1.0000
  H   H371      1.0  0.21498  0.92395  0.16147  1.0000
  C   C322      1.0  0.16910  0.98861  0.16314  1.0000
  H   H372      1.0  0.21580  0.57395  0.16137  1.0000
  S   S91       1.0  0.20744  0.67018  0.29003  1.0000
  H   H373      1.0  0.20795  0.58067  0.18688  1.0000
  C   C323      1.0  0.33551  0.53978  0.24103  1.0000
  H   H374      1.0  0.24613  0.98167  0.19255  1.0000
  H   H375      1.0  0.20766  0.78601  0.29985  1.0000
  Fe  Fe47      1.0  0.17419  0.91870  0.30470  1.0000
  C   C324      1.0  0.45191  0.69749  0.14318  1.0000
  H   H376      1.0  0.34916  0.60878  0.20711  1.0000
  H   H377      1.0  0.09767  0.96623  0.30013  1.0000
  C   C325      1.0  0.19346  0.76407  0.29999  1.0000
  C   C326      1.0  0.17651  0.56758  0.20542  1.0000
  H   H378      1.0  0.33165  0.61951  0.23236  1.0000
  C   C327      1.0  0.20154  0.98587  0.15835  1.0000
  C   C328      1.0  0.23331  0.50447  0.99138  1.0000
  C   C329      1.0  0.02257  0.54438  0.30167  1.0000
  C   C330      1.0  0.25870  0.97241  0.16269  1.0000
  C   C331      1.0  0.00426  0.57867  0.24512  1.0000
  H   H379      1.0  0.44869  0.93449  0.17026  1.0000
  C   C332      1.0  0.16193  0.76461  0.30547  1.0000
  C   C333      1.0  0.26829  0.98130  0.11073  1.0000
  H   H380      1.0  0.41644  0.55694  0.21581  1.0000
  H   H381      1.0  0.19331  0.93636  0.17878  1.0000
  C   C334      1.0  0.43298  0.67221  0.14868  1.0000
  H   H382      1.0  0.29388  0.57277  0.00249  1.0000
  H   H383      1.0  0.28953  0.52661  0.01955  1.0000
  H   H384      1.0  0.14748  0.54766  0.22392  1.0000
  C   C335      1.0  0.23604  0.53144  0.98182  1.0000
  C   C336      1.0  0.01179  0.88518  0.30409  1.0000
  H   H385      1.0  0.00489  0.61682  0.28648  1.0000
  H   H386      1.0  0.27942  0.56680  0.26676  1.0000
  H   H387      1.0  0.10872  0.95721  0.98566  1.0000
  H   H388      1.0  0.16156  0.98099  0.17475  1.0000
  H   H389      1.0  0.04279  0.52951  0.30445  1.0000
  H   H390      1.0  0.37100  0.54535  0.19670  1.0000
  H   H391      1.0  0.29010  0.98362  0.11776  1.0000
  H   H392      1.0  0.48980  0.61648  0.15335  1.0000
  C   C337      1.0  0.10886  0.97774  0.31086  1.0000
  H   H393      1.0  0.30620  0.51704  0.25879  1.0000
  C   C338      1.0  0.48499  0.69383  0.14112  1.0000
  H   H394      1.0  0.24799  0.50563  0.18322  1.0000
  H   H395      1.0  0.25972  0.57688  0.97839  1.0000
  H   H396      1.0  0.14357  0.68458  0.30186  1.0000
  H   H397      1.0  0.11983  0.73599  0.31062  1.0000
  H   H398      1.0  0.03219  0.87425  0.30974  1.0000
  C   C339      1.0  0.20896  0.99596  0.14273  1.0000
  C   C340      1.0  0.48558  0.95579  0.48814  1.0000
  C   C341      1.0  0.21679  0.97226  0.33605  1.0000
  H   H399      1.0  0.43312  0.86150  0.52648  1.0000
  H   H400      1.0  0.12927  0.70578  0.33866  1.0000
  C   C342      1.0  0.45992  0.58401  0.51360  1.0000
  S   S92       1.0  0.20419  0.54476  0.33628  1.0000
  Fe  Fe48      1.0  0.38275  0.57573  0.55183  1.0000
  S   S93       1.0  0.36470  0.60007  0.52999  1.0000
  S   S94       1.0  0.43407  0.59163  0.55773  1.0000
  Fe  Fe49      1.0  0.31708  0.54302  0.55778  1.0000
  S   S95       1.0  0.29558  0.56577  0.53593  1.0000
  C   C343      1.0  0.45922  0.76015  0.54467  1.0000
  Fe  Fe50      1.0  0.34125  0.55249  0.52351  1.0000
  S   S96       1.0  0.35351  0.53561  0.49823  1.0000
  Fe  Fe51      1.0  0.32123  0.61156  0.54421  1.0000
  S   S97       1.0  0.29473  0.65963  0.54354  1.0000
  S   S98       1.0  0.36183  0.52758  0.54475  1.0000
  S   S99       1.0  0.34019  0.58948  0.56667  1.0000
  Fe  Fe52      1.0  0.33516  0.85977  0.54543  1.0000
  S   S100      1.0  0.36093  0.89364  0.56270  1.0000
  S   S101      1.0  0.34671  0.80610  0.54902  1.0000
  Fe  Fe53      1.0  0.31666  0.91724  0.52417  1.0000
  S   S102      1.0  0.34101  0.95367  0.54019  1.0000
  S   S103      1.0  0.29553  0.92999  0.49988  1.0000
  Fe  Fe54      1.0  0.38095  0.91825  0.54140  1.0000
  S   S104      1.0  0.43171  0.93277  0.53446  1.0000
  Fe  Fe55      1.0  0.31827  0.92648  0.56038  1.0000
  S   S105      1.0  0.30268  0.95276  0.58347  1.0000
  S   S106      1.0  0.35781  0.88331  0.52430  1.0000
  S   S107      1.0  0.29120  0.89118  0.54418  1.0000
  C   C344      1.0  0.26935  0.97283  0.59235  1.0000
  H   H401      1.0  0.44822  0.83293  0.55926  1.0000
  H   H402      1.0  0.41631  0.80343  0.55733  1.0000
  H   H403      1.0  0.08437  0.98926  0.62999  1.0000
  H   H404      1.0  0.24418  0.53978  0.36423  1.0000
  C   C345      1.0  0.14526  0.63080  0.35115  1.0000
  H   H405      1.0  0.23557  0.65303  0.56571  1.0000
  C   C346      1.0  0.30921  0.96124  0.48730  1.0000
  H   H406      1.0  0.39942  0.99613  0.36167  1.0000
  C   C347      1.0  0.16451  0.56967  0.59929  1.0000
  C   C348      1.0  0.48254  0.73682  0.54659  1.0000
  N   N22       1.0  0.35036  0.98361  0.35524  1.0000
  C   C349      1.0  0.46360  0.90261  0.55892  1.0000
  C   C350      1.0  0.46598  0.91923  0.54467  1.0000
  H   H407      1.0  0.42288  0.51095  0.51048  1.0000
  H   H408      1.0  0.44034  0.89878  0.56424  1.0000
  H   H409      1.0  0.12994  0.96309  0.31386  1.0000
  H   H410      1.0  0.22165  0.53706  0.56726  1.0000
  H   H411      1.0  0.23657  0.52197  0.62363  1.0000
  H   H412      1.0  0.14283  0.96788  0.33956  1.0000
  H   H413      1.0  0.18633  0.70654  0.33403  1.0000
  S   S108      1.0  0.13078  0.89142  0.31349  1.0000
  N   N23       1.0  0.45120  0.55323  0.50547  1.0000
  H   H414      1.0  0.19446  0.64379  0.57003  1.0000
  C   C351      1.0  0.33153  0.76562  0.54712  1.0000
  C   C352      1.0  0.35223  0.74018  0.55052  1.0000
  C   C353      1.0  0.34168  0.70780  0.54921  1.0000
  C   C354      1.0  0.30996  0.70019  0.54468  1.0000
  C   C355      1.0  0.28921  0.72561  0.54134  1.0000
  C   C356      1.0  0.29989  0.75800  0.54244  1.0000
  H   H415      1.0  0.37658  0.74551  0.55436  1.0000
  H   H416      1.0  0.35797  0.68874  0.55196  1.0000
  H   H417      1.0  0.26462  0.72025  0.53785  1.0000
  H   H418      1.0  0.28354  0.77707  0.53980  1.0000
  C   C357      1.0  0.45916  0.96109  0.47777  1.0000
  H   H419      1.0  0.23719  0.94127  0.37198  1.0000
  H   H420      1.0  0.47141  0.58059  0.52537  1.0000
  H   H421      1.0  0.24161  0.66751  0.36382  1.0000
  C   C358      1.0  0.16265  0.50159  0.37989  1.0000
  H   H422      1.0  0.31796  0.96380  0.37239  1.0000
  C   C359      1.0  0.46834  0.56735  0.55780  1.0000
  C   C360      1.0  0.46609  0.53393  0.55827  1.0000
  H   H423      1.0  0.18028  0.61645  0.59350  1.0000
  C   C361      1.0  0.32043  0.92098  0.32504  1.0000
  H   H424      1.0  0.23010  0.60648  0.33225  1.0000
  N   N24       1.0  0.08590  0.98018  0.32415  1.0000
  C   C362      1.0  0.49632  0.92429  0.53795  1.0000
  C   C363      1.0  0.22012  0.94986  0.34813  1.0000
  H   H425      1.0  0.21140  0.92555  0.34621  1.0000
  N   N25       1.0  0.42583  0.95588  0.48333  1.0000
  C   C364      1.0  0.33239  0.96853  0.34175  1.0000
  C   C365      1.0  0.20529  0.54718  0.57577  1.0000
  C   C366      1.0  0.49418  0.51566  0.55805  1.0000
  C   C367      1.0  0.22079  0.59757  0.55224  1.0000
  H   H426      1.0  0.27368  0.64969  0.35278  1.0000
  H   H427      1.0  0.48185  0.94832  0.50022  1.0000
  H   H428      1.0  0.37531  0.51344  0.46795  1.0000
  H   H429      1.0  0.28353  0.94218  0.46684  1.0000
  H   H430      1.0  0.26615  0.57180  0.57039  1.0000
  S   S109      1.0  0.19878  0.96246  0.31717  1.0000
  H   H431      1.0  0.10186  0.65767  0.34925  1.0000
  H   H432      1.0  0.15319  0.51996  0.60352  1.0000
  C   C368      1.0  0.40110  0.96008  0.47071  1.0000
  H   H433      1.0  0.09832  0.93466  0.33425  1.0000
  C   C369      1.0  0.18143  0.50465  0.40721  1.0000
  H   H434      1.0  0.41025  0.57567  0.49463  1.0000
  H   H435      1.0  0.22787  0.57325  0.54831  1.0000
  H   H436      1.0  0.42822  0.90475  0.48027  1.0000
  C   C370      1.0  0.33788  0.93615  0.33736  1.0000
  C   C371      1.0  0.23630  0.63063  0.32774  1.0000
  H   H437      1.0  0.22191  0.63385  0.31672  1.0000
  C   C372      1.0  0.29927  0.96123  0.47128  1.0000
  H   H438      1.0  0.19078  0.60870  0.35110  1.0000
  H   H439      1.0  0.26200  0.63007  0.32432  1.0000
  H   H440      1.0  0.27030  0.53841  0.60083  1.0000
  C   C373      1.0  0.12764  0.65784  0.34760  1.0000
  H   H441      1.0  0.43520  0.75456  0.54866  1.0000
  C   C374      1.0  0.24413  0.51659  0.35839  1.0000
  C   C375      1.0  0.30958  0.98558  0.46092  1.0000
  C   C376      1.0  0.23490  0.95888  0.36275  1.0000
  C   C377      1.0  0.16173  0.51569  0.39495  1.0000
  H   H442      1.0  0.42304  0.79152  0.51404  1.0000
  H   H443      1.0  0.14594  0.53561  0.39706  1.0000
  C   C378      1.0  0.24688  0.99027  0.36552  1.0000
  H   H444      1.0  0.05929  0.94837  0.33926  1.0000
  C   C379      1.0  0.14309  0.68487  0.34162  1.0000
  H   H445      1.0  0.26238  0.50032  0.40888  1.0000
  H   H446      1.0  0.26323  0.59885  0.58691  1.0000
  H   H447      1.0  0.46122  0.83858  0.51539  1.0000
  H   H448      1.0  0.03695  0.99554  0.32678  1.0000
  H   H449      1.0  0.47614  0.71401  0.55183  1.0000
  H   H450      1.0  0.27331  0.98219  0.31394  1.0000
  H   H451      1.0  0.43572  0.97612  0.50670  1.0000
  C   C380      1.0  0.13078  0.98880  0.34406  1.0000
  H   H452      1.0  0.43834  0.59857  0.51612  1.0000
  N   N26       1.0  0.44126  0.81411  0.53553  1.0000
  C   C381      1.0  0.42867  0.82361  0.55127  1.0000
  C   C382      1.0  0.45262  0.84370  0.52759  1.0000
  C   C383      1.0  0.41448  0.80023  0.52575  1.0000
  C   C384      1.0  0.46660  0.79006  0.53762  1.0000
  H   H453      1.0  0.19532  0.60082  0.54861  1.0000
  H   H454      1.0  0.22506  0.64372  0.58555  1.0000
  S   S110      1.0  0.28655  0.50477  0.57086  1.0000
  H   H455      1.0  0.47226  0.85590  0.53452  1.0000
  C   C385      1.0  0.07724  0.94755  0.32958  1.0000
  H   H456      1.0  0.41037  0.84265  0.55025  1.0000
  C   C386      1.0  0.03110  0.99022  0.59998  1.0000
  C   C387      1.0  0.18674  0.52570  0.58455  1.0000
  H   H457      1.0  0.43656  0.91872  0.50021  1.0000
  H   H458      1.0  0.23738  0.96896  0.57221  1.0000
  H   H459      1.0  0.29467  0.98111  0.61450  1.0000
  H   H460      1.0  0.39535  0.81803  0.52360  1.0000
  C   C388      1.0  0.24037  0.97786  0.58425  1.0000
  C   C389      1.0  0.25904  0.59641  0.57388  1.0000
  C   C390      1.0  0.42173  0.92286  0.48942  1.0000
  H   H461      1.0  0.33664  0.98689  0.50526  1.0000
  C   C391      1.0  0.29723  0.93760  0.31666  1.0000
  H   H462      1.0  0.35291  0.94034  0.36911  1.0000
  N   N27       1.0  0.22985  0.65645  0.33945  1.0000
  C   C392      1.0  0.48048  0.53522  0.50160  1.0000
  C   C393      1.0  0.22703  0.51223  0.34395  1.0000
  C   C394      1.0  0.38531  0.98362  0.35201  1.0000
  C   C395      1.0  0.19489  0.65765  0.34240  1.0000
  H   H463      1.0  0.14894  0.57818  0.60861  1.0000
  C   C396      1.0  0.27249  0.98476  0.60805  1.0000
  C   C397      1.0  0.16664  0.53687  0.59639  1.0000
  C   C398      1.0  0.17620  0.68496  0.33902  1.0000
  C   C399      1.0  0.18278  0.59146  0.59048  1.0000
  H   H464      1.0  0.27583  0.61335  0.56793  1.0000
  S   S111      1.0  0.15176  0.60311  0.31197  1.0000
  C   C400      1.0  0.33734  0.50603  0.48479  1.0000
  C   C401      1.0  0.43137  0.56105  0.49134  1.0000
  H   H465      1.0  0.22687  0.50991  0.43217  1.0000
  H   H466      1.0  0.48953  0.87852  0.57744  1.0000
  H   H467      1.0  0.35630  0.97651  0.38043  1.0000
  C   C402      1.0  0.29171  0.96954  0.32041  1.0000
  H   H468      1.0  0.44276  0.52222  0.55892  1.0000
  H   H469      1.0  0.39071  0.99616  0.34074  1.0000
  H   H470      1.0  0.44816  0.97719  0.45357  1.0000
  H   H471      1.0  0.13310  0.60949  0.35544  1.0000
  H   H472      1.0  0.18894  0.50012  0.58257  1.0000
  H   H473      1.0  0.24077  0.62544  0.35907  1.0000
  H   H474      1.0  0.47667  0.59859  0.50632  1.0000
  C   C403      1.0  0.35350  0.50014  0.47047  1.0000
  C   C404      1.0  0.46651  0.97189  0.46224  1.0000
  H   H475      1.0  0.40495  0.94373  0.46041  1.0000
  H   H476      1.0  0.40209  0.77984  0.53161  1.0000
  H   H477      1.0  0.39646  0.91782  0.49305  1.0000
  H   H478      1.0  0.23594  0.61455  0.54528  1.0000
  H   H479      1.0  0.23995  0.70726  0.34140  1.0000
  H   H480      1.0  0.26981  0.68516  0.33104  1.0000
  H   H481      1.0  0.44536  0.57504  0.48256  1.0000
  C   C405      1.0  0.20396  0.58076  0.57846  1.0000
  C   C406      1.0  0.21959  0.63727  0.57294  1.0000
  C   C407      1.0  0.24719  0.64951  0.35444  1.0000
  H   H482      1.0  0.39452  0.97524  0.50111  1.0000
  N   N28       1.0  0.22523  0.60282  0.56959  1.0000
  C   C408      1.0  0.49147  0.89112  0.56635  1.0000
  H   H483      1.0  0.14799  0.51067  0.37029  1.0000
  H   H484      1.0  0.37648  0.95453  0.47505  1.0000
  C   C409      1.0  0.41916  0.97886  0.49638  1.0000
  C   C410      1.0  0.17837  0.63062  0.34862  1.0000
  S   S112      1.0  0.14524  0.80020  0.31296  1.0000
  H   H485      1.0  0.40057  0.98524  0.46647  1.0000
  H   H486      1.0  0.23256  0.69245  0.32139  1.0000
  H   H487      1.0  0.09592  0.97301  0.60223  1.0000
  C   C411      1.0  0.24035  0.50520  0.61398  1.0000
  C   C412      1.0  0.25954  0.51468  0.60100  1.0000
  C   C413      1.0  0.21509  0.99427  0.59177  1.0000
  C   C414      1.0  0.24353  0.68674  0.33310  1.0000
  H   H488      1.0  0.17982  0.51695  0.41850  1.0000
  H   H489      1.0  0.04452  0.97306  0.59319  1.0000
  H   H490      1.0  0.39487  0.95905  0.35103  1.0000
  H   H491      1.0  0.32465  0.89610  0.32205  1.0000
  C   C415      1.0  0.30891  0.98494  0.33275  1.0000
  H   H492      1.0  0.35546  0.92219  0.34358  1.0000
  H   H493      1.0  0.06673  0.93247  0.31974  1.0000
  C   C416      1.0  0.32931  0.98621  0.49290  1.0000
  C   C417      1.0  0.34417  0.96522  0.36988  1.0000
  C   C418      1.0  0.05618  0.99458  0.31773  1.0000
  H   H494      1.0  0.44368  0.52810  0.52743  1.0000
  C   C419      1.0  0.48655  0.52266  0.48616  1.0000
  H   H495      1.0  0.40897  0.54688  0.51967  1.0000
  H   H496      1.0  0.30171  0.98516  0.44864  1.0000
  C   C420      1.0  0.43095  0.53391  0.51623  1.0000
  H   H497      1.0  0.47003  0.52546  0.47634  1.0000
  H   H498      1.0  0.42098  0.53911  0.48548  1.0000
  Fe  Fe56      1.0  0.18275  0.55893  0.31185  1.0000
  C   C421      1.0  0.99768  0.98583  0.59996  1.0000
  Fe  Fe57      1.0  0.15565  0.55908  0.92776  1.0000
  S   S113      1.0  0.13299  0.52814  0.90856  1.0000
  S   S114      1.0  0.15594  0.54663  0.95429  1.0000
  Fe  Fe58      1.0  0.16936  0.61495  0.90499  1.0000
  S   S115      1.0  0.14794  0.58672  0.88446  1.0000
  S   S116      1.0  0.19015  0.66463  0.89831  1.0000
  Fe  Fe59      1.0  0.10839  0.57276  0.90091  1.0000
  S   S117      1.0  0.05956  0.57699  0.88902  1.0000
  Fe  Fe60      1.0  0.17435  0.54386  0.89314  1.0000
  C   C422      1.0  0.02167  0.65291  0.90845  1.0000
  S   S118      1.0  0.12803  0.60339  0.92099  1.0000
  S   S119      1.0  0.19891  0.57264  0.91293  1.0000
  Fe  Fe61      1.0  0.15687  0.86034  0.91015  1.0000
  S   S120      1.0  0.13571  0.88390  0.88855  1.0000
  S   S121      1.0  0.14815  0.80768  0.91740  1.0000
  Fe  Fe62      1.0  0.17448  0.92661  0.92565  1.0000
  S   S122      1.0  0.15520  0.95380  0.90489  1.0000
  S   S123      1.0  0.19688  0.95411  0.94685  1.0000
  Fe  Fe63      1.0  0.11336  0.91874  0.90561  1.0000
  S   S124      1.0  0.06300  0.93712  0.90988  1.0000
  Fe  Fe64      1.0  0.17964  0.91733  0.88949  1.0000
  S   S125      1.0  0.20756  0.92697  0.86634  1.0000
  S   S126      1.0  0.13183  0.89369  0.92710  1.0000
  S   S127      1.0  0.20183  0.89165  0.91038  1.0000
  C   C423      1.0  0.22858  0.95996  0.85731  1.0000
  H   H499      1.0  0.48997  0.94076  0.83050  1.0000
  H   H500      1.0  0.23536  0.93402  0.83536  1.0000
  C   C424      1.0  0.46606  0.95032  0.83156  1.0000
  H   H501      1.0  0.18996  0.63818  0.86425  1.0000
  C   C425      1.0  0.28930  0.57661  0.82834  1.0000
  C   C426      1.0  0.02318  0.90375  0.88846  1.0000
  C   C427      1.0  0.02566  0.92212  0.90243  1.0000
  H   H502      1.0  0.22254  0.60816  0.88434  1.0000
  H   H503      1.0  0.04455  0.89851  0.88182  1.0000
  H   H504      1.0  0.25593  0.58486  0.87782  1.0000
  C   C428      1.0  0.14705  0.95530  0.96860  1.0000
  H   H505      1.0  0.17761  0.85787  0.96652  1.0000
  H   H506      1.0  0.13427  0.93891  0.96064  1.0000
  H   H507      1.0  0.21578  0.57193  0.87317  1.0000
  H   H508      1.0  0.07763  0.79974  0.92684  1.0000
  H   H509      1.0  0.02193  0.77120  0.89444  1.0000
  C   C429      1.0  0.00687  0.61395  0.92802  1.0000
  C   C430      1.0  0.21213  0.80756  0.95473  1.0000
  C   C431      1.0  0.41262  0.94783  0.84268  1.0000
  C   C432      1.0  0.09358  0.49903  0.87179  1.0000
  N   N29       1.0  0.23310  0.61186  0.85944  1.0000
  C   C433      1.0  0.40347  0.97555  0.83425  1.0000
  C   C434      1.0  0.22935  0.56338  0.84143  1.0000
  C   C435      1.0  0.17709  0.70415  0.90335  1.0000
  C   C436      1.0  0.15504  0.70994  0.91544  1.0000
  C   C437      1.0  0.14654  0.74165  0.91947  1.0000
  C   C438      1.0  0.15949  0.76817  0.91137  1.0000
  C   C439      1.0  0.18117  0.76239  0.89912  1.0000
  C   C440      1.0  0.19007  0.73068  0.89526  1.0000
  H   H510      1.0  0.14497  0.68998  0.92190  1.0000
  H   H511      1.0  0.12998  0.74562  0.92906  1.0000
  H   H512      1.0  0.19149  0.78236  0.89277  1.0000
  H   H513      1.0  0.20720  0.72670  0.88592  1.0000
  C   C441      1.0  0.02227  0.54463  0.91082  1.0000
  C   C442      1.0  0.02317  0.56178  0.89670  1.0000
  H   H514      1.0  0.01379  0.59572  0.93637  1.0000
  H   H515      1.0  0.04426  0.54063  0.91737  1.0000
  H   H516      1.0  0.22643  0.99252  0.87722  1.0000
  H   H517      1.0  0.18293  0.60118  0.85413  1.0000
  H   H518      1.0  0.08670  0.84598  0.91017  1.0000
  H   H519      1.0  0.24102  0.65670  0.87212  1.0000
  H   H520      1.0  0.19218  0.89818  0.96879  1.0000
  H   H521      1.0  0.19987  0.63435  0.84356  1.0000
  C   C443      1.0  0.23994  0.95638  0.84167  1.0000
  H   H522      1.0  0.35748  0.97015  0.85813  1.0000
  H   H523      1.0  0.19781  0.80677  0.96533  1.0000
  C   C444      1.0  0.22898  0.83593  0.95037  1.0000
  C   C445      1.0  0.20012  0.62177  0.85511  1.0000
  H   H524      1.0  0.18479  0.88162  0.94934  1.0000
  C   C446      1.0  0.44352  0.93552  0.84129  1.0000
  H   H525      1.0  0.05555  0.62522  0.92164  1.0000
  H   H526      1.0  0.04022  0.66482  0.90165  1.0000
  C   C447      1.0  0.03966  0.79023  0.89126  1.0000
  C   C448      1.0  0.24638  0.59137  0.84672  1.0000
  C   C449      1.0  0.25234  0.64156  0.86277  1.0000
  H   H527      1.0  0.09510  0.82053  0.89380  1.0000
  C   C450      1.0  0.27683  0.59749  0.83976  1.0000
  C   C451      1.0  0.23176  0.59344  0.87433  1.0000
  H   H528      1.0  0.02889  0.80587  0.88208  1.0000
  H   H529      1.0  0.45005  0.91434  0.84778  1.0000
  C   C452      1.0  0.24778  0.89216  0.95472  1.0000
  C   C453      1.0  0.24662  0.80690  0.92653  1.0000
  H   H530      1.0  0.27355  0.88585  0.95406  1.0000
  H   H531      1.0  0.29171  0.61795  0.84307  1.0000
  H   H532      1.0  0.06471  0.85038  0.89201  1.0000
  H   H533      1.0  0.25908  0.85532  0.93131  1.0000
  N   N30       1.0  0.22772  0.86505  0.96056  1.0000
  N   N31       1.0  0.05041  0.80921  0.90544  1.0000
  C   C454      1.0  0.15448  0.50982  0.96487  1.0000
  C   C455      1.0  0.23017  0.77941  0.93130  1.0000
  C   C456      1.0  0.07517  0.83253  0.90013  1.0000
  C   C457      1.0  0.17789  0.96619  0.96474  1.0000
  H   H534      1.0  0.01221  0.87777  0.94487  1.0000
  H   H535      1.0  0.04747  0.76992  0.92168  1.0000
  H   H536      1.0  0.23018  0.75794  0.92392  1.0000
  H   H537      1.0  0.25932  0.80671  0.91537  1.0000
  H   H538      1.0  0.25957  0.52238  0.87540  1.0000
  C   C458      1.0  0.06551  0.78690  0.91672  1.0000
  C   C459      1.0  0.35630  0.99139  0.81947  1.0000
  H   H539      1.0  0.26504  0.97817  0.82199  1.0000
  C   C460      1.0  0.02412  0.82632  0.91343  1.0000
  C   C461      1.0  0.24617  0.83483  0.93587  1.0000
  H   H540      1.0  0.23949  0.90016  0.94283  1.0000
  H   H541      1.0  0.05500  0.84928  0.93152  1.0000
  H   H542      1.0  0.28196  0.53269  0.81495  1.0000
  C   C462      1.0  0.19444  0.98685  0.97548  1.0000
  C   C463      1.0  0.21282  0.77978  0.94531  1.0000
  H   H543      1.0  0.31275  0.58132  0.82334  1.0000
  H   H544      1.0  0.06011  0.77795  0.88550  1.0000
  H   H545      1.0  0.27675  0.63612  0.86738  1.0000
  S   S128      1.0  0.18966  0.50774  0.87373  1.0000
  H   H546      1.0  0.25449  0.65654  0.85200  1.0000
  H   H547      1.0  0.20663  0.55637  0.84656  1.0000
  C   C464      1.0  0.24191  0.54292  0.82990  1.0000
  C   C465      1.0  0.27194  0.54931  0.82349  1.0000
  H   H548      1.0  0.08459  0.77264  0.91094  1.0000
  H   H549      1.0  0.28136  0.49907  0.66581  1.0000
  C   C466      1.0  0.34870  0.97121  0.84564  1.0000
  H   H550      1.0  0.39635  0.93520  0.85039  1.0000
  H   H551      1.0  0.30497  0.50291  0.85919  1.0000
  H   H552      1.0  0.22877  0.52130  0.82631  1.0000
  C   C467      1.0  0.03044  0.63056  0.91973  1.0000
  H   H553      1.0  0.35514  0.96742  0.81355  1.0000
  H   H554      1.0  0.47534  0.98903  0.81554  1.0000
  C   C468      1.0  0.19413  0.87602  0.96138  1.0000
  C   C469      1.0  0.23480  0.98917  0.86522  1.0000
  H   H555      1.0  0.32471  0.98261  0.84617  1.0000
  H   H556      1.0  0.22074  0.53354  0.97138  1.0000
  C   C470      1.0  0.42708  0.98995  0.82446  1.0000
  H   H557      1.0  0.19922  0.75857  0.94866  1.0000
  C   C471      1.0  0.25686  0.98147  0.83402  1.0000
  H   H558      1.0  0.34437  0.94648  0.84092  1.0000
  N   N32       1.0  0.37122  0.98963  0.83550  1.0000
  C   C472      1.0  0.25512  0.50501  0.86599  1.0000
  H   H559      1.0  0.24624  0.91373  0.96261  1.0000
  C   C473      1.0  0.00640  0.86223  0.93481  1.0000
  H   H560      1.0  0.21842  0.99526  0.97269  1.0000
  C   C474      1.0  0.03077  0.84597  0.92699  1.0000
  H   H561      1.0  0.13144  0.98649  0.93874  1.0000
  H   H562      1.0  0.11691  0.50998  0.87579  1.0000
  H   H563      1.0  0.09156  0.50287  0.85878  1.0000
  C   C475      1.0  0.45783  0.97749  0.82316  1.0000
  H   H564      1.0  0.07425  0.51303  0.87746  1.0000
  H   H565      1.0  0.08547  0.97127  0.95725  1.0000
  C   C476      1.0  0.23911  0.85783  0.97684  1.0000
  H   H566      1.0  0.10294  0.98833  0.92278  1.0000
  H   H567      1.0  0.06190  0.97124  0.93932  1.0000
  H   H568      1.0  0.99913  0.94472  0.92118  1.0000
  C   C477      1.0  0.07078  0.98654  0.94943  1.0000
  C   C478      1.0  0.99750  0.93019  0.91048  1.0000
  H   H569      1.0  0.04909  0.99340  0.95609  1.0000
  H   H570      1.0  0.26371  0.84786  0.97664  1.0000
  Fe  Fe65      1.0  0.81295  0.33974  0.04862  1.0000
  S   S129      1.0  0.83913  0.36377  0.06924  1.0000
  S   S130      1.0  0.78574  0.29196  0.05230  1.0000
  Fe  Fe66      1.0  0.82962  0.39638  0.02597  1.0000
  S   S131      1.0  0.85707  0.42302  0.04520  1.0000
  S   S132      1.0  0.83307  0.40974  0.99972  1.0000
  Fe  Fe67      1.0  0.87763  0.37529  0.05140  1.0000
  S   S133      1.0  0.92896  0.35779  0.05168  1.0000
  Fe  Fe68      1.0  0.81565  0.40941  0.06129  1.0000
  S   S134      1.0  0.79014  0.44937  0.07532  1.0000
  S   S135      1.0  0.85223  0.34917  0.03137  1.0000
  S   S136      1.0  0.78725  0.38478  0.04145  1.0000
  Fe  Fe69      1.0  0.82707  0.09556  0.04685  1.0000
  S   S137      1.0  0.84867  0.07079  0.06801  1.0000
  S   S138      1.0  0.83881  0.14915  0.04280  1.0000
  Fe  Fe70      1.0  0.80892  0.03027  0.03053  1.0000
  H   H571      1.0  0.99220  0.07380  0.08500  1.0000
  N   N33       1.0  0.93207  0.44710  0.01115  1.0000
  Fe  Fe71      1.0  0.80465  0.03762  0.06696  1.0000
  S   S139      1.0  0.77691  0.02658  0.09006  1.0000
  Fe  Fe72      1.0  0.87053  0.03709  0.05032  1.0000
  H   H572      1.0  0.93698  0.40172  0.02291  1.0000
  S   S140      1.0  0.78195  0.06435  0.04656  1.0000
  S   S141      1.0  0.85173  0.06324  0.02922  1.0000
  C   C479      1.0  0.73410  0.47726  0.12082  1.0000
  H   H573      1.0  0.88479  0.46066  0.00325  1.0000
  H   H574      1.0  0.89979  0.16875  0.05384  1.0000
  H   H575      1.0  0.98588  0.22907  0.07789  1.0000
  C   C480      1.0  0.66431  0.03222  0.10256  1.0000
  H   H576      1.0  0.93707  0.45245  0.03676  1.0000
  H   H577      1.0  0.98466  0.09999  0.04677  1.0000
  C   C481      1.0  0.81027  0.47189  0.99655  1.0000
  C   C482      1.0  0.95778  0.03244  0.05391  1.0000
  C   C483      1.0  0.96011  0.05022  0.06806  1.0000
  H   H578      1.0  0.98489  0.43574  0.02990  1.0000
  H   H579      1.0  0.93864  0.05555  0.07462  1.0000
  C   C484      1.0  0.76608  0.43821  0.10588  1.0000
  C   C485      1.0  0.76955  0.45949  0.09327  1.0000
  C   C486      1.0  0.92677  0.46477  0.02631  1.0000
  H   H580      1.0  0.74566  0.43011  0.12900  1.0000
  C   C487      1.0  0.99363  0.12302  0.04302  1.0000
  H   H581      1.0  0.63020  0.02462  0.12077  1.0000
  C   C488      1.0  0.80109  0.25239  0.04985  1.0000
  C   C489      1.0  0.78180  0.22571  0.05396  1.0000
  C   C490      1.0  0.79284  0.19403  0.05204  1.0000
  C   C491      1.0  0.82335  0.18851  0.04585  1.0000
  C   C492      1.0  0.84261  0.21521  0.04175  1.0000
  C   C493      1.0  0.83169  0.24685  0.04380  1.0000
  H   H582      1.0  0.75807  0.22952  0.05861  1.0000
  H   H583      1.0  0.77763  0.17391  0.05522  1.0000
  H   H584      1.0  0.86612  0.21145  0.03685  1.0000
  H   H585      1.0  0.84684  0.26696  0.04052  1.0000
  C   C494      1.0  0.82612  0.44614  0.98957  1.0000
  C   C495      1.0  0.96462  0.38110  0.05218  1.0000
  C   C496      1.0  0.96815  0.40806  0.06206  1.0000
  C   C497      1.0  0.92611  0.17113  0.05181  1.0000
  H   H586      1.0  0.94794  0.41632  0.06885  1.0000
  H   H587      1.0  0.81408  0.48973  0.22898  1.0000
  C   C498      1.0  0.70275  0.46987  0.18563  1.0000
  H   H588      1.0  0.93822  0.16937  0.06359  1.0000
  H   H589      1.0  0.93010  0.19576  0.04734  1.0000
  C   C499      1.0  0.92587  0.11466  0.04655  1.0000
  N   N34       1.0  0.72274  0.35301  0.07819  1.0000
  C   C500      1.0  0.75730  0.36042  0.08087  1.0000
  C   C501      1.0  0.71678  0.31943  0.08316  1.0000
  C   C502      1.0  0.71559  0.35440  0.06092  1.0000
  C   C503      1.0  0.70353  0.37685  0.08690  1.0000
  C   C504      1.0  0.70537  0.40971  0.08282  1.0000
  C   C505      1.0  0.68380  0.36873  0.09999  1.0000
  C   C506      1.0  0.68864  0.43292  0.09128  1.0000
  C   C507      1.0  0.66737  0.39226  0.10846  1.0000
  C   C508      1.0  0.66994  0.42429  0.10417  1.0000
  H   H590      1.0  0.76356  0.36047  0.09374  1.0000
  H   H591      1.0  0.77268  0.34255  0.07487  1.0000
  H   H592      1.0  0.76441  0.38430  0.07627  1.0000
  H   H593      1.0  0.72397  0.31584  0.09576  1.0000
  H   H594      1.0  0.73121  0.30224  0.07604  1.0000
  H   H595      1.0  0.69113  0.31217  0.08145  1.0000
  H   H596      1.0  0.72235  0.37787  0.05577  1.0000
  H   H597      1.0  0.72925  0.33616  0.05410  1.0000
  H   H598      1.0  0.68957  0.35006  0.05845  1.0000
  H   H599      1.0  0.72081  0.41802  0.07342  1.0000
  H   H600      1.0  0.68103  0.34449  0.10407  1.0000
  H   H601      1.0  0.69123  0.45797  0.08820  1.0000
  H   H602      1.0  0.65289  0.38578  0.11858  1.0000
  S   S142      1.0  0.71122  0.48648  0.13818  1.0000
  C   C509      1.0  0.77983  0.48179  0.20987  1.0000
  C   C510      1.0  0.75464  0.44879  0.18029  1.0000
  H   H603      1.0  0.80202  0.47017  0.00864  1.0000
  C   C511      1.0  0.75552  0.48985  0.09470  1.0000
  H   H604      1.0  0.71869  0.45214  0.98592  1.0000
  H   H605      1.0  0.93233  0.09456  0.03844  1.0000
  H   H606      1.0  0.92678  0.39874  0.00223  1.0000
  N   N35       1.0  0.73775  0.47529  0.18835  1.0000
  C   C512      1.0  0.78916  0.48499  0.22581  1.0000
  H   H607      1.0  0.84270  0.02531  0.99238  1.0000
  H   H608      1.0  0.90078  0.46714  0.02893  1.0000
  S   S143      1.0  0.92056  0.01773  0.04627  1.0000
  H   H609      1.0  0.69658  0.46860  0.17271  1.0000
  H   H610      1.0  0.93541  0.10983  0.05864  1.0000
  C   C513      1.0  0.83246  0.00514  0.98579  1.0000
  S   S144      1.0  0.78727  0.00035  0.00988  1.0000
  H   H611      1.0  0.89601  0.14799  0.02520  1.0000
  C   C514      1.0  0.73405  0.47849  0.23374  1.0000
  H   H612      1.0  0.74326  0.01920  0.11949  1.0000
  C   C515      1.0  0.74842  0.44700  0.11948  1.0000
  H   H613      1.0  0.95971  0.46149  0.98159  1.0000
  H   H614      1.0  0.65797  0.44263  0.11103  1.0000
  H   H615      1.0  0.69900  0.03334  0.08378  1.0000
  H   H616      1.0  0.89918  0.11368  0.04745  1.0000
  H   H617      1.0  0.90933  0.44605  0.98790  1.0000
  C   C516      1.0  0.92290  0.41298  0.01327  1.0000
  C   C517      1.0  0.91005  0.46059  0.99907  1.0000
  H   H618      1.0  0.91669  0.48583  0.99632  1.0000
  H   H619      1.0  0.78107  0.45267  0.18025  1.0000
  C   C518      1.0  0.92264  0.15092  0.02483  1.0000
  H   H620      1.0  0.75336  0.40702  0.99315  1.0000
  C   C519      1.0  0.99048  0.06036  0.07396  1.0000
  H   H621      1.0  0.74710  0.44636  0.16756  1.0000
  H   H622      1.0  0.69420  0.44704  0.19091  1.0000
  H   H623      1.0  0.77688  0.41495  0.10515  1.0000
  H   H624      1.0  0.93154  0.13319  0.01602  1.0000
  H   H625      1.0  0.77350  0.48681  0.25004  1.0000
  C   C520      1.0  0.99112  0.37035  0.04357  1.0000
  S   S145      1.0  0.82872  0.00214  0.05090  1.0000
  H   H626      1.0  0.98843  0.34962  0.03581  1.0000
  N   N36       1.0  0.93759  0.14613  0.04066  1.0000
  H   H627      1.0  0.89708  0.41004  0.01633  1.0000
  H   H628      1.0  0.71624  0.47826  0.24303  1.0000
  H   H629      1.0  0.92745  0.17527  0.02019  1.0000
  H   H630      1.0  0.74946  0.42555  0.18614  1.0000
  C   C521      1.0  0.75228  0.41510  0.98098  1.0000
  C   C522      1.0  0.97651  0.45682  0.99109  1.0000
  C   C523      1.0  0.76632  0.48330  0.23772  1.0000
  H   H631      1.0  0.66891  0.05698  0.10601  1.0000
  C   C524      1.0  0.72437  0.47564  0.21783  1.0000
  C   C525      1.0  0.74709  0.47715  0.20536  1.0000
  C   C526      1.0  0.64223  0.01345  0.11091  1.0000
  H   H632      1.0  0.93741  0.48939  0.02593  1.0000
  H   H633      1.0  0.66682  0.00661  0.29636  1.0000
  H   H634      1.0  0.68860  0.48993  0.19065  1.0000
  H   H635      1.0  0.69885  0.47336  0.21564  1.0000
  C   C527      1.0  0.97300  0.14868  0.03938  1.0000
  C   C528      1.0  0.96635  0.44924  0.00669  1.0000
  H   H636      1.0  0.97375  0.19809  0.03123  1.0000
  C   C529      1.0  0.99078  0.44260  0.01797  1.0000
  C   C530      1.0  0.68115  0.01904  0.08996  1.0000
  H   H637      1.0  0.79835  0.48388  0.20106  1.0000
  H   H638      1.0  0.58175  0.99980  0.12229  1.0000
  H   H639      1.0  0.71352  0.99945  0.28280  1.0000
  C   C531      1.0  0.98790  0.17763  0.03433  1.0000
  H   H640      1.0  0.98438  0.01114  0.03480  1.0000
  C   C532      1.0  0.98594  0.02509  0.04569  1.0000
  Fe  Fe73      1.0  0.67020  0.41301  0.39643  1.0000
  S   S146      1.0  0.68497  0.38884  0.41926  1.0000
  S   S147      1.0  0.70828  0.44795  0.38616  1.0000
  Fe  Fe74      1.0  0.60305  0.38199  0.39795  1.0000
  S   S148      1.0  0.61363  0.35648  0.42059  1.0000
  S   S149      1.0  0.55462  0.36907  0.38695  1.0000
  Fe  Fe75      1.0  0.63691  0.40322  0.42869  1.0000
  S   S150      1.0  0.62114  0.42010  0.45339  1.0000
  Fe  Fe76      1.0  0.66034  0.34392  0.40933  1.0000
  S   S151      1.0  0.68515  0.29500  0.41038  1.0000
  S   S152      1.0  0.62303  0.42960  0.40657  1.0000
  S   S153      1.0  0.64885  0.36717  0.38601  1.0000
  Fe  Fe77      1.0  0.65932  0.03637  0.39629  1.0000
  S   S154      1.0  0.67970  0.07058  0.41513  1.0000
  C   C533      1.0  0.75461  0.01728  0.52572  1.0000
  Fe  Fe78      1.0  0.59216  0.03718  0.41182  1.0000
  S   S155      1.0  0.60896  0.07162  0.43087  1.0000
  H   H641      1.0  0.74765  0.01883  0.49550  1.0000
  Fe  Fe79      1.0  0.63459  0.09897  0.41185  1.0000
  S   S156      1.0  0.62335  0.15238  0.40805  1.0000
  Fe  Fe80      1.0  0.65193  0.04028  0.43268  1.0000
  S   S157      1.0  0.66861  0.02947  0.45804  1.0000
  S   S158      1.0  0.61489  0.06602  0.39252  1.0000
  C   C534      1.0  0.76294  0.49426  0.35304  1.0000
  C   C535      1.0  0.86482  0.40173  0.60397  1.0000
  H   H642      1.0  0.70325  0.13333  0.34538  1.0000
  H   H643      1.0  0.57348  0.14230  0.43329  1.0000
  C   C536      1.0  0.75632  0.47041  0.61652  1.0000
  S   S159      1.0  0.76298  0.40431  0.62108  1.0000
  H   H644      1.0  0.85600  0.44165  0.58014  1.0000
  H   H645      1.0  0.84690  0.47274  0.62160  1.0000
  H   H646      1.0  0.55689  0.40419  0.46538  1.0000
  H   H647      1.0  0.80176  0.27007  0.63925  1.0000
  H   H648      1.0  0.70485  0.45848  0.57802  1.0000
  C   C537      1.0  0.71888  0.46206  0.58877  1.0000
  C   C538      1.0  0.84818  0.44631  0.62006  1.0000
  N   N37       1.0  0.52741  0.13386  0.42177  1.0000
  C   C539      1.0  0.54227  0.42853  0.43746  1.0000
  H   H649      1.0  0.56345  0.46945  0.58991  1.0000
  H   H650      1.0  0.56250  0.41763  0.43087  1.0000
  H   H651      1.0  0.55303  0.44642  0.44596  1.0000
  H   H652      1.0  0.69040  0.00664  0.52280  1.0000
  H   H653      1.0  0.52856  0.04800  0.38499  1.0000
  H   H654      1.0  0.75962  0.49197  0.37859  1.0000
  H   H655      1.0  0.73078  0.02404  0.34646  1.0000
  H   H656      1.0  0.64070  0.12353  0.37667  1.0000
  H   H657      1.0  0.91178  0.44392  0.59544  1.0000
  H   H658      1.0  0.69538  0.41553  0.63769  1.0000
  H   H659      1.0  0.71461  0.45224  0.32732  1.0000
  H   H660      1.0  0.55927  0.17534  0.42247  1.0000
  H   H661      1.0  0.60124  0.44059  0.48429  1.0000
  S   S160      1.0  0.68948  0.02764  0.37366  1.0000
  C   C540      1.0  0.66714  0.25563  0.41066  1.0000
  C   C541      1.0  0.68662  0.22897  0.41345  1.0000
  C   C542      1.0  0.67374  0.19733  0.41302  1.0000
  C   C543      1.0  0.64109  0.19179  0.40964  1.0000
  C   C544      1.0  0.62159  0.21846  0.40694  1.0000
  C   C545      1.0  0.63441  0.25008  0.40751  1.0000
  H   H662      1.0  0.71195  0.23280  0.41589  1.0000
  H   H663      1.0  0.68917  0.17731  0.41519  1.0000
  H   H664      1.0  0.59637  0.21469  0.40424  1.0000
  H   H665      1.0  0.61903  0.27014  0.40526  1.0000
  C   C546      1.0  0.51963  0.39039  0.39147  1.0000
  C   C547      1.0  0.52117  0.42256  0.39624  1.0000
  H   H666      1.0  0.56521  0.10915  0.40972  1.0000
  H   H667      1.0  0.54419  0.43493  0.39706  1.0000
  C   C548      1.0  0.55118  0.15525  0.43012  1.0000
  C   C549      1.0  0.73105  0.43538  0.59693  1.0000
  H   H668      1.0  0.72574  0.41148  0.59241  1.0000
  C   C550      1.0  0.84697  0.45113  0.59162  1.0000
  C   C551      1.0  0.63822  0.44877  0.46702  1.0000
  C   C552      1.0  0.54474  0.38721  0.45687  1.0000
  C   C553      1.0  0.62286  0.45408  0.48161  1.0000
  H   H669      1.0  0.97752  0.04763  0.62415  1.0000
  H   H670      1.0  0.62354  0.47999  0.50407  1.0000
  H   H671      1.0  0.76591  0.02858  0.60535  1.0000
  C   C554      1.0  0.72374  0.46101  0.36749  1.0000
  H   H672      1.0  0.86277  0.30774  0.60234  1.0000
  N   N38       1.0  0.52291  0.40397  0.44581  1.0000
  H   H673      1.0  0.68533  0.26329  0.37440  1.0000
  C   C555      1.0  0.70209  0.12250  0.38521  1.0000
  C   C556      1.0  0.66632  0.46624  0.46378  1.0000
  C   C557      1.0  0.74963  0.43924  0.61094  1.0000
  H   H674      1.0  0.91050  0.44622  0.61691  1.0000
  H   H675      1.0  0.89666  0.47858  0.60559  1.0000
  H   H676      1.0  0.77042  0.47400  0.62727  1.0000
  H   H677      1.0  0.64699  0.12539  0.35547  1.0000
  C   C558      1.0  0.97971  0.41304  0.64319  1.0000
  H   H678      1.0  0.62087  0.40354  0.60283  1.0000
  N   N39       1.0  0.68944  0.13422  0.36989  1.0000
  H   H679      1.0  0.82063  0.44623  0.59206  1.0000
  C   C559      1.0  0.51083  0.37977  0.43402  1.0000
  H   H680      1.0  0.86104  0.43682  0.63057  1.0000
  C   C560      1.0  0.68787  0.16963  0.37052  1.0000
  C   C561      1.0  0.65850  0.18636  0.36936  1.0000
  C   C562      1.0  0.71630  0.18849  0.37285  1.0000
  C   C563      1.0  0.65790  0.21979  0.37047  1.0000
  C   C564      1.0  0.71536  0.22189  0.37405  1.0000
  C   C565      1.0  0.68620  0.23749  0.37289  1.0000
  H   H681      1.0  0.95261  0.00280  0.60882  1.0000
  H   H682      1.0  0.70328  0.09585  0.38523  1.0000
  H   H683      1.0  0.73641  0.13192  0.35918  1.0000
  H   H684      1.0  0.53082  0.36736  0.42792  1.0000
  H   H685      1.0  0.71174  0.09718  0.35597  1.0000
  H   H686      1.0  0.63549  0.17425  0.36810  1.0000
  C   C566      1.0  0.82123  0.19137  0.64384  1.0000
  C   C567      1.0  0.80961  0.21914  0.63667  1.0000
  H   H687      1.0  0.66180  0.00036  0.59600  1.0000
  C   C568      1.0  0.75528  0.00490  0.60375  1.0000
  C   C569      1.0  0.65762  0.99810  0.48618  1.0000
  H   H688      1.0  0.56458  0.37531  0.45040  1.0000
  S   S161      1.0  0.63453  0.00443  0.41418  1.0000
  H   H689      1.0  0.67841  0.46245  0.45263  1.0000
  H   H690      1.0  0.65818  0.38065  0.62197  1.0000
  C   C570      1.0  0.71116  0.12385  0.35704  1.0000
  H   H691      1.0  0.81355  0.33781  0.59639  1.0000
  H   H692      1.0  0.73909  0.01337  0.57974  1.0000
  H   H693      1.0  0.82321  0.43651  0.62037  1.0000
  N   N40       1.0  0.76773  0.36845  0.38894  1.0000
  C   C571      1.0  0.78501  0.33842  0.39204  1.0000
  C   C572      1.0  0.76663  0.38755  0.40389  1.0000
  C   C573      1.0  0.73413  0.35946  0.38447  1.0000
  C   C574      1.0  0.78473  0.38697  0.37659  1.0000
  C   C575      1.0  0.77058  0.39400  0.36163  1.0000
  C   C576      1.0  0.81669  0.39835  0.37932  1.0000
  C   C577      1.0  0.78740  0.41158  0.35029  1.0000
  C   C578      1.0  0.83311  0.41626  0.36796  1.0000
  C   C579      1.0  0.81842  0.42298  0.35350  1.0000
  H   H694      1.0  0.80955  0.34304  0.39694  1.0000
  H   H695      1.0  0.77207  0.32328  0.40083  1.0000
  H   H696      1.0  0.78736  0.32395  0.38094  1.0000
  H   H697      1.0  0.79079  0.39305  0.40898  1.0000
  H   H698      1.0  0.75307  0.37472  0.41327  1.0000
  H   H699      1.0  0.75465  0.41082  0.40193  1.0000
  H   H700      1.0  0.73296  0.34361  0.37378  1.0000
  H   H701      1.0  0.72177  0.34612  0.39410  1.0000
  H   H702      1.0  0.71963  0.38106  0.38220  1.0000
  H   H703      1.0  0.74628  0.38687  0.35846  1.0000
  H   H704      1.0  0.82914  0.39373  0.39034  1.0000
  H   H705      1.0  0.77603  0.41712  0.33904  1.0000
  C   C580      1.0  0.75042  0.48330  0.33843  1.0000
  H   H706      1.0  0.51045  0.19878  0.42518  1.0000
  H   H707      1.0  0.74106  0.03693  0.52009  1.0000
  C   C581      1.0  0.63548  0.47640  0.49287  1.0000
  S   S162      1.0  0.54076  0.02016  0.41617  1.0000
  C   C582      1.0  0.67896  0.48854  0.47505  1.0000
  C   C583      1.0  0.99251  0.03179  0.61725  1.0000
  C   C584      1.0  0.63593  0.45330  0.60706  1.0000
  H   H708      1.0  0.73947  0.99836  0.46875  1.0000
  C   C585      1.0  0.83582  0.35064  0.59917  1.0000
  H   H709      1.0  0.72676  0.13163  0.38792  1.0000
  S   S163      1.0  0.76608  0.49616  0.31976  1.0000
  C   C586      1.0  0.89166  0.35017  0.60692  1.0000
  C   C587      1.0  0.67801  0.45902  0.62762  1.0000
  C   C588      1.0  0.65745  0.40639  0.62059  1.0000
  N   N41       1.0  0.86457  0.43717  0.60525  1.0000
  H   H710      1.0  0.81382  0.39587  0.59793  1.0000
  H   H711      1.0  0.91472  0.39473  0.61175  1.0000
  C   C589      1.0  0.89244  0.38364  0.60770  1.0000
  H   H712      1.0  0.65984  0.09154  0.36652  1.0000
  S   S164      1.0  0.84218  0.06339  0.63608  1.0000
  H   H713      1.0  0.50627  0.08707  0.42631  1.0000
  C   C590      1.0  0.58035  0.45883  0.59868  1.0000
  C   C591      1.0  0.72456  0.46100  0.33850  1.0000
  H   H714      1.0  0.55897  0.48805  0.49245  1.0000
  H   H715      1.0  0.54317  0.09463  0.43626  1.0000
  C   C592      1.0  0.65742  0.47264  0.61648  1.0000
  H   H716      1.0  0.66606  0.03116  0.62016  1.0000
  C   C593      1.0  0.52073  0.10634  0.43230  1.0000
  H   H717      1.0  0.83091  0.43728  0.34476  1.0000
  H   H718      1.0  0.63517  0.23203  0.37009  1.0000
  C   C594      1.0  0.67829  0.42599  0.62955  1.0000
  C   C595      1.0  0.65779  0.11813  0.36696  1.0000
  H   H719      1.0  0.84933  0.47771  0.59148  1.0000
  C   C596      1.0  0.89734  0.45196  0.60574  1.0000
  H   H720      1.0  0.91286  0.33693  0.61012  1.0000
  H   H721      1.0  0.68653  0.13008  0.39520  1.0000
  H   H722      1.0  0.73720  0.23575  0.37633  1.0000
  C   C597      1.0  0.54262  0.12191  0.40708  1.0000
  H   H723      1.0  0.54140  0.16511  0.44136  1.0000
  H   H724      1.0  0.52686  0.10478  0.40036  1.0000
  H   H725      1.0  0.75792  0.02470  0.53839  1.0000
  H   H726      1.0  0.57409  0.46824  0.61065  1.0000
  H   H727      1.0  0.66526  0.02042  0.49180  1.0000
  H   H728      1.0  0.54880  0.14196  0.39901  1.0000
  H   H729      1.0  0.97394  0.41634  0.63079  1.0000
  H   H730      1.0  0.79789  0.21732  0.62517  1.0000
  C   C598      1.0  0.50602  0.04557  0.39116  1.0000
  H   H731      1.0  0.73940  0.17746  0.37416  1.0000
  C   C599      1.0  0.71131  0.44992  0.35288  1.0000
  H   H732      1.0  0.53177  0.36830  0.46356  1.0000
  H   H733      1.0  0.69142  0.43290  0.35264  1.0000
  H   H734      1.0  0.77890  0.01613  0.52038  1.0000
  C   C600      1.0  0.50548  0.03254  0.40636  1.0000
  C   C601      1.0  0.86346  0.33370  0.60260  1.0000
  S   S165      1.0  0.81388  0.15360  0.63464  1.0000
  H   H735      1.0  0.52783  0.44174  0.42866  1.0000
  H   H736      1.0  0.61730  0.42635  0.57852  1.0000
  C   C602      1.0  0.63638  0.41976  0.60959  1.0000
  C   C603      1.0  0.83633  0.38410  0.59995  1.0000
  H   H737      1.0  0.85729  0.42522  0.37040  1.0000
  C   C604      1.0  0.97846  0.00649  0.60864  1.0000
  H   H738      1.0  0.63430  0.02173  0.31888  1.0000
  C   C605      1.0  0.72490  0.49321  0.59455  1.0000
  C   C606      1.0  0.62163  0.45263  0.57910  1.0000
  H   H739      1.0  0.60647  0.46294  0.56954  1.0000
  C   C607      1.0  0.67626  0.00900  0.62518  1.0000
  C   C608      1.0  0.74964  0.48325  0.36741  1.0000
  S   S166      1.0  0.83702  0.36176  0.64105  1.0000
  H   H740      1.0  0.57526  0.43264  0.59847  1.0000
  N   N42       1.0  0.61426  0.46668  0.59487  1.0000
  H   H741      1.0  0.69488  0.47410  0.63434  1.0000
  H   H742      1.0  0.64721  0.45724  0.57603  1.0000
  H   H743      1.0  0.61519  0.01820  0.63486  1.0000
  H   H744      1.0  0.50753  0.11401  0.44306  1.0000
  Fe  Fe81      1.0  0.79435  0.39425  0.64328  1.0000
  C   C609      1.0  0.72906  0.00014  0.35117  1.0000
  C   C610      1.0  0.62879  0.99800  0.63997  1.0000
  H   H745      1.0  0.69453  0.99994  0.61689  1.0000
  H   H746      1.0  0.51026  0.41142  0.47854  1.0000
  C   C611      1.0  0.66372  0.49369  0.48968  1.0000
  H   H747      1.0  0.70482  0.99999  0.54265  1.0000
  H   H748      1.0  0.68984  0.01593  0.63621  1.0000
  C   C612      1.0  0.64805  1.00000  0.31933  1.0000
  Fe  Fe82      1.0  0.86819  0.05726  0.65950  1.0000
  S   S167      1.0  0.91971  0.03878  0.66284  1.0000
  Fe  Fe83      1.0  0.80711  0.07319  0.67904  1.0000
  S   S168      1.0  0.77747  0.08075  0.65694  1.0000
  S   S169      1.0  0.79220  0.08619  0.70459  1.0000
  H   H749      1.0  0.77301  0.36239  0.76322  1.0000
  C   C613      1.0  0.98792  0.05189  0.71237  1.0000
  S   S170      1.0  0.82764  0.02726  0.66965  1.0000
  S   S171      1.0  0.84953  0.10258  0.67045  1.0000
  S   S172      1.0  0.82166  0.43053  0.65835  1.0000
  Fe  Fe84      1.0  0.82023  0.33811  0.66330  1.0000
  S   S173      1.0  0.84921  0.37146  0.67934  1.0000
  H   H750      1.0  0.97195  0.03621  0.71891  1.0000
  Fe  Fe85      1.0  0.80469  0.40131  0.67928  1.0000
  S   S174      1.0  0.78357  0.42467  0.70150  1.0000
  Fe  Fe86      1.0  0.86387  0.39689  0.65710  1.0000
  H   H751      1.0  0.98252  0.01302  0.66742  1.0000
  S   S175      1.0  0.77506  0.36692  0.66431  1.0000
  Fe  Fe87      1.0  0.64782  0.34091  0.80657  1.0000
  S   S176      1.0  0.62559  0.35173  0.78297  1.0000
  S   S177      1.0  0.63216  0.29382  0.81744  1.0000
  Fe  Fe88      1.0  0.68292  0.40603  0.80937  1.0000
  S   S178      1.0  0.66219  0.42143  0.78572  1.0000
  S   S179      1.0  0.72256  0.43919  0.82037  1.0000
  Fe  Fe89      1.0  0.61492  0.39965  0.79374  1.0000
  S   S180      1.0  0.56795  0.42573  0.78839  1.0000
  Fe  Fe90      1.0  0.67409  0.37228  0.77662  1.0000
  S   S181      1.0  0.69430  0.35581  0.75269  1.0000
  S   S182      1.0  0.63466  0.38814  0.81800  1.0000
  S   S183      1.0  0.69726  0.35764  0.79961  1.0000
  Fe  Fe91      1.0  0.67741  0.11295  0.80135  1.0000
  S   S184      1.0  0.63871  0.09551  0.78444  1.0000
  S   S185      1.0  0.70017  0.16279  0.80123  1.0000
  Fe  Fe92      1.0  0.69164  0.04497  0.81378  1.0000
  S   S186      1.0  0.65375  0.02254  0.79734  1.0000
  S   S187      1.0  0.72967  0.02596  0.83156  1.0000
  Fe  Fe93      1.0  0.67309  0.05609  0.77845  1.0000
  S   S188      1.0  0.68008  0.04415  0.75202  1.0000
  Fe  Fe94      1.0  0.62183  0.06387  0.80427  1.0000
  S   S189      1.0  0.57028  0.06307  0.81423  1.0000
  S   S190      1.0  0.71249  0.07533  0.79428  1.0000
  S   S191      1.0  0.65885  0.08440  0.82173  1.0000
  C   C614      1.0  0.65069  0.25752  0.81229  1.0000
  C   C615      1.0  0.63539  0.22831  0.81596  1.0000
  C   C616      1.0  0.64984  0.19895  0.81230  1.0000
  C   C617      1.0  0.68007  0.19875  0.80527  1.0000
  C   C618      1.0  0.69547  0.22793  0.80172  1.0000
  C   C619      1.0  0.68068  0.25722  0.80502  1.0000
  H   H752      1.0  0.61236  0.22848  0.82177  1.0000
  H   H753      1.0  0.63800  0.17658  0.81526  1.0000
  H   H754      1.0  0.71892  0.22793  0.79633  1.0000
  H   H755      1.0  0.69275  0.27957  0.80224  1.0000
  C   C620      1.0  0.75833  0.40517  0.71544  1.0000
  C   C621      1.0  0.75054  0.37249  0.71422  1.0000
  C   C622      1.0  0.73076  0.35792  0.72566  1.0000
  C   C623      1.0  0.71820  0.37583  0.73834  1.0000
  C   C624      1.0  0.72512  0.40868  0.73926  1.0000
  C   C625      1.0  0.74554  0.42311  0.72806  1.0000
  H   H756      1.0  0.76013  0.35839  0.70457  1.0000
  H   H757      1.0  0.72540  0.33255  0.72475  1.0000
  H   H758      1.0  0.71448  0.42307  0.74847  1.0000
  H   H759      1.0  0.75110  0.44847  0.72900  1.0000
  C   C626      1.0  0.76169  0.07205  0.71760  1.0000
  C   C627      1.0  0.73374  0.05629  0.71206  1.0000
  C   C628      1.0  0.70922  0.04770  0.72277  1.0000
  C   C629      1.0  0.71233  0.05449  0.73914  1.0000
  C   C630      1.0  0.74053  0.06978  0.74469  1.0000
  C   C631      1.0  0.76483  0.07879  0.73397  1.0000
  H   H760      1.0  0.73087  0.05092  0.69953  1.0000
  H   H761      1.0  0.63055  0.45971  0.75618  1.0000
  H   H762      1.0  0.74364  0.07452  0.75727  1.0000
  H   H763      1.0  0.78641  0.09077  0.73842  1.0000
  C   C632      1.0  0.54053  0.15051  0.80149  1.0000
  C   C633      1.0  0.68490  0.43291  0.70386  1.0000
  H   H764      1.0  0.57344  0.44127  0.72281  1.0000
  C   C634      1.0  0.72039  0.44746  0.92576  1.0000
  C   C635      1.0  0.76610  0.99651  0.85465  1.0000
  C   C636      1.0  0.72906  0.46002  0.86823  1.0000
  H   H765      1.0  0.86855  0.00641  0.96758  1.0000
  C   C637      1.0  0.52757  0.41079  0.79002  1.0000
  C   C638      1.0  0.52050  0.37893  0.79382  1.0000
  H   H766      1.0  0.79898  0.35046  0.73812  1.0000
  H   H767      1.0  0.53987  0.36252  0.79582  1.0000
  C   C639      1.0  0.67817  0.45949  0.71332  1.0000
  C   C640      1.0  0.53022  0.05869  0.80643  1.0000
  C   C641      1.0  0.52359  0.04991  0.79063  1.0000
  C   C642      1.0  0.97494  0.07388  0.70193  1.0000
  H   H768      1.0  0.54323  0.04535  0.78266  1.0000
  C   C643      1.0  0.95880  0.05524  0.65924  1.0000
  C   C644      1.0  0.74874  0.42159  0.77868  1.0000
  H   H769      1.0  0.69229  0.48135  0.71197  1.0000
  C   C645      1.0  0.95461  0.40908  0.65414  1.0000
  C   C646      1.0  0.96268  0.40500  0.67014  1.0000
  H   H770      1.0  0.50225  0.11804  0.79588  1.0000
  C   C647      1.0  0.50410  0.06425  0.81656  1.0000
  Fe  Fe95      1.0  0.82112  0.10709  0.64785  1.0000
  H   H771      1.0  0.78092  0.01803  0.85428  1.0000
  C   C648      1.0  0.82335  0.42785  0.76148  1.0000
  H   H772      1.0  0.73114  0.18046  0.66247  1.0000
  H   H773      1.0  0.94912  0.07500  0.70021  1.0000
  C   C649      1.0  0.77117  0.40062  0.96952  1.0000
  C   C650      1.0  0.71841  0.44705  0.85345  1.0000
  H   H774      1.0  0.76975  0.36620  0.78938  1.0000
  C   C651      1.0  0.75231  0.43829  0.94945  1.0000
  C   C652      1.0  0.83856  0.22379  0.66659  1.0000
  C   C653      1.0  0.55048  0.18231  0.80351  1.0000
  C   C654      1.0  0.66751  0.40447  0.70574  1.0000
  C   C655      1.0  0.82575  0.25131  0.65976  1.0000
  C   C656      1.0  0.73463  0.45474  0.83950  1.0000
  H   H775      1.0  0.54637  0.43690  0.82540  1.0000
  C   C657      1.0  0.76077  0.48629  0.93405  1.0000
  H   H776      1.0  0.83885  0.38808  0.72694  1.0000
  H   H777      1.0  0.71746  0.47189  0.95881  1.0000
  N   N43       1.0  0.69050  0.07860  0.87180  1.0000
  C   C658      1.0  0.67457  0.08258  0.88738  1.0000
  C   C659      1.0  0.67066  0.05592  0.86203  1.0000
  C   C660      1.0  0.72225  0.06408  0.87489  1.0000
  C   C661      1.0  0.69441  0.10902  0.86309  1.0000
  C   C662      1.0  0.67772  0.13730  0.86728  1.0000
  C   C663      1.0  0.71393  0.11055  0.84939  1.0000
  C   C664      1.0  0.68097  0.16526  0.85841  1.0000
  C   C665      1.0  0.71712  0.13865  0.84069  1.0000
  C   C666      1.0  0.70065  0.16593  0.84517  1.0000
  H   H778      1.0  0.64910  0.08975  0.88597  1.0000
  H   H779      1.0  0.67376  0.05978  0.89409  1.0000
  H   H780      1.0  0.68759  0.10069  0.89498  1.0000
  H   H781      1.0  0.64665  0.06589  0.85927  1.0000
  H   H782      1.0  0.74735  0.44141  0.77003  1.0000
  H   H783      1.0  0.68203  0.05059  0.85046  1.0000
  H   H784      1.0  0.73896  0.08145  0.88099  1.0000
  H   H785      1.0  0.82170  0.44024  0.79474  1.0000
  H   H786      1.0  0.73396  0.05575  0.86384  1.0000
  H   H787      1.0  0.66170  0.13840  0.87723  1.0000
  H   H788      1.0  0.72613  0.08978  0.84491  1.0000
  H   H789      1.0  0.66783  0.18650  0.86166  1.0000
  H   H790      1.0  0.73175  0.13904  0.83012  1.0000
  H   H791      1.0  0.70273  0.18746  0.83815  1.0000
  N   N44       1.0  0.75494  0.17145  0.68475  1.0000
  C   C667      1.0  0.75565  0.17684  0.66741  1.0000
  C   C668      1.0  0.78806  0.16531  0.69049  1.0000
  C   C669      1.0  0.73563  0.14177  0.68747  1.0000
  C   C670      1.0  0.74224  0.20029  0.69274  1.0000
  C   C671      1.0  0.75962  0.22987  0.69237  1.0000
  C   C672      1.0  0.71200  0.20046  0.70042  1.0000
  C   C673      1.0  0.74802  0.25753  0.69962  1.0000
  C   C674      1.0  0.70068  0.22827  0.70776  1.0000
  C   C675      1.0  0.71869  0.25671  0.70738  1.0000
  C   C676      1.0  0.79988  0.40696  0.76815  1.0000
  H   H792      1.0  0.84896  0.42920  0.96830  1.0000
  H   H793      1.0  0.59902  0.39725  0.75936  1.0000
  H   H794      1.0  0.80515  0.18521  0.68807  1.0000
  H   H795      1.0  0.79825  0.14382  0.68459  1.0000
  H   H796      1.0  0.78863  0.16090  0.70349  1.0000
  H   H797      1.0  0.71109  0.14309  0.68223  1.0000
  H   H798      1.0  0.74681  0.12047  0.68184  1.0000
  H   H799      1.0  0.73411  0.13625  0.70032  1.0000
  H   H800      1.0  0.78213  0.23215  0.68617  1.0000
  H   H801      1.0  0.69651  0.17951  0.70073  1.0000
  H   H802      1.0  0.76182  0.27982  0.69895  1.0000
  H   H803      1.0  0.67761  0.22795  0.71361  1.0000
  H   H804      1.0  0.70967  0.27830  0.71290  1.0000
  H   H805      1.0  0.50690  0.45635  0.78459  1.0000
  H   H806      1.0  0.84962  0.22543  0.67826  1.0000
  C   C677      1.0  0.65408  0.45776  0.72475  1.0000
  C   C678      1.0  0.79168  0.37871  0.75933  1.0000
  H   H807      1.0  0.73478  0.42884  0.78922  1.0000
  H   H808      1.0  0.79339  0.46568  0.78460  1.0000
  H   H809      1.0  0.71298  0.42173  0.92518  1.0000
  H   H810      1.0  0.77637  0.44728  0.91064  1.0000
  H   H811      1.0  0.78430  0.49033  0.94008  1.0000
  C   C679      1.0  0.83112  0.47687  0.96508  1.0000
  H   H812      1.0  0.77016  0.19842  0.66438  1.0000
  H   H813      1.0  0.51904  0.38506  0.83007  1.0000
  H   H814      1.0  0.57507  0.18799  0.80700  1.0000
  H   H815      1.0  0.67344  0.38365  0.69862  1.0000
  N   N45       1.0  0.78251  0.41491  0.78289  1.0000
  C   C680      1.0  0.98684  0.32281  0.65361  1.0000
  C   C681      1.0  0.78307  0.38765  0.79404  1.0000
  C   C682      1.0  0.82869  0.39292  0.73852  1.0000
  H   H816      1.0  0.77133  0.39377  0.80551  1.0000
  H   H817      1.0  0.72022  0.04232  0.88234  1.0000
  C   C683      1.0  0.79597  0.44342  0.79157  1.0000
  C   C684      1.0  0.75606  0.48085  0.86937  1.0000
  H   H818      1.0  0.84588  0.17292  0.66420  1.0000
  C   C685      1.0  0.52093  0.43617  0.82807  1.0000
  N   N46       1.0  0.71131  0.16356  0.75241  1.0000
  C   C686      1.0  0.74195  0.15882  0.76111  1.0000
  C   C687      1.0  0.68750  0.13966  0.75823  1.0000
  C   C688      1.0  0.71617  0.15638  0.73533  1.0000
  C   C689      1.0  0.70125  0.19717  0.75465  1.0000
  C   C690      1.0  0.72011  0.22278  0.74850  1.0000
  C   C691      1.0  0.67357  0.20565  0.76339  1.0000
  C   C692      1.0  0.71152  0.25474  0.75077  1.0000
  C   C693      1.0  0.66521  0.23769  0.76556  1.0000
  C   C694      1.0  0.68413  0.26216  0.75929  1.0000
  H   H819      1.0  0.73945  0.16491  0.77394  1.0000
  H   H820      1.0  0.74977  0.13352  0.76033  1.0000
  H   H821      1.0  0.76185  0.17398  0.75649  1.0000
  H   H822      1.0  0.66366  0.14208  0.75235  1.0000
  H   H823      1.0  0.68446  0.14174  0.77125  1.0000
  H   H824      1.0  0.69515  0.11460  0.75606  1.0000
  H   H825      1.0  0.73650  0.17031  0.73029  1.0000
  H   H826      1.0  0.72189  0.13072  0.73326  1.0000
  H   H827      1.0  0.69402  0.16130  0.72838  1.0000
  H   H828      1.0  0.74201  0.21831  0.74216  1.0000
  H   H829      1.0  0.65847  0.18810  0.76914  1.0000
  H   H830      1.0  0.72643  0.27401  0.74619  1.0000
  H   H831      1.0  0.64453  0.24365  0.77269  1.0000
  H   H832      1.0  0.67790  0.28699  0.76134  1.0000
  C   C695      1.0  0.61625  0.39840  0.74933  1.0000
  H   H833      1.0  0.85459  0.43738  0.74172  1.0000
  C   C696      1.0  0.50882  0.14306  0.79705  1.0000
  H   H834      1.0  0.83947  0.47855  0.95301  1.0000
  Fe  Fe96      1.0  0.80036  0.03645  0.64675  1.0000
  H   H835      1.0  0.70168  0.46057  0.93236  1.0000
  H   H836      1.0  0.58872  0.45164  0.75859  1.0000
  H   H837      1.0  0.50880  0.07099  0.82882  1.0000
  H   H838      1.0  0.53648  0.23149  0.80305  1.0000
  C   C697      1.0  0.83736  0.42081  0.74685  1.0000
  H   H839      1.0  0.94383  0.40209  0.67876  1.0000
  H   H840      1.0  0.63054  0.37985  0.71807  1.0000
  H   H841      1.0  0.68766  0.03566  0.71834  1.0000
  H   H842      1.0  0.60111  0.47649  0.74274  1.0000
  H   H843      1.0  0.65048  0.47915  0.73176  1.0000
  C   C698      1.0  0.98594  0.03678  0.66270  1.0000
  C   C699      1.0  0.96666  0.25996  0.64713  1.0000
  H   H844      1.0  0.76631  0.15630  0.66087  1.0000
  N   N47       1.0  0.61024  0.42616  0.73899  1.0000
  S   S192      1.0  0.82426  0.28661  0.67150  1.0000
  C   C700      1.0  0.80617  0.37176  0.74483  1.0000
  C   C701      1.0  0.57880  0.42107  0.73085  1.0000
  H   H845      1.0  0.64096  0.39978  0.75442  1.0000
  N   N48       1.0  0.75258  0.45161  0.93324  1.0000
  H   H846      1.0  0.80814  0.38057  0.79674  1.0000
  H   H847      1.0  0.71617  0.45391  0.87887  1.0000
  C   C702      1.0  0.52866  0.20676  0.80124  1.0000
  C   C703      1.0  0.60774  0.45486  0.74949  1.0000
  H   H848      1.0  0.61383  0.37502  0.74298  1.0000
  H   H849      1.0  0.94312  0.10036  0.65029  1.0000
  H   H850      1.0  0.78793  0.99821  0.80908  1.0000
  H   H851      1.0  0.77063  0.41042  0.92064  1.0000
  H   H852      1.0  0.72010  0.45679  0.91339  1.0000
  C   C704      1.0  0.64322  0.40250  0.71704  1.0000
  H   H853      1.0  0.73611  0.40025  0.77340  1.0000
  C   C705      1.0  0.73267  0.45190  0.96135  1.0000
  C   C706      1.0  0.63592  0.42901  0.72701  1.0000
  H   H854      1.0  0.98499  0.11043  0.68496  1.0000
  H   H855      1.0  0.70432  0.43410  0.69538  1.0000
  H   H856      1.0  0.78731  0.40009  0.94589  1.0000
  C   C707      1.0  0.77137  0.41193  0.95398  1.0000
  C   C708      1.0  0.83642  0.19398  0.65867  1.0000
  H   H857      1.0  0.55739  0.13140  0.80351  1.0000
  C   C709      1.0  0.77624  0.43630  0.92261  1.0000
  S   S193      1.0  0.91387  0.41021  0.64713  1.0000
  H   H858      1.0  0.69761  0.43117  0.85286  1.0000
  H   H859      1.0  0.80115  0.43926  0.92743  1.0000
  C   C710      1.0  0.95430  0.31567  0.65096  1.0000
  H   H860      1.0  0.78305  0.44791  0.80290  1.0000
  H   H861      1.0  0.83085  0.45011  0.76713  1.0000
  C   C711      1.0  0.76167  0.47553  0.84064  1.0000
  H   H862      1.0  0.55885  0.41911  0.73955  1.0000
  C   C712      1.0  0.96364  0.08587  0.65308  1.0000
  H   H863      1.0  0.78682  0.38135  0.97295  1.0000
  H   H864      1.0  0.57803  0.39867  0.72358  1.0000
  C   C713      1.0  0.73295  0.44060  0.97689  1.0000
  H   H865      1.0  0.93683  0.33465  0.65153  1.0000
  H   H866      1.0  0.66706  0.03252  0.86799  1.0000
  H   H867      1.0  0.77444  0.48183  0.83000  1.0000
  C   C714      1.0  0.83663  0.44892  0.97382  1.0000
  C   C715      1.0  0.99510  0.09782  0.65050  1.0000
  C   C716      1.0  0.83471  0.99769  0.82023  1.0000
  H   H868      1.0  0.91884  0.27871  0.64599  1.0000
  C   C717      1.0  0.94418  0.28425  0.64782  1.0000
  H   H869      1.0  0.84230  0.02021  0.81508  1.0000
  H   H870      1.0  0.64204  0.00725  0.65070  1.0000
  H   H871      1.0  0.99344  0.34744  0.65614  1.0000
  C   C718      1.0  0.50345  0.46425  0.82824  1.0000
  C   C719      1.0  0.77233  0.48848  0.85543  1.0000
  H   H872      1.0  0.51554  0.48684  0.82584  1.0000
  C   C720      1.0  0.99527  0.40538  0.67509  1.0000
  C   C721      1.0  0.50184  0.43166  0.78751  1.0000
  C   C722      1.0  0.50547  0.40694  0.83071  1.0000
  C   C723      1.0  0.81185  0.24907  0.64460  1.0000
  C   C724      1.0  0.99520  0.09383  0.69333  1.0000
  H   H873      1.0  0.95863  0.23553  0.64465  1.0000
  Fe  Fe97      1.0  0.61827  0.56061  0.15536  1.0000
  S   S194      1.0  0.65386  0.56781  0.13549  1.0000
  S   S195      1.0  0.56543  0.55818  0.14669  1.0000
  Fe  Fe98      1.0  0.67329  0.56121  0.18059  1.0000
  S   S196      1.0  0.71141  0.56916  0.16243  1.0000
  S   S197      1.0  0.68328  0.55470  0.20721  1.0000
  Fe  Fe99      1.0  0.67705  0.60440  0.15203  1.0000
  S   S198      1.0  0.69733  0.65242  0.14432  1.0000
  Fe  Fe100     1.0  0.68533  0.53163  0.14739  1.0000
  H   H874      1.0  0.79659  0.86943  0.14519  1.0000
  S   S199      1.0  0.64039  0.59924  0.17120  1.0000
  S   S200      1.0  0.64814  0.52189  0.16623  1.0000
  Fe  Fe101     1.0  0.63930  0.83071  0.15617  1.0000
  S   S201      1.0  0.62650  0.85584  0.17887  1.0000
  S   S202      1.0  0.61915  0.77985  0.15489  1.0000
  Fe  Fe102     1.0  0.67327  0.89141  0.14310  1.0000
  S   S203      1.0  0.66245  0.92012  0.16520  1.0000
  S   S204      1.0  0.70178  0.90684  0.12104  1.0000
  Fe  Fe103     1.0  0.67685  0.87621  0.17884  1.0000
  S   S205      1.0  0.71216  0.86476  0.19897  1.0000
  Fe  Fe104     1.0  0.61266  0.89674  0.16327  1.0000
  S   S206      1.0  0.56661  0.92527  0.16668  1.0000
  S   S207      1.0  0.69026  0.84867  0.15676  1.0000
  S   S208      1.0  0.62288  0.87060  0.14052  1.0000
  Fe  Fe105     1.0  0.86019  0.88623  0.30274  1.0000
  H   H875      1.0  0.60037  0.92737  0.09758  1.0000
  Fe  Fe106     1.0  0.80099  0.90127  0.28166  1.0000
  S   S209      1.0  0.76763  0.87192  0.29655  1.0000
  S   S210      1.0  0.77847  0.92831  0.26093  1.0000
  Fe  Fe107     1.0  0.80684  0.83565  0.29678  1.0000
  S   S211      1.0  0.79955  0.78432  0.28782  1.0000
  S   S212      1.0  0.82478  0.92706  0.30278  1.0000
  S   S213      1.0  0.83888  0.86372  0.28051  1.0000
  Fe  Fe108     1.0  0.81685  0.56562  0.27758  1.0000
  S   S214      1.0  0.78191  0.57627  0.29708  1.0000
  S   S215      1.0  0.81059  0.56777  0.25049  1.0000
  Fe  Fe109     1.0  0.87263  0.55308  0.30110  1.0000
  C   C725      1.0  0.88738  0.79621  0.30634  1.0000
  H   H876      1.0  0.93619  0.90146  0.02203  1.0000
  C   C726      1.0  0.72305  0.94045  0.11291  1.0000
  S   S216      1.0  0.83466  0.52107  0.28932  1.0000
  S   S217      1.0  0.85668  0.59693  0.28827  1.0000
  C   C727      1.0  0.80378  0.74763  0.29784  1.0000
  C   C728      1.0  0.74110  0.95513  0.30009  1.0000
  C   C729      1.0  0.80816  0.68933  0.29611  1.0000
  C   C730      1.0  0.96525  0.53430  0.26073  1.0000
  S   S218      1.0  0.92450  0.53514  0.30352  1.0000
  H   H877      1.0  0.55132  0.70781  0.14546  1.0000
  C   C731      1.0  0.72846  0.88296  0.21660  1.0000
  C   C732      1.0  0.72541  0.91558  0.22016  1.0000
  C   C733      1.0  0.74067  0.92904  0.23381  1.0000
  C   C734      1.0  0.75865  0.91003  0.24421  1.0000
  C   C735      1.0  0.76114  0.87733  0.24079  1.0000
  C   C736      1.0  0.74640  0.86400  0.22701  1.0000
  H   H878      1.0  0.71182  0.93053  0.21226  1.0000
  H   H879      1.0  0.73870  0.95440  0.23628  1.0000
  H   H880      1.0  0.77496  0.86238  0.24861  1.0000
  H   H881      1.0  0.74918  0.83882  0.22435  1.0000
  C   C737      1.0  0.71868  0.56085  0.21911  1.0000
  C   C738      1.0  0.74846  0.56921  0.21263  1.0000
  C   C739      1.0  0.77615  0.57158  0.22243  1.0000
  C   C740      1.0  0.77446  0.56634  0.23888  1.0000
  C   C741      1.0  0.74451  0.55910  0.24545  1.0000
  C   C742      1.0  0.71691  0.55623  0.23560  1.0000
  H   H882      1.0  0.75026  0.57369  0.20006  1.0000
  H   H883      1.0  0.79907  0.57749  0.21721  1.0000
  N   N49       1.0  0.90693  0.78172  0.29362  1.0000
  H   H884      1.0  0.85646  0.89368  0.20896  1.0000
  C   C743      1.0  0.67513  0.68766  0.14681  1.0000
  C   C744      1.0  0.64404  0.68665  0.15287  1.0000
  C   C745      1.0  0.62725  0.71517  0.15520  1.0000
  C   C746      1.0  0.64134  0.74491  0.15147  1.0000
  C   C747      1.0  0.67244  0.74599  0.14543  1.0000
  C   C748      1.0  0.68926  0.71741  0.14309  1.0000
  H   H885      1.0  0.63316  0.66392  0.15591  1.0000
  H   H886      1.0  0.60345  0.71428  0.16017  1.0000
  H   H887      1.0  0.68345  0.76877  0.14246  1.0000
  H   H888      1.0  0.71333  0.71830  0.13839  1.0000
  H   H889      1.0  0.75803  0.50665  0.08511  1.0000
  C   C749      1.0  0.96401  0.55176  0.30068  1.0000
  C   C750      1.0  0.78867  0.91064  0.18809  1.0000
  H   H890      1.0  0.96131  0.59778  0.23564  1.0000
  N   N50       1.0  0.88481  0.94357  0.01733  1.0000
  C   C751      1.0  0.95319  0.89147  0.30197  1.0000
  C   C752      1.0  0.95819  0.91323  0.28971  1.0000
  H   H891      1.0  0.93780  0.92428  0.28411  1.0000
  H   H892      1.0  0.95179  0.51711  0.26760  1.0000
  C   C753      1.0  0.52576  0.55561  0.15461  1.0000
  C   C754      1.0  0.51966  0.55756  0.17089  1.0000
  H   H893      1.0  0.68128  0.97418  0.27459  1.0000
  H   H894      1.0  0.53955  0.55948  0.17923  1.0000
  C   C755      1.0  0.51891  0.88768  0.15137  1.0000
  C   C756      1.0  0.52609  0.91272  0.16211  1.0000
  H   H895      1.0  0.80031  0.90952  0.21308  1.0000
  H   H896      1.0  0.53821  0.87454  0.14601  1.0000
  C   C757      1.0  0.66696  0.99097  0.30644  1.0000
  C   C758      1.0  0.73832  0.93678  0.09817  1.0000
  H   H897      1.0  0.84144  0.89217  0.15872  1.0000
  H   H898      1.0  0.73695  0.91383  0.09207  1.0000
  H   H899      1.0  0.86493  0.78235  0.30859  1.0000
  H   H900      1.0  0.83659  0.95175  0.02560  1.0000
  C   C759      1.0  0.80442  0.49975  0.98772  1.0000
  C   C760      1.0  0.84078  0.89716  0.19880  1.0000
  C   C761      1.0  0.63641  0.98070  0.10688  1.0000
  H   H901      1.0  0.92176  0.94679  0.03552  1.0000
  H   H902      1.0  0.87257  0.93723  0.98531  1.0000
  H   H903      1.0  0.77293  0.51110  0.18125  1.0000
  C   C762      1.0  0.73799  0.49870  0.10833  1.0000
  N   N51       1.0  0.68124  0.76234  0.20045  1.0000
  C   C763      1.0  0.69997  0.77668  0.18734  1.0000
  C   C764      1.0  0.64660  0.76364  0.19632  1.0000
  C   C765      1.0  0.68689  0.78289  0.21478  1.0000
  C   C766      1.0  0.69030  0.72851  0.20263  1.0000
  C   C767      1.0  0.68818  0.70648  0.18968  1.0000
  C   C768      1.0  0.70049  0.71617  0.21748  1.0000
  C   C769      1.0  0.69567  0.67423  0.19140  1.0000
  C   C770      1.0  0.70784  0.68376  0.21910  1.0000
  C   C771      1.0  0.70534  0.66282  0.20611  1.0000
  H   H904      1.0  0.69436  0.76526  0.17566  1.0000
  H   H905      1.0  0.69458  0.80248  0.18587  1.0000
  H   H906      1.0  0.72623  0.77481  0.18957  1.0000
  H   H907      1.0  0.64065  0.75026  0.18516  1.0000
  H   H908      1.0  0.63876  0.78866  0.19438  1.0000
  H   H909      1.0  0.63153  0.75312  0.20582  1.0000
  H   H910      1.0  0.71268  0.78342  0.21839  1.0000
  H   H911      1.0  0.68033  0.80824  0.21259  1.0000
  H   H912      1.0  0.67205  0.77488  0.22493  1.0000
  H   H913      1.0  0.68048  0.71403  0.17810  1.0000
  H   H914      1.0  0.70291  0.73097  0.22803  1.0000
  H   H915      1.0  0.69387  0.65800  0.18123  1.0000
  H   H916      1.0  0.71545  0.67469  0.23051  1.0000
  H   H917      1.0  0.71081  0.63767  0.20743  1.0000
  H   H918      1.0  0.84438  0.91110  0.01963  1.0000
  H   H919      1.0  0.52703  0.61057  0.13305  1.0000
  H   H920      1.0  0.91557  0.57319  0.22476  1.0000
  S   S219      1.0  0.91403  0.88112  0.30914  1.0000
  C   C772      1.0  0.90114  0.92259  0.00577  1.0000
  C   C773      1.0  0.89598  0.93973  0.03398  1.0000
  H   H921      1.0  0.54092  0.62437  0.16067  1.0000
  H   H922      1.0  0.50548  0.94893  0.17713  1.0000
  C   C774      1.0  0.93156  0.88322  0.98290  1.0000
  H   H923      1.0  0.88281  0.95565  0.04229  1.0000
  H   H924      1.0  0.80832  0.66759  0.28899  1.0000
  C   C775      1.0  0.62551  0.95929  0.13282  1.0000
  C   C776      1.0  0.55265  0.68786  0.13660  1.0000
  H   H925      1.0  0.57862  0.68299  0.13490  1.0000
  H   H926      1.0  0.99320  0.93850  0.27555  1.0000
  C   C777      1.0  0.89164  0.92227  0.98953  1.0000
  C   C778      1.0  0.97089  0.57948  0.24318  1.0000
  C   C779      1.0  0.92696  0.90252  0.01004  1.0000
  H   H927      1.0  0.79796  0.95680  0.15295  1.0000
  Fe  Fe110     1.0  0.80207  0.53352  0.30977  1.0000
  C   C780      1.0  0.96942  0.58225  0.29440  1.0000
  H   H928      1.0  0.96136  0.86790  0.00222  1.0000
  H   H929      1.0  0.57655  0.64488  0.15534  1.0000
  H   H930      1.0  0.56403  0.62845  0.12735  1.0000
  N   N52       1.0  0.77830  0.91012  0.15818  1.0000
  C   C781      1.0  0.77375  0.87878  0.14991  1.0000
  C   C782      1.0  0.74602  0.92208  0.16221  1.0000
  C   C783      1.0  0.79299  0.93323  0.14701  1.0000
  C   C784      1.0  0.79944  0.90619  0.17225  1.0000
  H   H931      1.0  0.94874  0.80972  0.30101  1.0000
  N   N53       1.0  0.70761  0.95352  0.29399  1.0000
  H   H932      1.0  0.87047  0.53891  0.25776  1.0000
  C   C785      1.0  0.58149  0.97596  0.11630  1.0000
  H   H933      1.0  0.91331  0.59791  0.26696  1.0000
  H   H934      1.0  0.90038  0.76698  0.26922  1.0000
  H   H935      1.0  0.76369  0.86049  0.15809  1.0000
  H   H936      1.0  0.81585  0.92470  0.14197  1.0000
  H   H937      1.0  0.73270  0.90486  0.16981  1.0000
  H   H938      1.0  0.73091  0.92536  0.15139  1.0000
  H   H939      1.0  0.87821  0.59461  0.25429  1.0000
  H   H940      1.0  0.73433  0.52608  0.18637  1.0000
  H   H941      1.0  0.74742  0.97946  0.30480  1.0000
  H   H942      1.0  0.67466  0.91783  0.28435  1.0000
  H   H943      1.0  0.52693  0.64068  0.11816  1.0000
  C   C786      1.0  0.88688  0.77846  0.27901  1.0000
  H   H944      1.0  0.54353  0.69631  0.12496  1.0000
  C   C787      1.0  0.89690  0.53644  0.25916  1.0000
  H   H945      1.0  0.71350  0.97390  0.13184  1.0000
  H   H946      1.0  0.90238  0.51138  0.25568  1.0000
  H   H947      1.0  0.92457  0.82829  0.28643  1.0000
  H   H948      1.0  0.75688  0.88041  0.13959  1.0000
  H   H949      1.0  0.60946  0.94400  0.14020  1.0000
  H   H950      1.0  0.79175  0.51935  0.99316  1.0000
  C   C788      1.0  0.98027  0.87754  0.30909  1.0000
  H   H951      1.0  0.72231  0.96614  0.27033  1.0000
  C   C789      1.0  0.53830  0.63369  0.12957  1.0000
  H   H952      1.0  0.87851  0.80212  0.27485  1.0000
  C   C790      1.0  0.80916  0.90619  0.20110  1.0000
  H   H953      1.0  0.98508  0.70535  0.30551  1.0000
  H   H954      1.0  0.72728  0.52206  0.10908  1.0000
  C   C791      1.0  0.83174  0.89666  0.17036  1.0000
  H   H955      1.0  0.86470  0.76384  0.28087  1.0000
  C   C792      1.0  0.74676  0.50574  0.18063  1.0000
  C   C793      1.0  0.95069  0.74171  0.29998  1.0000
  C   C794      1.0  0.95028  0.55765  0.25115  1.0000
  C   C795      1.0  0.80403  0.71911  0.28880  1.0000
  C   C796      1.0  0.67600  0.98706  0.08566  1.0000
  H   H956      1.0  0.77695  0.93750  0.13660  1.0000
  N   N54       1.0  0.91495  0.56006  0.24951  1.0000
  H   H957      1.0  0.74760  0.94572  0.16844  1.0000
  H   H958      1.0  0.89217  0.91478  0.03810  1.0000
  H   H959      1.0  0.65244  0.94311  0.09038  1.0000
  Fe  Fe111     1.0  0.82296  0.60406  0.30855  1.0000
  C   C797      1.0  0.93367  0.80462  0.29024  1.0000
  C   C798      1.0  0.90422  0.69483  0.30677  1.0000
  H   H960      1.0  0.96987  0.75871  0.29768  1.0000
  C   C799      1.0  0.75514  0.96256  0.09108  1.0000
  H   H961      1.0  0.59133  0.91399  0.11711  1.0000
  H   H962      1.0  0.90230  0.53983  0.27203  1.0000
  C   C800      1.0  0.70004  0.92029  0.28850  1.0000
  C   C801      1.0  0.55026  0.64809  0.15682  1.0000
  C   C802      1.0  0.68569  0.96285  0.30691  1.0000
  H   H963      1.0  0.76440  0.91719  0.19085  1.0000
  H   H964      1.0  0.74000  0.50544  0.16781  1.0000
  H   H965      1.0  0.83859  0.94167  0.00525  1.0000
  H   H966      1.0  0.68994  0.97673  0.07614  1.0000
  C   C803      1.0  0.79169  0.96370  0.98250  1.0000
  H   H967      1.0  0.50364  0.55142  0.13140  1.0000
  H   H968      1.0  0.63206  0.91431  0.11077  1.0000
  H   H969      1.0  0.76638  0.95927  0.07967  1.0000
  H   H970      1.0  0.54671  0.66557  0.16669  1.0000
  H   H971      1.0  0.91291  0.53094  0.22831  1.0000
  C   C804      1.0  0.85206  0.89238  0.18346  1.0000
  C   C805      1.0  0.49937  0.55310  0.14402  1.0000
  C   C806      1.0  0.89055  0.97749  0.01306  1.0000
  H   H972      1.0  0.88345  0.98243  0.00066  1.0000
  H   H973      1.0  0.80111  0.72005  0.27604  1.0000
  H   H974      1.0  0.65001  0.94910  0.13320  1.0000
  C   C807      1.0  0.72516  0.97038  0.12058  1.0000
  C   C808      1.0  0.65419  0.96796  0.09400  1.0000
  H   H975      1.0  0.69403  0.54995  0.24079  1.0000
  N   N55       1.0  0.61360  0.96112  0.11624  1.0000
  H   H976      1.0  0.87852  0.55585  0.23118  1.0000
  H   H977      1.0  0.86946  0.72971  0.30149  1.0000
  C   C809      1.0  0.90515  0.55479  0.23270  1.0000
  N   N56       1.0  0.53470  0.65893  0.14194  1.0000
  H   H978      1.0  0.87664  0.88512  0.18172  1.0000
  H   H979      1.0  0.74270  0.55503  0.25806  1.0000
  C   C810      1.0  0.90487  0.59245  0.25461  1.0000
  H   H980      1.0  0.62685  0.98308  0.13885  1.0000
  C   C811      1.0  0.84971  0.93662  0.01693  1.0000
  H   H981      1.0  0.75866  0.94930  0.29071  1.0000
  H   H982      1.0  0.71576  0.91289  0.27850  1.0000
  C   C812      1.0  0.80497  0.98954  0.99144  1.0000
  H   H983      1.0  0.91439  0.61164  0.24689  1.0000
  H   H984      1.0  0.77031  0.95154  0.98669  1.0000
  C   C813      1.0  0.60924  0.92781  0.11008  1.0000
  H   H985      1.0  0.87977  0.82070  0.30317  1.0000
  H   H986      1.0  0.57220  0.97900  0.10398  1.0000
  C   C814      1.0  0.50008  0.66439  0.14459  1.0000
  H   H987      1.0  0.70377  0.90243  0.29796  1.0000
  H   H988      1.0  0.94911  0.79580  0.28049  1.0000
  C   C815      1.0  0.50038  0.92945  0.16886  1.0000
  C   C816      1.0  0.90659  0.90289  0.97831  1.0000
  C   C817      1.0  0.70588  0.97439  0.27987  1.0000
  H   H989      1.0  0.56360  0.96107  0.12285  1.0000
  C   C818      1.0  0.91774  0.74974  0.29859  1.0000
  C   C819      1.0  0.75706  0.99258  0.09865  1.0000
  C   C820      1.0  0.95983  0.71103  0.30453  1.0000
  C   C821      1.0  0.89487  0.72533  0.30218  1.0000
  C   C822      1.0  0.94178  0.88310  0.99871  1.0000
  C   C823      1.0  0.98975  0.92128  0.28489  1.0000
  H   H990      1.0  0.74522  0.93798  0.30984  1.0000
  H   H991      1.0  0.94923  0.59706  0.29155  1.0000
  C   C824      1.0  0.99086  0.53306  0.30435  1.0000
  H   H992      1.0  0.98712  0.50947  0.30922  1.0000
  H   H993      1.0  0.91641  0.98438  0.01434  1.0000
  C   C825      1.0  0.93667  0.68765  0.30789  1.0000
  H   H994      1.0  0.88610  0.67674  0.30953  1.0000
  H   H995      1.0  0.87676  0.99405  0.02076  1.0000
  H   H996      1.0  0.49809  0.71438  0.13676  1.0000
  C   C826      1.0  0.74212  0.99612  0.11352  1.0000
  H   H997      1.0  0.72131  0.57682  0.50829  1.0000
  H   H998      1.0  0.72320  0.91433  0.36761  1.0000
  S   S220      1.0  0.76201  0.91019  0.33953  1.0000
  C   C827      1.0  0.52212  0.71601  0.58282  1.0000
  C   C828      1.0  0.72506  0.93830  0.36296  1.0000
  S   S221      1.0  0.81658  0.65076  0.32223  1.0000
  Fe  Fe112     1.0  0.66123  0.53514  0.52795  1.0000
  H   H999      1.0  0.68145  0.94367  0.62598  1.0000
  C   C829      1.0  0.72396  0.94217  0.50417  1.0000
  Fe  Fe113     1.0  0.64313  0.59639  0.54671  1.0000
  S   S222      1.0  0.63067  0.56794  0.56848  1.0000
  S   S223      1.0  0.62977  0.64860  0.54117  1.0000
  Fe  Fe114     1.0  0.67548  0.53918  0.56399  1.0000
  S   S224      1.0  0.70884  0.52802  0.58528  1.0000
  Fe  Fe115     1.0  0.60672  0.53262  0.55167  1.0000
  H   H1000     1.0  0.52891  0.66763  0.57449  1.0000
  S   S225      1.0  0.68977  0.57051  0.54332  1.0000
  S   S226      1.0  0.61565  0.56237  0.53023  1.0000
  Fe  Fe116     1.0  0.66024  0.84361  0.54970  1.0000
  S   S227      1.0  0.64780  0.87444  0.57092  1.0000
  S   S228      1.0  0.67836  0.79316  0.55520  1.0000
  Fe  Fe117     1.0  0.64219  0.89708  0.52631  1.0000
  S   S229      1.0  0.62721  0.93041  0.54590  1.0000
  S   S230      1.0  0.63650  0.90624  0.49970  1.0000
  Fe  Fe118     1.0  0.67251  0.91550  0.55873  1.0000
  S   S231      1.0  0.70435  0.95708  0.56866  1.0000
  Fe  Fe119     1.0  0.60400  0.88678  0.55657  1.0000
  S   S232      1.0  0.55629  0.88124  0.56905  1.0000
  S   S233      1.0  0.68868  0.88395  0.53840  1.0000
  S   S234      1.0  0.61525  0.85425  0.53609  1.0000
  C   C830      1.0  0.72485  0.96590  0.58702  1.0000
  C   C831      1.0  0.58921  0.94228  0.60095  1.0000
  H   H1001     1.0  0.67199  0.61930  0.51998  1.0000
  C   C832      1.0  0.72623  0.94407  0.59945  1.0000
  H   H1002     1.0  0.58434  0.67832  0.56540  1.0000
  H   H1003     1.0  0.78948  0.59647  0.33701  1.0000
  H   H1004     1.0  0.71517  0.92057  0.59795  1.0000
  C   C833      1.0  0.64196  0.94184  0.48849  1.0000
  Fe  Fe120     1.0  0.79245  0.89586  0.31767  1.0000
  C   C834      1.0  0.71094  0.65542  0.49979  1.0000
  H   H1005     1.0  0.72607  0.64261  0.35569  1.0000
  C   C835      1.0  0.52178  0.89605  0.55954  1.0000
  C   C836      1.0  0.59791  0.95341  0.58608  1.0000
  C   C837      1.0  0.52410  0.91258  0.54529  1.0000
  C   C838      1.0  0.51460  0.50587  0.48297  1.0000
  H   H1006     1.0  0.54733  0.91656  0.53996  1.0000
  C   C839      1.0  0.64548  0.96714  0.46241  1.0000
  H   H1007     1.0  0.53713  0.95583  0.49129  1.0000
  H   H1008     1.0  0.60043  0.51133  0.58437  1.0000
  C   C840      1.0  0.67320  0.53343  0.36616  1.0000
  H   H1009     1.0  0.65098  0.62691  0.50160  1.0000
  H   H1010     1.0  0.69798  0.92310  0.32234  1.0000
  N   N57       1.0  0.70217  0.62087  0.49939  1.0000
  C   C841      1.0  0.64465  0.68844  0.54485  1.0000
  C   C842      1.0  0.67022  0.69541  0.55530  1.0000
  C   C843      1.0  0.68037  0.72749  0.55809  1.0000
  C   C844      1.0  0.66531  0.75311  0.55048  1.0000
  C   C845      1.0  0.64016  0.74609  0.53975  1.0000
  C   C846      1.0  0.62983  0.71402  0.53705  1.0000
  H   H1011     1.0  0.68198  0.67614  0.56137  1.0000
  H   H1012     1.0  0.69998  0.73251  0.56634  1.0000
  H   H1013     1.0  0.62863  0.76533  0.53356  1.0000
  H   H1014     1.0  0.61017  0.70898  0.52885  1.0000
  H   H1015     1.0  0.75109  0.60498  0.50196  1.0000
  C   C847      1.0  0.63895  0.94014  0.47185  1.0000
  H   H1016     1.0  0.71044  0.90681  0.48636  1.0000
  C   C848      1.0  0.74792  0.62841  0.35343  1.0000
  H   H1017     1.0  0.56911  0.92552  0.60185  1.0000
  C   C849      1.0  0.52458  0.53067  0.55719  1.0000
  C   C850      1.0  0.52677  0.56406  0.55667  1.0000
  H   H1018     1.0  0.75389  0.65053  0.48540  1.0000
  H   H1019     1.0  0.55006  0.57586  0.55598  1.0000
  C   C851      1.0  0.53582  0.74671  0.58474  1.0000
  C   C852      1.0  0.74825  0.69905  0.49260  1.0000
  C   C853      1.0  0.68378  0.94431  0.32088  1.0000
  H   H1020     1.0  0.52082  0.76468  0.58999  1.0000
  N   N58       1.0  0.74010  0.59885  0.34405  1.0000
  C   C854      1.0  0.74555  0.97498  0.34352  1.0000
  H   H1021     1.0  0.72573  0.58876  0.31962  1.0000
  C   C855      1.0  0.64146  0.98465  0.59813  1.0000
  H   H1022     1.0  0.71699  0.92615  0.51350  1.0000
  C   C856      1.0  0.57078  0.69743  0.57087  1.0000
  H   H1023     1.0  0.76694  0.56006  0.33388  1.0000
  C   C857      1.0  0.69962  0.60878  0.48277  1.0000
  H   H1024     1.0  0.54654  0.77616  0.53096  1.0000
  C   C858      1.0  0.65042  0.97126  0.49562  1.0000
  H   H1025     1.0  0.97685  0.86079  0.31863  1.0000
  H   H1026     1.0  0.61492  0.77055  0.60026  1.0000
  H   H1027     1.0  0.74254  0.93562  0.62346  1.0000
  C   C859      1.0  0.70309  0.71066  0.50923  1.0000
  C   C860      1.0  0.74189  0.95267  0.61391  1.0000
  H   H1028     1.0  0.69481  0.95870  0.38117  1.0000
  H   H1029     1.0  0.63224  0.91759  0.46617  1.0000
  C   C861      1.0  0.81136  0.71627  0.32166  1.0000
  C   C862      1.0  0.64715  0.98143  0.33294  1.0000
  C   C863      1.0  0.70393  0.54991  0.34338  1.0000
  H   H1030     1.0  0.75988  0.62290  0.36492  1.0000
  C   C864      1.0  0.53714  0.50083  0.49498  1.0000
  C   C865      1.0  0.51730  0.96023  0.48320  1.0000
  C   C866      1.0  0.74342  0.94365  0.34924  1.0000
  C   C867      1.0  0.70882  0.96352  0.37071  1.0000
  H   H1031     1.0  0.49775  0.71120  0.58669  1.0000
  H   H1032     1.0  0.50706  0.81736  0.52751  1.0000
  H   H1033     1.0  0.59771  0.82403  0.56636  1.0000
  C   C868      1.0  0.72739  0.60288  0.50781  1.0000
  C   C869      1.0  0.70568  0.58216  0.36748  1.0000
  H   H1034     1.0  0.65199  0.97304  0.50838  1.0000
  H   H1035     1.0  0.76968  0.70714  0.48653  1.0000
  S   S235      1.0  0.65047  0.50239  0.54828  1.0000
  H   H1036     1.0  0.69155  0.58312  0.48226  1.0000
  H   H1037     1.0  0.54831  0.97379  0.46403  1.0000
  H   H1038     1.0  0.59914  0.94260  0.62575  1.0000
  H   H1039     1.0  0.63305  0.77154  0.58099  1.0000
  H   H1040     1.0  0.66444  0.93935  0.34434  1.0000
  H   H1041     1.0  0.60130  0.78515  0.55773  1.0000
  C   C870      1.0  0.72847  0.60905  0.32820  1.0000
  H   H1042     1.0  0.76516  0.64439  0.34707  1.0000
  S   S236      1.0  0.68086  0.52195  0.50350  1.0000
  H   H1043     1.0  0.98657  0.96606  0.59333  1.0000
  H   H1044     1.0  0.71180  0.54388  0.33153  1.0000
  H   H1045     1.0  0.75993  0.97987  0.33322  1.0000
  H   H1046     1.0  0.90116  0.79836  0.31771  1.0000
  C   C871      1.0  0.75436  0.96286  0.53430  1.0000
  C   C872      1.0  0.71606  0.57754  0.35159  1.0000
  C   C873      1.0  0.67103  0.61354  0.50708  1.0000
  H   H1047     1.0  0.72291  0.60969  0.47651  1.0000
  C   C874      1.0  0.73041  0.72096  0.50125  1.0000
  S   S237      1.0  0.77061  0.99423  0.63572  1.0000
  H   H1048     1.0  0.67744  0.56377  0.38681  1.0000
  H   H1049     1.0  0.62670  0.80780  0.59122  1.0000
  H   H1050     1.0  0.68201  0.62281  0.47583  1.0000
  S   S238      1.0  0.84132  0.56202  0.32236  1.0000
  H   H1051     1.0  0.65965  0.49827  0.61516  1.0000
  H   H1052     1.0  0.64386  0.96515  0.44961  1.0000
  H   H1053     1.0  0.56235  0.80256  0.55983  1.0000
  C   C875      1.0  0.53153  0.51218  0.51029  1.0000
  H   H1054     1.0  0.57726  0.83188  0.59306  1.0000
  C   C876      1.0  0.69333  0.67846  0.50853  1.0000
  H   H1055     1.0  0.60887  0.73134  0.56855  1.0000
  C   C877      1.0  0.72001  0.93081  0.48858  1.0000
  C   C878      1.0  0.68256  0.52848  0.35053  1.0000
  H   H1056     1.0  0.77793  0.95651  0.52916  1.0000
  C   C879      1.0  0.66471  0.95349  0.33363  1.0000
  H   H1057     1.0  0.66440  0.58765  0.50610  1.0000
  H   H1058     1.0  0.68951  0.72771  0.51615  1.0000
  C   C880      1.0  0.63290  0.97424  0.61356  1.0000
  H   H1059     1.0  0.74030  0.94036  0.53611  1.0000
  S   S239      1.0  0.82910  0.85647  0.31906  1.0000
  C   C881      1.0  0.77019  0.58105  0.34203  1.0000
  C   C882      1.0  0.62410  0.97433  0.58467  1.0000
  C   C883      1.0  0.68461  0.56026  0.37459  1.0000
  H   H1060     1.0  0.54105  0.81413  0.58589  1.0000
  H   H1061     1.0  0.77917  0.57189  0.35356  1.0000
  C   C884      1.0  0.53958  0.69141  0.57595  1.0000
  H   H1062     1.0  0.81413  0.71527  0.33442  1.0000
  C   C885      1.0  0.73884  0.66672  0.49193  1.0000
  C   C886      1.0  0.51391  0.74261  0.54167  1.0000
  H   H1063     1.0  0.74895  0.52098  0.61302  1.0000
  H   H1064     1.0  0.75873  0.97253  0.54655  1.0000
  H   H1065     1.0  0.71389  0.60215  0.37477  1.0000
  H   H1066     1.0  0.67207  0.67223  0.51510  1.0000
  H   H1067     1.0  0.73788  0.74596  0.50191  1.0000
  H   H1068     1.0  0.73049  0.61173  0.52027  1.0000
  N   N59       1.0  0.58310  0.78575  0.58160  1.0000
  C   C887      1.0  0.56450  0.80831  0.59153  1.0000
  C   C888      1.0  0.61568  0.78367  0.58887  1.0000
  C   C889      1.0  0.58621  0.79984  0.56566  1.0000
  C   C890      1.0  0.56788  0.75350  0.57996  1.0000
  C   C891      1.0  0.58472  0.72796  0.57279  1.0000
  H   H1069     1.0  0.70486  0.62093  0.32909  1.0000
  C   C892      1.0  0.52210  0.77179  0.53484  1.0000
  H   H1070     1.0  0.56031  0.79863  0.60359  1.0000
  H   H1071     1.0  0.58452  0.94547  0.57560  1.0000
  C   C893      1.0  0.71049  0.99472  0.36482  1.0000
  H   H1072     1.0  0.63320  0.98888  0.34309  1.0000
  H   H1073     1.0  0.61119  0.51440  0.60486  1.0000
  H   H1074     1.0  0.64182  0.50957  0.58997  1.0000
  C   C894      1.0  0.60646  0.95236  0.61452  1.0000
  N   N60       1.0  0.65094  0.98432  0.62810  1.0000
  H   H1075     1.0  0.80724  0.76789  0.32142  1.0000
  H   H1076     1.0  0.50364  0.98435  0.44550  1.0000
  H   H1077     1.0  0.64901  0.93812  0.63944  1.0000
  S   S240      1.0  0.55936  0.50721  0.55649  1.0000
  H   H1078     1.0  0.63139  0.98225  0.57302  1.0000
  H   H1079     1.0  0.67407  0.50728  0.34409  1.0000
  H   H1080     1.0  0.69080  0.96690  0.53067  1.0000
  C   C895      1.0  0.73482  0.97398  0.50752  1.0000
  H   H1081     1.0  0.50069  0.60813  0.55677  1.0000
  C   C896      1.0  0.70440  0.99008  0.53032  1.0000
  C   C897      1.0  0.50360  0.52893  0.51359  1.0000
  C   C898      1.0  0.75607  0.98329  0.61631  1.0000
  C   C899      1.0  0.52367  0.97037  0.46785  1.0000
  C   C900      1.0  0.61717  0.50202  0.59354  1.0000
  C   C901      1.0  0.72606  0.95092  0.47588  1.0000
  H   H1082     1.0  0.70083  0.50171  0.47245  1.0000
  H   H1083     1.0  0.72148  0.94252  0.46382  1.0000
  H   H1084     1.0  0.54888  0.50799  0.51973  1.0000
  H   H1085     1.0  0.74568  0.62621  0.32260  1.0000
  C   C902      1.0  0.66665  0.95605  0.63500  1.0000
  C   C903      1.0  0.73631  0.98240  0.47870  1.0000
  C   C904      1.0  0.80751  0.74612  0.31433  1.0000
  H   H1086     1.0  0.78306  0.51096  0.35330  1.0000
  N   N61       1.0  0.73722  0.98598  0.52413  1.0000
  H   H1087     1.0  0.65754  0.51607  0.37182  1.0000
  C   C905      1.0  0.49878  0.58229  0.55712  1.0000
  H   H1088     1.0  0.50019  0.53682  0.52569  1.0000
  H   H1089     1.0  0.53189  0.72439  0.54308  1.0000
  C   C906      1.0  0.49897  0.79532  0.53286  1.0000
  C   C907      1.0  0.74068  0.99394  0.49425  1.0000
  C   C908      1.0  0.81173  0.68778  0.31258  1.0000
  H   H1090     1.0  0.49843  0.93727  0.52700  1.0000
  C   C909      1.0  0.74398  0.49709  0.60841  1.0000
  H   H1091     1.0  0.51889  0.49669  0.47109  1.0000
  H   H1092     1.0  0.94386  0.66394  0.31145  1.0000
  C   C910      1.0  0.49837  0.97629  0.45742  1.0000
  H   H1093     1.0  0.61103  0.98010  0.64432  1.0000
  C   C911      1.0  0.65556  0.99615  0.46950  1.0000
  C   C912      1.0  0.73982  0.99622  0.58924  1.0000
  Fe  Fe121     1.0  0.83113  0.59826  0.90970  1.0000
  S   S241      1.0  0.84818  0.56092  0.89194  1.0000
  S   S242      1.0  0.83077  0.65024  0.90042  1.0000
  Fe  Fe122     1.0  0.82120  0.54671  0.93549  1.0000
  H   H1094     1.0  0.89864  0.90332  0.96599  1.0000
  S   S243      1.0  0.80597  0.53766  0.96109  1.0000
  Fe  Fe123     1.0  0.87684  0.54190  0.91255  1.0000
  C   C913      1.0  0.81435  0.94013  0.83369  1.0000
  Fe  Fe124     1.0  0.80693  0.52952  0.90029  1.0000
  C   C914      1.0  0.96453  0.64246  0.91378  1.0000
  S   S244      1.0  0.86205  0.58043  0.92970  1.0000
  S   S245      1.0  0.78847  0.56777  0.91693  1.0000
  Fe  Fe125     1.0  0.88184  0.89017  0.89816  1.0000
  S   S246      1.0  0.87855  0.87552  0.92359  1.0000
  S   S247      1.0  0.92690  0.88786  0.88322  1.0000
  Fe  Fe126     1.0  0.80928  0.90085  0.89486  1.0000
  S   S248      1.0  0.80077  0.88643  0.92035  1.0000
  S   S249      1.0  0.76760  0.90966  0.87727  1.0000
  Fe  Fe127     1.0  0.84472  0.91681  0.92636  1.0000
  S   S250      1.0  0.85553  0.95404  0.94606  1.0000
  Fe  Fe128     1.0  0.83521  0.84595  0.91576  1.0000
  S   S251      1.0  0.82728  0.79574  0.92626  1.0000
  S   S252      1.0  0.85114  0.93351  0.90111  1.0000
  S   S253      1.0  0.84054  0.85820  0.89008  1.0000
  C   C915      1.0  0.75674  0.94297  0.86521  1.0000
  C   C916      1.0  0.72919  0.94035  0.85537  1.0000
  H   H1095     1.0  0.74297  0.50059  0.94062  1.0000
  C   C917      1.0  0.72012  0.96554  0.84526  1.0000
  H   H1096     1.0  0.71479  0.91854  0.85546  1.0000
  H   H1097     1.0  0.91271  0.63154  0.93338  1.0000
  S   S254      1.0  0.83740  0.50741  0.91940  1.0000
  C   C918      1.0  0.96468  0.90114  0.89088  1.0000
  H   H1098     1.0  0.91383  0.91397  0.84858  1.0000
  C   C919      1.0  0.99271  0.53295  0.91654  1.0000
  S   S255      1.0  0.92745  0.52326  0.91593  1.0000
  H   H1099     1.0  0.95594  0.87244  0.93529  1.0000
  C   C920      1.0  0.83421  0.96809  0.96293  1.0000
  C   C921      1.0  0.87626  0.95814  0.86226  1.0000
  H   H1100     1.0  0.79611  0.93264  0.96184  1.0000
  C   C922      1.0  0.84556  0.95237  0.83770  1.0000
  H   H1101     1.0  0.83132  0.91199  0.86267  1.0000
  H   H1102     1.0  0.94277  0.83877  0.91178  1.0000
  H   H1103     1.0  0.88648  0.65718  0.92324  1.0000
  C   C923      1.0  0.80626  0.95293  0.96837  1.0000
  H   H1104     1.0  0.87030  0.89508  0.86403  1.0000
  C   C924      1.0  0.99154  0.82396  0.90822  1.0000
  C   C925      1.0  0.83121  0.69046  0.90807  1.0000
  C   C926      1.0  0.83379  0.71602  0.89736  1.0000
  C   C927      1.0  0.83347  0.74827  0.90268  1.0000
  C   C928      1.0  0.83030  0.75553  0.91885  1.0000
  C   C929      1.0  0.82820  0.72997  0.92958  1.0000
  C   C930      1.0  0.82879  0.69770  0.92427  1.0000
  H   H1105     1.0  0.83563  0.71082  0.88480  1.0000
  H   H1106     1.0  0.83513  0.76746  0.89423  1.0000
  H   H1107     1.0  0.82565  0.73516  0.94211  1.0000
  H   H1108     1.0  0.82665  0.67849  0.93270  1.0000
  C   C931      1.0  0.96389  0.53863  0.90830  1.0000
  H   H1109     1.0  0.98416  0.67615  0.89640  1.0000
  C   C932      1.0  0.96493  0.55528  0.89405  1.0000
  H   H1110     1.0  0.89176  0.94621  0.87121  1.0000
  H   H1111     1.0  0.94307  0.55847  0.88727  1.0000
  H   H1112     1.0  0.79306  0.50444  0.85602  1.0000
  H   H1113     1.0  0.99507  0.57988  0.87728  1.0000
  H   H1114     1.0  0.91921  0.59633  0.90985  1.0000
  C   C933      1.0  0.97473  0.85923  0.92946  1.0000
  C   C934      1.0  0.81469  0.50241  0.97192  1.0000
  C   C935      1.0  0.73871  0.99377  0.84469  1.0000
  C   C936      1.0  0.98924  0.65900  0.90549  1.0000
  C   C937      1.0  0.91239  0.65257  0.92548  1.0000
  H   H1115     1.0  0.89714  0.67824  0.89835  1.0000
  H   H1116     1.0  0.98405  0.81031  0.89783  1.0000
  H   H1117     1.0  0.92268  0.67347  0.93224  1.0000
  C   C938      1.0  0.85325  0.90666  0.85574  1.0000
  H   H1118     1.0  0.89003  0.97962  0.85841  1.0000
  H   H1119     1.0  0.92903  0.61334  0.89106  1.0000
  C   C939      1.0  0.77495  0.97148  0.86489  1.0000
  C   C940      1.0  0.96734  0.84015  0.91621  1.0000
  H   H1120     1.0  0.94569  0.92598  0.91114  1.0000
  C   C941      1.0  0.96716  0.91963  0.90480  1.0000
  C   C942      1.0  0.99445  0.56695  0.88832  1.0000
  H   H1121     1.0  0.79603  0.97414  0.87240  1.0000
  H   H1122     1.0  0.93306  0.67109  0.88793  1.0000
  H   H1123     1.0  0.94303  0.86813  0.97417  1.0000
  C   C943      1.0  0.92343  0.67479  0.90006  1.0000
  C   C944      1.0  0.97441  0.61934  0.92494  1.0000
  H   H1124     1.0  0.93350  0.69749  0.90526  1.0000
  N   N62       1.0  0.86746  0.93618  0.84886  1.0000
  H   H1125     1.0  0.69906  0.96284  0.83770  1.0000
  C   C945      1.0  0.89720  0.92701  0.84056  1.0000
  H   H1126     1.0  0.89062  0.62024  0.89968  1.0000
  C   C946      1.0  0.99279  0.89334  0.88271  1.0000
  H   H1127     1.0  0.85445  0.96658  0.86846  1.0000
  C   C947      1.0  0.80418  0.98524  0.81671  1.0000
  N   N63       1.0  0.73993  0.80241  0.90174  1.0000
  C   C948      1.0  0.76702  0.81594  0.89256  1.0000
  C   C949      1.0  0.70945  0.80931  0.89329  1.0000
  C   C950      1.0  0.73944  0.81965  0.91728  1.0000
  C   C951      1.0  0.74359  0.76733  0.90315  1.0000
  C   C952      1.0  0.74678  0.75182  0.91800  1.0000
  C   C953      1.0  0.74451  0.74756  0.88932  1.0000
  C   C954      1.0  0.75044  0.71866  0.91882  1.0000
  C   C955      1.0  0.74852  0.71447  0.89029  1.0000
  C   C956      1.0  0.75146  0.70006  0.90502  1.0000
  H   H1128     1.0  0.76604  0.84255  0.89188  1.0000
  H   H1129     1.0  0.79037  0.80975  0.89815  1.0000
  H   H1130     1.0  0.76734  0.80687  0.88013  1.0000
  H   H1131     1.0  0.68853  0.79863  0.89958  1.0000
  H   H1132     1.0  0.70897  0.79971  0.88094  1.0000
  H   H1133     1.0  0.70566  0.83559  0.89238  1.0000
  H   H1134     1.0  0.76236  0.81671  0.92400  1.0000
  H   H1135     1.0  0.73662  0.84592  0.91581  1.0000
  H   H1136     1.0  0.71921  0.81118  0.92475  1.0000
  H   H1137     1.0  0.74752  0.76479  0.92917  1.0000
  H   H1138     1.0  0.74271  0.75762  0.87761  1.0000
  H   H1139     1.0  0.75371  0.70741  0.93024  1.0000
  H   H1140     1.0  0.75002  0.69989  0.87960  1.0000
  H   H1141     1.0  0.75553  0.67452  0.90573  1.0000
  N   N64       1.0  0.92996  0.64714  0.91046  1.0000
  C   C957      1.0  0.91662  0.61801  0.90245  1.0000
  H   H1142     1.0  0.91095  0.94813  0.83621  1.0000
  H   H1143     1.0  0.89159  0.91113  0.83014  1.0000
  H   H1144     1.0  0.76232  0.49697  0.92205  1.0000
  H   H1145     1.0  0.84707  0.88841  0.84642  1.0000
  H   H1146     1.0  0.95714  0.60432  0.93099  1.0000
  H   H1147     1.0  0.87865  0.99214  0.83286  1.0000
  H   H1148     1.0  0.80443  0.91852  0.83873  1.0000
  H   H1149     1.0  0.68297  0.96282  0.64513  1.0000
  H   H1150     1.0  0.99210  0.51974  0.92749  1.0000
  C   C958      1.0  0.85523  0.98149  0.83048  1.0000
  H   H1151     1.0  0.77016  0.94713  0.82070  1.0000
  H   H1152     1.0  0.99104  0.87943  0.87181  1.0000
  C   C959      1.0  0.79420  0.95637  0.82327  1.0000
  C   C960      1.0  0.84701  0.99441  0.97168  1.0000
  S   S256      1.0  0.76815  0.49636  0.88850  1.0000
