data_image0
_chemical_formula_structural       CH4SHCH6C3HCHFeHC4FeNS2C3HCHC2H7CH3CFeS2HSFeSFeHSHFeS2HSFeCFeSCSC2H5NH2C4HC6H10C4HCSC3HC3H3CSHCHCH3CHCHCSCH4CH4C2FeC3FeS2FeS2FeSFeS3FeS2FeS2FeSFeHS2C3H2CNCH2NC7HC2HCHC7H4C3HCHNC6HC2H13C4H2CH2NCHCH4CHCH3CH4CH2CHC2H4C3HC2H5CH3C4H4C3HCH2C2HCHNHCH5C4H3C2FeHSHCNH3C3S2CHC2HCH3SH5NH5C2H2C3HSCHC4HCH2C4H4CHCNHSC2H2CHFeH5SCHSC2H2C3SHC3HC2HC2H9FeCH3CHSH3CH2C2HNHCHCFeS2CHFeHFeSHFeSHS2HFeHFeS2FeS2FeSFeS3FeS2FeSCFeHFeS3HC3SCHCSFeC4H2C6H4C3SNHSNHC2HCHCHCHC2HC4HC8H3C6H4CH2C3H2FeC2HCHCH2C2H2CH3NC9H14CSCH2C2HC2HC3HC5HCH3C3SHFeHC2HSC4SCH2CHCSCH2SCHCHC2H3SH2NH4CH3CH2CHC2H2S2C2HSHNHCHNCH3C4H2CH4CH2FeH2C2HCH2CSH3CH2CNH3FeS2FeS2FeSFeHS2FeS2FeS2FeHFeS3CSC2H5CH4CHC6H4CH3C3H3CHCSHC2H4CHC3H5C2HC2HCH3C3H2NHCH4S2HCNC3HCH9CHC6H3C2HC2HNH3CH3CH2C4H2NC2HCNH3CHCHCH4C2H6C2SH2SCH2CHC2H5FeHCHC2HCNS2FeSCFeS2FeHFeS3FeS2FeS2FeSFeHS2CHC2HCH2C3HCHC7H4C3SCH4C3H3CH7C3HC2HCHCHNHC6H2C2H2CH2C3HC2NH4C3H4CH3NC9H12CH6C2HCH2NH2CHCFeH4SCH2C3H4NCHCSCHCH6CHCH3C2H4C2FeS2FeHCFeCSFeS2FeS2FeSHFeSFeHS2FeSHFeS2FeSFeS3H2S2C6HCH3CHC10HCHC7H4CHCH2CH2CHC2HC3NC2H3C2HCHSHFeC5HC3SHC3H2C3H9CHSCHC2HCHCH3CH2CH3C2H2CHCHSH2FeCNC6H13CHCHCH2N2HCHC2HCHNC2SH2C4HCHCHC2HCH4CHC3H2SCNCHC3HFeHCH3C2H5SC4SHSHC2H6C2H5CNCH4FeC2HFeHSHCSCFeHC2FeH2CHCSCSHC3H4SNC2H4CHC2H5C2HCNCSCSCHC2FeH2CH2CH2C3NH3NSHCHCH3CHFeH4CHC2HC2SC3H3CH7C3SC2HFeSHCHC3HSHFeS2FeS2FeSFeCS2FeS2FeS2FeSFeHS2H2C2H5CSCH3C6H8CHCH3NH4NC9H11NHNCH3CHCHCHSH3C3HC3NH2CHCH7CHC5H2CH2CH4CHC2HC3HCH2CHC2H4C3HCHCH2CSFeS2FeHFeSH2FeCSFeCHNFeCS2HCH3C5S2HCSHCH3C3HCH2C2H2FeHSC2H2NHCH4SHC5HCSH4CHCH3CHSH2SFeHC2FeCHNHCSH4CS2HCH2CFeCSC2HCSC3SH2C3HC2FeH6CH2C3H
_chemical_formula_sum              "C720 H864 S192 Fe96 N48"
_cell_length_a       58.9538
_cell_length_b       59.0831
_cell_length_c       38.8777
_cell_angle_alpha    90.5196
_cell_angle_beta     90.145
_cell_angle_gamma    120.898

_space_group_name_H-M_alt    "P 1"
_space_group_IT_number       1

loop_
  _space_group_symop_operation_xyz
  'x, y, z'

loop_
  _atom_site_type_symbol
  _atom_site_label
  _atom_site_symmetry_multiplicity
  _atom_site_fract_x
  _atom_site_fract_y
  _atom_site_fract_z
  _atom_site_occupancy
  C   C1        1.0  0.26748  0.45374  0.47057  1.0000
  H   H1        1.0  0.14025  0.40512  0.07727  1.0000
  H   H2        1.0  0.05059  0.48189  0.48096  1.0000
  H   H3        1.0  0.33705  0.43697  0.21824  1.0000
  H   H4        1.0  0.32253  0.42584  0.17716  1.0000
  S   S1        1.0  0.29757  0.45046  0.01121  1.0000
  H   H5        1.0  0.24766  0.41965  0.06270  1.0000
  C   C2        1.0  0.20732  0.44493  0.05722  1.0000
  H   H6        1.0  0.32377  0.39261  0.14662  1.0000
  H   H7        1.0  0.33514  0.33109  0.49412  1.0000
  H   H8        1.0  0.30762  0.40487  0.21358  1.0000
  H   H9        1.0  0.29690  0.49400  0.45996  1.0000
  H   H10       1.0  0.33734  0.48352  0.29398  1.0000
  H   H11       1.0  0.24667  0.45982  0.07740  1.0000
  C   C3        1.0  0.26195  0.49126  0.48249  1.0000
  C   C4        1.0  0.13743  0.40345  0.04884  1.0000
  C   C5        1.0  0.23646  0.47469  0.49586  1.0000
  H   H12       1.0  0.32882  0.49673  0.23699  1.0000
  C   C6        1.0  0.27739  0.48093  0.47010  1.0000
  H   H13       1.0  0.17966  0.46702  0.02702  1.0000
  Fe  Fe1       1.0  0.33332  0.46517  0.04796  1.0000
  H   H14       1.0  0.33613  0.41632  0.26538  1.0000
  C   C7        1.0  0.16302  0.45017  0.04070  1.0000
  C   C8        1.0  0.32924  0.38550  0.16991  1.0000
  C   C9        1.0  0.20830  0.39925  0.04120  1.0000
  C   C10       1.0  0.22943  0.44314  0.06556  1.0000
  Fe  Fe2       1.0  0.32828  0.45893  0.43351  1.0000
  N   N1        1.0  0.16099  0.42475  0.03132  1.0000
  S   S2        1.0  0.33093  0.44610  0.09897  1.0000
  S   S3        1.0  0.28617  0.43954  0.45547  1.0000
  C   C11       1.0  0.32687  0.41905  0.20166  1.0000
  C   C12       1.0  0.23002  0.42047  0.05735  1.0000
  C   C13       1.0  0.18591  0.40066  0.03316  1.0000
  H   H15       1.0  0.23409  0.41611  0.48458  1.0000
  C   C14       1.0  0.18476  0.42361  0.04076  1.0000
  H   H16       1.0  0.20874  0.46351  0.06316  1.0000
  C   C15       1.0  0.24201  0.43716  0.48401  1.0000
  C   C16       1.0  0.27826  0.48502  0.01378  1.0000
  H   H17       1.0  0.13303  0.38348  0.04084  1.0000
  H   H18       1.0  0.31085  0.36872  0.18063  1.0000
  H   H19       1.0  0.20904  0.38181  0.03440  1.0000
  H   H20       1.0  0.16582  0.45410  0.06889  1.0000
  H   H21       1.0  0.29386  0.49666  0.03220  1.0000
  H   H22       1.0  0.14479  0.45030  0.03343  1.0000
  H   H23       1.0  0.11929  0.40415  0.04270  1.0000
  C   C17       1.0  0.22666  0.44752  0.49675  1.0000
  H   H24       1.0  0.16966  0.38377  0.02041  1.0000
  H   H25       1.0  0.01321  0.48849  0.02070  1.0000
  H   H26       1.0  0.34161  0.37779  0.15973  1.0000
  C   C18       1.0  0.06298  0.50073  0.49383  1.0000
  Fe  Fe3       1.0  0.16237  0.47509  0.61711  1.0000
  S   S4        1.0  0.15147  0.44536  0.57368  1.0000
  S   S5        1.0  0.18082  0.47285  0.66767  1.0000
  H   H27       1.0  0.01352  0.35874  0.89987  1.0000
  S   S6        1.0  0.15016  0.48899  0.52369  1.0000
  Fe  Fe4       1.0  0.12138  0.45699  0.55927  1.0000
  S   S7        1.0  0.07967  0.43349  0.53573  1.0000
  Fe  Fe5       1.0  0.18097  0.47985  0.54196  1.0000
  H   H28       1.0  0.03192  0.36648  0.98022  1.0000
  S   S8        1.0  0.13055  0.48430  0.60490  1.0000
  H   H29       1.0  0.20365  0.48087  0.73520  1.0000
  Fe  Fe6       1.0  0.14650  0.46623  0.87204  1.0000
  S   S9        1.0  0.14879  0.44007  0.91231  1.0000
  S   S10       1.0  0.13072  0.45575  0.81701  1.0000
  H   H30       1.0  0.20788  0.45278  0.56778  1.0000
  S   S11       1.0  0.14953  0.48179  0.97039  1.0000
  Fe  Fe7       1.0  0.17961  0.47792  0.93887  1.0000
  C   C19       1.0  0.26896  0.46521  0.57525  1.0000
  Fe  Fe8       1.0  0.11903  0.44577  0.94142  1.0000
  S   S12       1.0  0.08417  0.41084  0.96704  1.0000
  C   C20       1.0  0.02462  0.37281  0.88012  1.0000
  S   S13       1.0  0.11483  0.46918  0.90003  1.0000
  C   C21       1.0  0.05221  0.40650  0.96205  1.0000
  C   C22       1.0  0.04897  0.42684  0.94974  1.0000
  H   H31       1.0  0.32084  0.28624  0.51485  1.0000
  H   H32       1.0  0.06610  0.44557  0.94328  1.0000
  H   H33       1.0  0.23177  0.47283  0.65827  1.0000
  H   H34       1.0  0.25240  0.42872  0.96591  1.0000
  H   H35       1.0  0.22085  0.44290  0.94915  1.0000
  N   N2        1.0  0.22885  0.45098  0.61197  1.0000
  H   H36       1.0  0.21107  0.41625  0.64361  1.0000
  H   H37       1.0  0.06956  0.42531  0.81369  1.0000
  C   C23       1.0  0.04815  0.41579  0.55582  1.0000
  C   C24       1.0  0.02547  0.41096  0.53730  1.0000
  C   C25       1.0  0.04491  0.40501  0.58860  1.0000
  C   C26       1.0  0.24431  0.46840  0.64131  1.0000
  H   H38       1.0  0.06207  0.40831  0.60307  1.0000
  C   C27       1.0  0.16687  0.46922  0.70905  1.0000
  C   C28       1.0  0.18298  0.47440  0.73833  1.0000
  C   C29       1.0  0.17248  0.47105  0.77171  1.0000
  C   C30       1.0  0.14563  0.46206  0.77598  1.0000
  C   C31       1.0  0.12962  0.45714  0.74671  1.0000
  C   C32       1.0  0.14019  0.46087  0.71339  1.0000
  H   H39       1.0  0.19304  0.43297  0.64204  1.0000
  H   H40       1.0  0.02135  0.43923  0.93741  1.0000
  H   H41       1.0  0.10882  0.45018  0.74977  1.0000
  H   H42       1.0  0.12759  0.45683  0.69110  1.0000
  H   H43       1.0  0.17424  0.43605  0.97951  1.0000
  H   H44       1.0  0.19202  0.41402  0.60554  1.0000
  H   H45       1.0  0.25089  0.39307  0.55849  1.0000
  H   H46       1.0  0.33395  0.49146  0.90454  1.0000
  H   H47       1.0  0.06112  0.37944  0.90243  1.0000
  H   H48       1.0  0.23526  0.48408  0.58093  1.0000
  C   C33       1.0  0.20531  0.42740  0.62633  1.0000
  C   C34       1.0  0.23986  0.41840  0.58456  1.0000
  C   C35       1.0  0.32932  0.49792  0.92917  1.0000
  C   C36       1.0  0.25606  0.41323  0.56374  1.0000
  H   H49       1.0  0.22258  0.40145  0.59491  1.0000
  C   C37       1.0  0.05682  0.41060  0.83216  1.0000
  S   S14       1.0  0.21746  0.48933  0.96996  1.0000
  C   C38       1.0  0.15652  0.42101  0.99363  1.0000
  C   C39       1.0  0.23947  0.47803  0.98071  1.0000
  C   C40       1.0  0.05212  0.38461  0.88196  1.0000
  H   H50       1.0  0.18497  0.47477  0.79402  1.0000
  C   C41       1.0  0.02352  0.42317  0.94645  1.0000
  C   C42       1.0  0.27853  0.43386  0.54875  1.0000
  C   C43       1.0  0.23675  0.45474  0.96710  1.0000
  H   H51       1.0  0.13932  0.42270  0.98545  1.0000
  H   H52       1.0  0.02147  0.40508  0.80941  1.0000
  H   H53       1.0  0.30201  0.47566  0.54178  1.0000
  C   C44       1.0  0.24582  0.44468  0.59086  1.0000
  S   S15       1.0  0.21780  0.48916  0.51013  1.0000
  H   H54       1.0  0.27446  0.48562  0.57815  1.0000
  C   C45       1.0  0.21910  0.46492  0.59063  1.0000
  H   H55       1.0  0.20582  0.46946  0.60549  1.0000
  C   C46       1.0  0.25477  0.44678  0.97663  1.0000
  H   H56       1.0  0.08948  0.41262  0.85980  1.0000
  H   H57       1.0  0.25283  0.45904  0.65739  1.0000
  H   H58       1.0  0.15220  0.40131  0.98454  1.0000
  C   C47       1.0  0.02962  0.38231  0.97058  1.0000
  H   H59       1.0  0.31465  0.47984  0.94309  1.0000
  C   C48       1.0  0.06816  0.40344  0.85809  1.0000
  H   H60       1.0  0.07738  0.50376  0.97163  1.0000
  C   C49       1.0  0.01933  0.38902  0.60215  1.0000
  S   S16       1.0  0.17948  0.50369  0.89608  1.0000
  C   C50       1.0  0.02933  0.39888  0.82998  1.0000
  H   H61       1.0  0.29053  0.42974  0.53165  1.0000
  H   H62       1.0  0.26082  0.48779  0.63277  1.0000
  H   H63       1.0  0.20708  0.43438  0.50657  1.0000
  H   H64       1.0  0.02772  0.41915  0.51191  1.0000
  C   C51       1.0  0.28500  0.45979  0.55455  1.0000
  H   H65       1.0  0.08094  0.48538  0.52734  1.0000
  H   H66       1.0  0.01711  0.38022  0.62713  1.0000
  H   H67       1.0  0.11495  0.49377  0.81691  1.0000
  H   H68       1.0  0.33357  0.50643  0.99869  1.0000
  C   C52       1.0  0.27558  0.46175  0.00012  1.0000
  C   C53       1.0  0.01234  0.37949  0.85382  1.0000
  Fe  Fe9       1.0  0.14763  0.50493  0.92619  1.0000
  C   C54       1.0  0.08005  0.50262  0.52002  1.0000
  C   C55       1.0  0.34085  0.29874  0.50569  1.0000
  C   C56       1.0  0.26041  0.49310  0.00400  1.0000
  Fe  Fe10      1.0  0.17760  0.70327  0.43045  1.0000
  S   S17       1.0  0.18175  0.67792  0.38971  1.0000
  S   S18       1.0  0.21566  0.74379  0.43875  1.0000
  Fe  Fe11      1.0  0.11889  0.66171  0.44121  1.0000
  S   S19       1.0  0.11974  0.63446  0.40195  1.0000
  S   S20       1.0  0.08029  0.64346  0.47095  1.0000
  Fe  Fe12      1.0  0.15835  0.64437  0.42573  1.0000
  S   S21       1.0  0.16414  0.60950  0.43008  1.0000
  Fe  Fe13      1.0  0.14270  0.67003  0.36903  1.0000
  S   S22       1.0  0.12651  0.66125  0.31410  1.0000
  S   S23       1.0  0.15660  0.66967  0.46779  1.0000
  S   S24       1.0  0.13945  0.69730  0.40707  1.0000
  Fe  Fe14      1.0  0.15621  0.64244  0.06848  1.0000
  S   S25       1.0  0.14012  0.65995  0.03160  1.0000
  S   S26       1.0  0.15438  0.60321  0.06416  1.0000
  Fe  Fe15      1.0  0.17086  0.68595  0.12267  1.0000
  S   S27       1.0  0.15623  0.70683  0.08929  1.0000
  S   S28       1.0  0.18923  0.70399  0.17470  1.0000
  Fe  Fe16      1.0  0.12112  0.66612  0.07825  1.0000
  S   S29       1.0  0.07940  0.65648  0.09212  1.0000
  Fe  Fe17      1.0  0.17687  0.69909  0.04591  1.0000
  H   H69       1.0  0.24968  0.55448  0.43396  1.0000
  S   S30       1.0  0.13502  0.64613  0.11414  1.0000
  S   S31       1.0  0.19373  0.68075  0.08018  1.0000
  C   C57       1.0  0.04767  0.63291  0.07546  1.0000
  C   C58       1.0  0.04387  0.62315  0.04170  1.0000
  C   C59       1.0  0.02546  0.62468  0.09651  1.0000
  H   H70       1.0  0.06067  0.62993  0.02488  1.0000
  H   H71       1.0  0.11114  0.58619  0.45840  1.0000
  C   C60       1.0  0.02610  0.61304  0.46603  1.0000
  N   N3        1.0  0.33945  0.79212  0.01300  1.0000
  C   C61       1.0  0.15186  0.58677  0.02487  1.0000
  H   H72       1.0  0.27009  0.73102  0.44415  1.0000
  H   H73       1.0  0.26115  0.81592  0.04939  1.0000
  N   N4        1.0  0.22391  0.55710  0.47132  1.0000
  C   C62       1.0  0.24772  0.55596  0.46219  1.0000
  C   C63       1.0  0.05096  0.61890  0.29591  1.0000
  C   C64       1.0  0.22297  0.81897  0.49088  1.0000
  C   C65       1.0  0.27372  0.73535  0.47147  1.0000
  C   C66       1.0  0.04937  0.63292  0.45070  1.0000
  C   C67       1.0  0.04740  0.64462  0.42060  1.0000
  C   C68       1.0  0.22599  0.58114  0.45664  1.0000
  H   H74       1.0  0.06514  0.66004  0.40866  1.0000
  C   C69       1.0  0.05029  0.69477  0.24554  1.0000
  C   C70       1.0  0.16344  0.59496  0.46975  1.0000
  H   H75       1.0  0.17545  0.62975  0.50072  1.0000
  C   C71       1.0  0.20021  0.53329  0.45699  1.0000
  H   H76       1.0  0.22364  0.76957  0.05269  1.0000
  C   C72       1.0  0.15475  0.56461  0.02525  1.0000
  C   C73       1.0  0.14667  0.67123  0.27711  1.0000
  C   C74       1.0  0.17081  0.69511  0.27630  1.0000
  C   C75       1.0  0.18424  0.70443  0.24493  1.0000
  C   C76       1.0  0.17377  0.68991  0.21422  1.0000
  C   C77       1.0  0.15031  0.66544  0.21539  1.0000
  C   C78       1.0  0.13669  0.65629  0.24663  1.0000
  H   H77       1.0  0.17861  0.70689  0.29956  1.0000
  H   H78       1.0  0.20246  0.72335  0.24430  1.0000
  H   H79       1.0  0.14232  0.65388  0.19206  1.0000
  H   H80       1.0  0.11810  0.63774  0.24708  1.0000
  C   C79       1.0  0.23441  0.76483  0.47401  1.0000
  C   C80       1.0  0.25962  0.78688  0.46760  1.0000
  C   C81       1.0  0.10399  0.59285  0.48055  1.0000
  H   H81       1.0  0.26712  0.79047  0.44163  1.0000
  C   C82       1.0  0.15681  0.56852  0.46995  1.0000
  H   H82       1.0  0.15135  0.55729  0.44612  1.0000
  N   N5        1.0  0.10354  0.69761  0.18634  1.0000
  C   C83       1.0  0.13208  0.71636  0.19328  1.0000
  C   C84       1.0  0.09968  0.67139  0.17768  1.0000
  C   C85       1.0  0.09623  0.70715  0.15540  1.0000
  C   C86       1.0  0.08773  0.69518  0.21716  1.0000
  C   C87       1.0  0.09423  0.68893  0.24955  1.0000
  C   C88       1.0  0.06505  0.69777  0.21594  1.0000
  H   H83       1.0  0.07221  0.55296  0.10828  1.0000
  C   C89       1.0  0.05753  0.68901  0.27697  1.0000
  C   C90       1.0  0.02235  0.63705  0.40665  1.0000
  H   H84       1.0  0.14023  0.70951  0.21372  1.0000
  H   H85       1.0  0.14446  0.71905  0.17026  1.0000
  H   H86       1.0  0.13572  0.73608  0.20133  1.0000
  H   H87       1.0  0.10423  0.66259  0.19971  1.0000
  H   H88       1.0  0.11263  0.67261  0.15609  1.0000
  H   H89       1.0  0.07888  0.65721  0.16970  1.0000
  H   H90       1.0  0.10904  0.70935  0.13307  1.0000
  H   H91       1.0  0.07571  0.69287  0.14640  1.0000
  H   H92       1.0  0.09830  0.72672  0.16021  1.0000
  H   H93       1.0  0.11079  0.68602  0.25253  1.0000
  H   H94       1.0  0.05829  0.70209  0.19243  1.0000
  H   H95       1.0  0.03269  0.59610  0.37691  1.0000
  H   H96       1.0  0.04243  0.57854  0.08437  1.0000
  C   C91       1.0  0.22731  0.58467  0.42045  1.0000
  C   C92       1.0  0.25286  0.72253  0.49431  1.0000
  C   C93       1.0  0.24542  0.83651  0.43733  1.0000
  C   C94       1.0  0.02609  0.61097  0.28163  1.0000
  H   H97       1.0  0.32949  0.79903  0.08012  1.0000
  H   H98       1.0  0.24686  0.83412  0.40989  1.0000
  C   C95       1.0  0.08675  0.59763  0.04547  1.0000
  H   H99       1.0  0.23321  0.70841  0.48468  1.0000
  H   H100      1.0  0.08517  0.68154  0.30336  1.0000
  N   N6        1.0  0.07125  0.57115  0.06082  1.0000
  C   C96       1.0  0.01809  0.60565  0.02910  1.0000
  H   H101      1.0  0.02102  0.64667  0.38383  1.0000
  C   C97       1.0  0.05329  0.61352  0.33010  1.0000
  H   H102      1.0  0.02810  0.63229  0.12254  1.0000
  H   H103      1.0  0.07268  0.62005  0.34110  1.0000
  H   H104      1.0  0.29398  0.91299  0.46584  1.0000
  H   H105      1.0  0.03796  0.55274  0.46941  1.0000
  C   C98       1.0  0.26920  0.73854  0.03749  1.0000
  H   H106      1.0  0.22678  0.57003  0.40311  1.0000
  C   C99       1.0  0.22459  0.81641  0.45548  1.0000
  H   H107      1.0  0.24998  0.73445  0.08590  1.0000
  H   H108      1.0  0.21013  0.79839  0.44230  1.0000
  H   H109      1.0  0.07848  0.59893  0.02036  1.0000
  C   C100      1.0  0.08753  0.52135  0.02219  1.0000
  H   H110      1.0  0.18208  0.53425  0.46120  1.0000
  H   H111      1.0  0.03319  0.69704  0.24411  1.0000
  H   H112      1.0  0.09710  0.54241  0.06933  1.0000
  H   H113      1.0  0.15911  0.55844  0.04924  1.0000
  C   C101      1.0  0.23645  0.77591  0.03055  1.0000
  H   H114      1.0  0.26990  0.51229  0.48164  1.0000
  H   H115      1.0  0.22935  0.64314  0.41541  1.0000
  C   C102      1.0  0.07210  0.55166  0.03742  1.0000
  H   H116      1.0  0.04618  0.68685  0.29991  1.0000
  C   C103      1.0  0.04359  0.56479  0.06557  1.0000
  C   C104      1.0  0.07946  0.68609  0.27894  1.0000
  H   H117      1.0  0.26268  0.51110  0.01485  1.0000
  H   H118      1.0  0.26865  0.91010  0.49430  1.0000
  H   H119      1.0  0.25180  0.72188  0.02579  1.0000
  H   H120      1.0  0.03089  0.54436  0.07518  1.0000
  C   C105      1.0  0.22675  0.60154  0.47730  1.0000
  C   C106      1.0  0.07804  0.54786  0.50059  1.0000
  C   C107      1.0  0.22927  0.62641  0.42681  1.0000
  H   H121      1.0  0.08750  0.61323  0.06258  1.0000
  C   C108      1.0  0.31488  0.77573  0.03265  1.0000
  C   C109      1.0  0.15715  0.55651  0.50078  1.0000
  H   H122      1.0  0.22881  0.60881  0.37814  1.0000
  H   H123      1.0  0.05905  0.58600  0.45620  1.0000
  H   H124      1.0  0.02738  0.60402  0.48947  1.0000
  H   H125      1.0  0.20169  0.53067  0.42895  1.0000
  H   H126      1.0  0.06422  0.56104  0.43865  1.0000
  C   C110      1.0  0.03076  0.59996  0.35015  1.0000
  H   H127      1.0  0.28083  0.87399  0.43942  1.0000
  H   H128      1.0  0.28887  0.77297  0.11268  1.0000
  H   H129      1.0  0.03459  0.56677  0.04153  1.0000
  C   C111      1.0  0.05874  0.56747  0.46265  1.0000
  C   C112      1.0  0.26475  0.85923  0.45454  1.0000
  C   C113      1.0  0.27506  0.80456  0.49430  1.0000
  C   C114      1.0  0.26806  0.74565  0.07139  1.0000
  H   H130      1.0  0.10409  0.61094  0.47257  1.0000
  H   H131      1.0  0.06872  0.62947  0.28058  1.0000
  H   H132      1.0  0.10401  0.57970  0.09454  1.0000
  H   H133      1.0  0.02581  0.61598  0.25507  1.0000
  C   C115      1.0  0.25777  0.80222  0.02860  1.0000
  C   C116      1.0  0.22873  0.60691  0.40587  1.0000
  C   C117      1.0  0.31311  0.78221  0.06743  1.0000
  H   H134      1.0  0.15150  0.53602  0.50072  1.0000
  C   C118      1.0  0.28998  0.76741  0.08636  1.0000
  H   H135      1.0  0.04818  0.52000  0.46366  1.0000
  H   H136      1.0  0.29400  0.82170  0.48851  1.0000
  C   C119      1.0  0.22853  0.62385  0.46241  1.0000
  C   C120      1.0  0.08248  0.57250  0.09559  1.0000
  H   H137      1.0  0.08083  0.58675  0.11285  1.0000
  C   C121      1.0  0.26379  0.86249  0.49066  1.0000
  H   H138      1.0  0.10746  0.60270  0.04075  1.0000
  N   N7        1.0  0.07734  0.57178  0.49130  1.0000
  H   H139      1.0  0.31422  0.76422  0.46462  1.0000
  C   C122      1.0  0.08614  0.53872  0.04558  1.0000
  H   H140      1.0  0.09896  0.51226  0.02856  1.0000
  H   H141      1.0  0.26604  0.57380  0.47179  1.0000
  H   H142      1.0  0.31663  0.88881  0.47704  1.0000
  H   H143      1.0  0.22811  0.63871  0.47849  1.0000
  H   H144      1.0  0.24707  0.53836  0.47347  1.0000
  C   C123      1.0  0.29215  0.75330  0.01820  1.0000
  C   C124      1.0  0.06185  0.52292  0.48414  1.0000
  C   C125      1.0  0.28771  0.91048  0.49314  1.0000
  C   C126      1.0  0.29884  0.75448  0.48348  1.0000
  H   H145      1.0  0.33631  0.80666  0.48616  1.0000
  H   H146      1.0  0.19703  0.51488  0.46914  1.0000
  H   H147      1.0  0.11889  0.59923  0.50152  1.0000
  C   C127      1.0  0.17021  0.60931  0.50069  1.0000
  C   C128      1.0  0.06002  0.54640  0.00431  1.0000
  Fe  Fe18      1.0  0.32652  0.85612  0.57176  1.0000
  H   H148      1.0  0.14481  0.52691  0.67303  1.0000
  S   S32       1.0  0.28349  0.82267  0.56272  1.0000
  H   H149      1.0  0.15473  0.53361  0.99539  1.0000
  C   C129      1.0  0.09606  0.52669  0.53672  1.0000
  N   N8        1.0  0.33037  0.78249  0.53076  1.0000
  H   H150      1.0  0.28216  0.79955  0.95061  1.0000
  H   H151      1.0  0.01529  0.59884  0.00265  1.0000
  H   H152      1.0  0.17686  0.60872  0.55526  1.0000
  C   C130      1.0  0.25697  0.72887  0.52925  1.0000
  C   C131      1.0  0.33706  0.80779  0.51469  1.0000
  C   C132      1.0  0.23436  0.80914  0.84222  1.0000
  S   S33       1.0  0.16735  0.55697  0.57017  1.0000
  S   S34       1.0  0.14298  0.54072  0.92495  1.0000
  C   C133      1.0  0.20735  0.78521  0.94497  1.0000
  H   H153      1.0  0.24043  0.71945  0.54672  1.0000
  C   C134      1.0  0.14657  0.55827  0.96365  1.0000
  C   C135      1.0  0.07544  0.51660  0.99000  1.0000
  H   H154      1.0  0.11159  0.53426  0.70144  1.0000
  C   C136      1.0  0.16316  0.52826  0.75648  1.0000
  H   H155      1.0  0.32322  0.81420  0.52325  1.0000
  H   H156      1.0  0.33542  0.53336  0.97618  1.0000
  H   H157      1.0  0.17764  0.52563  0.77003  1.0000
  S   S35       1.0  0.33998  0.89373  0.91758  1.0000
  H   H158      1.0  0.13923  0.58655  0.93924  1.0000
  H   H159      1.0  0.33460  0.76268  0.97559  1.0000
  H   H160      1.0  0.16451  0.53572  0.85800  1.0000
  H   H161      1.0  0.22518  0.60043  0.50498  1.0000
  H   H162      1.0  0.20642  0.80163  0.99414  1.0000
  N   N9        1.0  0.25422  0.81986  0.87060  1.0000
  H   H163      1.0  0.27930  0.80853  0.84477  1.0000
  H   H164      1.0  0.32807  0.76865  0.58258  1.0000
  H   H165      1.0  0.25670  0.78469  0.87468  1.0000
  H   H166      1.0  0.17748  0.52278  0.70792  1.0000
  H   H167      1.0  0.20553  0.74393  0.51311  1.0000
  C   C137      1.0  0.28063  0.88721  0.54589  1.0000
  C   C138      1.0  0.24032  0.77838  0.53442  1.0000
  H   H168      1.0  0.28032  0.87054  0.55957  1.0000
  H   H169      1.0  0.23258  0.77503  0.56027  1.0000
  C   C139      1.0  0.27430  0.81109  0.99964  1.0000
  C   C140      1.0  0.22488  0.76066  0.50770  1.0000
  C   C141      1.0  0.33095  0.85426  0.76011  1.0000
  H   H170      1.0  0.19194  0.76539  0.95171  1.0000
  S   S36       1.0  0.29922  0.84514  0.99686  1.0000
  C   C142      1.0  0.14476  0.52864  0.70085  1.0000
  H   H171      1.0  0.29674  0.90556  0.55835  1.0000
  C   C143      1.0  0.26553  0.80042  0.52801  1.0000
  C   C144      1.0  0.17104  0.59739  0.53149  1.0000
  C   C145      1.0  0.24919  0.83566  0.92975  1.0000
  C   C146      1.0  0.21994  0.78992  0.91317  1.0000
  H   H172      1.0  0.26592  0.85531  0.92632  1.0000
  C   C147      1.0  0.28194  0.74818  0.54153  1.0000
  H   H173      1.0  0.28132  0.85112  0.83697  1.0000
  H   H174      1.0  0.29022  0.85694  0.88096  1.0000
  C   C148      1.0  0.33253  0.78682  0.56864  1.0000
  C   C149      1.0  0.24812  0.76693  0.97469  1.0000
  C   C150      1.0  0.22170  0.55596  0.50941  1.0000
  C   C151      1.0  0.23645  0.83071  0.96147  1.0000
  H   H175      1.0  0.13005  0.56263  0.81221  1.0000
  H   H176      1.0  0.28343  0.75270  0.56870  1.0000
  H   H177      1.0  0.31909  0.79361  0.57793  1.0000
  H   H178      1.0  0.22112  0.81740  0.84359  1.0000
  C   C152      1.0  0.21554  0.80559  0.96901  1.0000
  H   H179      1.0  0.24395  0.81400  0.81650  1.0000
  C   C153      1.0  0.16480  0.57103  0.53154  1.0000
  N   N10       1.0  0.14387  0.53497  0.81171  1.0000
  H   H180      1.0  0.24368  0.84618  0.98097  1.0000
  S   S37       1.0  0.33800  0.89589  0.59541  1.0000
  C   C154      1.0  0.26939  0.80618  0.86997  1.0000
  C   C155      1.0  0.14451  0.53272  0.77376  1.0000
  H   H181      1.0  0.21356  0.77318  0.89610  1.0000
  H   H182      1.0  0.18515  0.54908  0.82133  1.0000
  C   C156      1.0  0.14354  0.58037  0.96324  1.0000
  H   H183      1.0  0.11087  0.53776  0.76412  1.0000
  Fe  Fe19      1.0  0.33305  0.86360  0.95821  1.0000
  H   H184      1.0  0.10950  0.52813  0.55692  1.0000
  H   H185      1.0  0.26292  0.85990  0.86512  1.0000
  H   H186      1.0  0.32199  0.78356  0.96218  1.0000
  H   H187      1.0  0.22012  0.53770  0.51965  1.0000
  H   H188      1.0  0.10835  0.56728  0.54066  1.0000
  S   S38       1.0  0.34079  0.83826  0.92298  1.0000
  C   C157      1.0  0.15223  0.55048  0.99477  1.0000
  H   H189      1.0  0.16536  0.57738  0.81119  1.0000
  S   S39       1.0  0.20270  0.72580  0.00222  1.0000
  C   C158      1.0  0.16326  0.52645  0.72058  1.0000
  C   C159      1.0  0.31046  0.88707  0.50433  1.0000
  H   H190      1.0  0.24421  0.75345  0.95343  1.0000
  H   H191      1.0  0.31323  0.83502  0.76162  1.0000
  C   C160      1.0  0.16521  0.53329  0.82963  1.0000
  C   C161      1.0  0.26971  0.79309  0.97302  1.0000
  C   C162      1.0  0.14674  0.56066  0.82159  1.0000
  S   S40       1.0  0.33070  0.85311  0.83088  1.0000
  H   H192      1.0  0.22186  0.78730  0.84255  1.0000
  C   C163      1.0  0.24097  0.81543  0.90429  1.0000
  C   C164      1.0  0.30375  0.76155  0.51892  1.0000
  C   C165      1.0  0.09521  0.54902  0.52718  1.0000
  H   H193      1.0  0.11757  0.51381  0.85349  1.0000
  C   C166      1.0  0.12607  0.53276  0.71694  1.0000
  C   C167      1.0  0.27282  0.84819  0.86328  1.0000
  H   H194      1.0  0.28522  0.81444  0.89005  1.0000
  C   C168      1.0  0.34057  0.86549  0.72759  1.0000
  C   C169      1.0  0.12587  0.53477  0.75283  1.0000
  H   H195      1.0  0.14733  0.56325  0.85016  1.0000
  H   H196      1.0  0.20370  0.55585  0.51812  1.0000
  H   H197      1.0  0.33025  0.85499  0.70437  1.0000
  H   H198      1.0  0.24030  0.84160  0.53602  1.0000
  H   H199      1.0  0.32701  0.90422  0.51829  1.0000
  H   H200      1.0  0.08368  0.58757  0.54320  1.0000
  H   H201      1.0  0.05277  0.52572  0.95571  1.0000
  H   H202      1.0  0.30877  0.86871  0.51446  1.0000
  H   H203      1.0  0.23932  0.57273  0.52212  1.0000
  Fe  Fe20      1.0  0.16022  0.51540  0.56980  1.0000
  C   C170      1.0  0.06926  0.58138  0.52158  1.0000
  H   H204      1.0  0.32854  0.82045  0.99998  1.0000
  H   H205      1.0  0.31898  0.50867  0.92290  1.0000
  H   H206      1.0  0.04964  0.56582  0.53118  1.0000
  C   C171      1.0  0.23115  0.75823  0.00325  1.0000
  H   H207      1.0  0.06782  0.59897  0.51522  1.0000
  S   S41       1.0  0.19272  0.50878  0.58592  1.0000
  H   H208      1.0  0.16330  0.51372  0.82525  1.0000
  H   H209      1.0  0.29128  0.74695  0.99188  1.0000
  H   H210      1.0  0.26177  0.88663  0.55094  1.0000
  C   C172      1.0  0.06166  0.52907  0.98109  1.0000
  H   H211      1.0  0.10119  0.51465  0.81522  1.0000
  H   H212      1.0  0.14408  0.61173  0.99313  1.0000
  C   C173      1.0  0.14627  0.59465  0.99374  1.0000
  C   C174      1.0  0.11827  0.51342  0.82482  1.0000
  H   H213      1.0  0.30303  0.92866  0.50688  1.0000
  N   N11       1.0  0.28510  0.88632  0.50841  1.0000
  H   H214      1.0  0.04999  0.55634  0.99570  1.0000
  C   C175      1.0  0.33795  0.78299  0.97685  1.0000
  H   H215      1.0  0.20721  0.80285  0.50503  1.0000
  C   C176      1.0  0.24226  0.84154  0.50842  1.0000
  Fe  Fe21      1.0  0.37942  0.45628  0.43807  1.0000
  S   S42       1.0  0.40061  0.48971  0.40157  1.0000
  S   S43       1.0  0.40422  0.44124  0.46320  1.0000
  C   C177      1.0  0.59945  0.46554  0.00664  1.0000
  H   H216      1.0  0.50250  0.28161  0.15771  1.0000
  Fe  Fe22      1.0  0.66966  0.09578  0.44377  1.0000
  H   H217      1.0  0.42465  0.31806  0.44740  1.0000
  Fe  Fe23      1.0  0.36735  0.44533  0.08320  1.0000
  S   S44       1.0  0.37305  0.41158  0.09956  1.0000
  H   H218      1.0  0.61138  0.11279  0.49571  1.0000
  Fe  Fe24      1.0  0.64310  0.11748  0.06097  1.0000
  S   S45       1.0  0.34607  0.49193  0.39510  1.0000
  H   H219      1.0  0.66076  0.00755  0.12261  1.0000
  S   S46       1.0  0.64390  0.09914  0.11071  1.0000
  S   S47       1.0  0.64751  0.09661  0.39729  1.0000
  H   H220      1.0  0.38110  0.44259  0.20106  1.0000
  Fe  Fe25      1.0  0.64525  0.12868  0.42573  1.0000
  H   H221      1.0  0.39954  0.47568  0.24939  1.0000
  Fe  Fe26      1.0  0.46551  0.35489  0.05668  1.0000
  S   S48       1.0  0.49795  0.37970  0.09461  1.0000
  S   S49       1.0  0.44554  0.37367  0.02807  1.0000
  Fe  Fe27      1.0  0.47244  0.30660  0.06523  1.0000
  S   S50       1.0  0.50474  0.32821  0.10473  1.0000
  S   S51       1.0  0.46027  0.26323  0.05830  1.0000
  Fe  Fe28      1.0  0.47956  0.34307  0.12699  1.0000
  S   S52       1.0  0.46530  0.34144  0.18190  1.0000
  Fe  Fe29      1.0  0.52005  0.36256  0.06871  1.0000
  S   S53       1.0  0.56267  0.38257  0.05120  1.0000
  S   S54       1.0  0.44590  0.31908  0.09007  1.0000
  S   S55       1.0  0.48905  0.34025  0.02814  1.0000
  Fe  Fe30      1.0  0.46587  0.35269  0.41104  1.0000
  S   S56       1.0  0.50443  0.37761  0.38462  1.0000
  S   S57       1.0  0.43103  0.35800  0.39828  1.0000
  Fe  Fe31      1.0  0.48546  0.31884  0.44568  1.0000
  S   S58       1.0  0.52589  0.34213  0.42186  1.0000
  C   C178      1.0  0.64574  0.45154  0.42221  1.0000
  Fe  Fe32      1.0  0.52343  0.37800  0.43495  1.0000
  H   H222      1.0  0.43729  0.27396  0.17275  1.0000
  Fe  Fe33      1.0  0.50389  0.34022  0.37318  1.0000
  S   S59       1.0  0.51847  0.33529  0.32121  1.0000
  S   S60       1.0  0.48465  0.35537  0.46244  1.0000
  S   S61       1.0  0.46366  0.31458  0.39588  1.0000
  H   H223      1.0  0.62169  0.20029  0.43561  1.0000
  C   C179      1.0  0.36896  0.42724  0.18157  1.0000
  C   C180      1.0  0.47228  0.49049  0.01851  1.0000
  C   C181      1.0  0.48579  0.26213  0.14908  1.0000
  S   S62       1.0  0.66507  0.12615  0.47328  1.0000
  C   C182      1.0  0.48211  0.27371  0.22312  1.0000
  H   H224      1.0  0.49597  0.29234  0.21157  1.0000
  C   C183      1.0  0.48864  0.21841  0.50057  1.0000
  S   S63       1.0  0.36741  0.46054  0.03064  1.0000
  Fe  Fe34      1.0  0.36342  0.46977  0.36958  1.0000
  C   C184      1.0  0.57654  0.41443  0.03398  1.0000
  C   C185      1.0  0.66484  0.14687  0.25212  1.0000
  C   C186      1.0  0.49194  0.46255  0.02226  1.0000
  C   C187      1.0  0.56995  0.43231  0.04735  1.0000
  H   H225      1.0  0.47890  0.43769  0.06828  1.0000
  H   H226      1.0  0.55618  0.42655  0.06842  1.0000
  C   C188      1.0  0.48041  0.33893  0.21981  1.0000
  C   C189      1.0  0.46571  0.33135  0.25029  1.0000
  C   C190      1.0  0.47732  0.33057  0.28158  1.0000
  C   C191      1.0  0.50371  0.33718  0.28258  1.0000
  C   C192      1.0  0.51826  0.34412  0.25192  1.0000
  C   C193      1.0  0.50671  0.34515  0.22063  1.0000
  H   H227      1.0  0.44522  0.32607  0.24968  1.0000
  H   H228      1.0  0.46576  0.32430  0.30485  1.0000
  H   H229      1.0  0.53862  0.34895  0.25247  1.0000
  H   H230      1.0  0.51825  0.35107  0.19731  1.0000
  C   C194      1.0  0.46226  0.25254  0.20307  1.0000
  C   C195      1.0  0.66565  0.20460  0.45114  1.0000
  C   C196      1.0  0.58153  0.45783  0.03389  1.0000
  S   S64       1.0  0.55734  0.41927  0.44703  1.0000
  N   N12       1.0  0.50800  0.45247  0.00654  1.0000
  H   H231      1.0  0.43842  0.23438  0.11988  1.0000
  S   S65       1.0  0.46994  0.28502  0.48466  1.0000
  N   N13       1.0  0.65612  0.20119  0.48717  1.0000
  H   H232      1.0  0.66175  0.49823  0.01378  1.0000
  C   C197      1.0  0.44473  0.22895  0.22079  1.0000
  C   C198      1.0  0.49597  0.25765  0.46927  1.0000
  H   H233      1.0  0.56671  0.30976  0.06645  1.0000
  C   C199      1.0  0.57816  0.42933  0.48351  1.0000
  H   H234      1.0  0.44657  0.48740  0.05961  1.0000
  C   C200      1.0  0.51311  0.43587  0.03006  1.0000
  H   H235      1.0  0.64060  0.41220  0.50381  1.0000
  C   C201      1.0  0.56077  0.27502  0.03918  1.0000
  H   H236      1.0  0.45116  0.49538  0.32866  1.0000
  C   C202      1.0  0.65385  0.02926  0.08385  1.0000
  C   C203      1.0  0.46699  0.24807  0.27510  1.0000
  H   H237      1.0  0.37532  0.35988  0.25394  1.0000
  C   C204      1.0  0.57913  0.02700  0.44273  1.0000
  C   C205      1.0  0.66698  0.46231  0.44548  1.0000
  C   C206      1.0  0.64589  0.02631  0.45393  1.0000
  C   C207      1.0  0.55468  0.12806  0.49578  1.0000
  H   H238      1.0  0.64860  0.15043  0.25080  1.0000
  C   C208      1.0  0.65327  0.02378  0.42059  1.0000
  C   C209      1.0  0.39451  0.40265  0.07971  1.0000
  C   C210      1.0  0.40285  0.40924  0.04571  1.0000
  C   C211      1.0  0.41849  0.40026  0.03027  1.0000
  C   C212      1.0  0.42639  0.38508  0.04883  1.0000
  C   C213      1.0  0.41864  0.37911  0.08312  1.0000
  C   C214      1.0  0.40254  0.38761  0.09832  1.0000
  C   C215      1.0  0.62344  0.42698  0.42825  1.0000
  H   H239      1.0  0.64267  0.04466  0.04135  1.0000
  H   H240      1.0  0.42449  0.36737  0.09764  1.0000
  H   H241      1.0  0.39608  0.38226  0.12455  1.0000
  C   C216      1.0  0.41230  0.41902  0.44354  1.0000
  C   C217      1.0  0.43306  0.41665  0.45739  1.0000
  C   C218      1.0  0.43948  0.39855  0.44336  1.0000
  C   C219      1.0  0.42477  0.38216  0.41575  1.0000
  C   C220      1.0  0.40393  0.38443  0.40199  1.0000
  C   C221      1.0  0.39791  0.40296  0.41549  1.0000
  H   H242      1.0  0.65199  0.09227  0.23125  1.0000
  H   H243      1.0  0.45554  0.39702  0.45427  1.0000
  H   H244      1.0  0.39226  0.37169  0.38083  1.0000
  H   H245      1.0  0.44206  0.21443  0.15091  1.0000
  C   C222      1.0  0.59504  0.42234  0.00729  1.0000
  H   H246      1.0  0.61468  0.15103  0.05192  1.0000
  H   H247      1.0  0.64634  0.46248  0.39964  1.0000
  C   C223      1.0  0.59853  0.14260  0.03350  1.0000
  C   C224      1.0  0.62226  0.41309  0.45759  1.0000
  C   C225      1.0  0.65686  0.02239  0.29607  1.0000
  H   H248      1.0  0.63971  0.08717  0.18860  1.0000
  H   H249      1.0  0.64690  0.03118  0.16568  1.0000
  Fe  Fe35      1.0  0.39346  0.50083  0.05412  1.0000
  C   C226      1.0  0.55873  0.29748  0.04355  1.0000
  C   C227      1.0  0.67247  0.14179  0.28421  1.0000
  H   H250      1.0  0.51649  0.23669  0.45939  1.0000
  C   C228      1.0  0.36043  0.38104  0.22612  1.0000
  H   H251      1.0  0.38088  0.41868  0.17249  1.0000
  C   C229      1.0  0.56836  0.13009  0.46525  1.0000
  H   H252      1.0  0.51917  0.03467  0.42160  1.0000
  H   H253      1.0  0.45142  0.45373  0.09067  1.0000
  C   C230      1.0  0.34931  0.48498  0.27209  1.0000
  C   C231      1.0  0.34884  0.32398  0.49405  1.0000
  H   H254      1.0  0.42700  0.28973  0.45544  1.0000
  H   H255      1.0  0.36559  0.37603  0.20172  1.0000
  C   C232      1.0  0.36639  0.37194  0.25592  1.0000
  H   H256      1.0  0.40868  0.44831  0.29059  1.0000
  H   H257      1.0  0.38172  0.40438  0.40481  1.0000
  H   H258      1.0  0.44422  0.42890  0.47917  1.0000
  N   N14       1.0  0.45969  0.39407  0.29336  1.0000
  C   C233      1.0  0.48062  0.40493  0.32046  1.0000
  C   C234      1.0  0.43997  0.36639  0.30180  1.0000
  C   C235      1.0  0.47252  0.39405  0.26044  1.0000
  C   C236      1.0  0.44622  0.40942  0.29201  1.0000
  C   C237      1.0  0.44097  0.41816  0.26063  1.0000
  C   C238      1.0  0.43674  0.41495  0.32262  1.0000
  C   C239      1.0  0.42776  0.43222  0.26032  1.0000
  C   C240      1.0  0.42355  0.42898  0.32201  1.0000
  C   C241      1.0  0.41918  0.43769  0.29094  1.0000
  H   H259      1.0  0.49413  0.42657  0.31760  1.0000
  H   H260      1.0  0.47242  0.40117  0.34694  1.0000
  H   H261      1.0  0.49295  0.39562  0.31948  1.0000
  H   H262      1.0  0.42942  0.36494  0.32611  1.0000
  H   H263      1.0  0.44946  0.35447  0.30554  1.0000
  H   H264      1.0  0.42478  0.35678  0.28110  1.0000
  H   H265      1.0  0.48657  0.41448  0.25176  1.0000
  H   H266      1.0  0.48417  0.38410  0.26294  1.0000
  H   H267      1.0  0.45786  0.38302  0.23952  1.0000
  H   H268      1.0  0.44679  0.41430  0.23597  1.0000
  H   H269      1.0  0.43920  0.40818  0.34730  1.0000
  H   H270      1.0  0.42396  0.43875  0.23615  1.0000
  H   H271      1.0  0.41644  0.43291  0.34578  1.0000
  H   H272      1.0  0.39675  0.42071  0.03103  1.0000
  C   C242      1.0  0.37925  0.48768  0.21451  1.0000
  S   S66       1.0  0.66969  0.15875  0.08068  1.0000
  C   C243      1.0  0.60039  0.45488  0.48406  1.0000
  H   H273      1.0  0.59640  0.02599  0.44944  1.0000
  H   H274      1.0  0.56814  0.21239  0.02568  1.0000
  C   C244      1.0  0.50168  0.23745  0.47491  1.0000
  C   C245      1.0  0.66366  0.46658  0.06058  1.0000
  H   H275      1.0  0.36624  0.43724  0.15912  1.0000
  C   C246      1.0  0.63947  0.02702  0.05400  1.0000
  C   C247      1.0  0.59000  0.19590  0.46593  1.0000
  H   H276      1.0  0.39663  0.28594  0.43923  1.0000
  C   C248      1.0  0.35033  0.39461  0.29084  1.0000
  C   C249      1.0  0.61480  0.19846  0.46171  1.0000
  C   C250      1.0  0.36880  0.47834  0.27555  1.0000
  H   H277      1.0  0.50635  0.27215  0.44958  1.0000
  C   C251      1.0  0.58696  0.15712  0.02292  1.0000
  C   C252      1.0  0.58945  0.12545  0.46522  1.0000
  C   C253      1.0  0.46213  0.22237  0.02634  1.0000
  C   C254      1.0  0.39222  0.33109  0.48196  1.0000
  C   C255      1.0  0.38412  0.48033  0.24683  1.0000
  H   H278      1.0  0.36619  0.37187  0.31132  1.0000
  C   C256      1.0  0.47716  0.25923  0.48942  1.0000
  H   H279      1.0  0.66210  0.14140  0.30732  1.0000
  H   H280      1.0  0.45773  0.21351  0.05150  1.0000
  H   H281      1.0  0.63687  0.05325  0.15217  1.0000
  C   C257      1.0  0.64071  0.07663  0.21168  1.0000
  C   C258      1.0  0.46226  0.46193  0.06709  1.0000
  C   C259      1.0  0.66624  0.06179  0.26573  1.0000
  S   S67       1.0  0.39535  0.48525  0.10607  1.0000
  H   H282      1.0  0.57656  0.47167  0.04466  1.0000
  Fe  Fe36      1.0  0.35927  0.48721  0.11845  1.0000
  H   H283      1.0  0.62031  0.06408  0.22157  1.0000
  C   C260      1.0  0.66651  0.44866  0.47562  1.0000
  C   C261      1.0  0.55913  0.05390  0.44032  1.0000
  H   H284      1.0  0.60467  0.46742  0.46196  1.0000
  S   S68       1.0  0.37346  0.46538  0.31407  1.0000
  C   C262      1.0  0.64363  0.01942  0.23629  1.0000
  C   C263      1.0  0.53588  0.03240  0.42746  1.0000
  C   C264      1.0  0.63762  0.04239  0.17503  1.0000
  C   C265      1.0  0.66746  0.04957  0.29569  1.0000
  S   S69       1.0  0.36349  0.47743  0.46938  1.0000
  C   C266      1.0  0.45532  0.27723  0.15917  1.0000
  H   H285      1.0  0.39097  0.48888  0.19247  1.0000
  H   H286      1.0  0.42894  0.21181  0.20788  1.0000
  C   C267      1.0  0.35888  0.49301  0.21058  1.0000
  H   H287      1.0  0.67523  0.08297  0.26679  1.0000
  C   C268      1.0  0.53419  0.00815  0.42167  1.0000
  S   S70       1.0  0.65535  0.05744  0.47274  1.0000
  C   C269      1.0  0.46468  0.24722  0.02205  1.0000
  H   H288      1.0  0.64372  0.46053  0.04992  1.0000
  H   H289      1.0  0.58771  0.24723  0.03254  1.0000
  S   S71       1.0  0.60773  0.13064  0.42706  1.0000
  C   C270      1.0  0.37448  0.34013  0.48222  1.0000
  H   H290      1.0  0.64268  0.16006  0.48496  1.0000
  C   C271      1.0  0.43907  0.23144  0.14810  1.0000
  H   H291      1.0  0.52348  0.44683  0.05397  1.0000
  C   C272      1.0  0.64332  0.42370  0.48115  1.0000
  C   C273      1.0  0.65401  0.04711  0.23515  1.0000
  H   H292      1.0  0.48476  0.26335  0.12059  1.0000
  H   H293      1.0  0.51341  0.21042  0.02704  1.0000
  H   H294      1.0  0.49107  0.24696  0.15473  1.0000
  S   S72       1.0  0.35071  0.50022  0.16982  1.0000
  H   H295      1.0  0.56055  0.07279  0.44400  1.0000
  H   H296      1.0  0.45247  0.27920  0.13124  1.0000
  N   N15       1.0  0.46045  0.25554  0.16554  1.0000
  H   H297      1.0  0.41924  0.22607  0.15798  1.0000
  H   H298      1.0  0.47192  0.29669  0.16801  1.0000
  H   H299      1.0  0.56303  0.13597  0.44175  1.0000
  H   H300      1.0  0.43363  0.20879  0.26938  1.0000
  C   C274      1.0  0.38480  0.30548  0.49356  1.0000
  H   H301      1.0  0.46885  0.24649  0.30261  1.0000
  H   H302      1.0  0.60665  0.41896  0.41070  1.0000
  H   H303      1.0  0.57053  0.27093  0.05959  1.0000
  C   C275      1.0  0.56700  0.23036  0.03101  1.0000
  H   H304      1.0  0.37652  0.25464  0.48875  1.0000
  H   H305      1.0  0.52545  0.42887  0.01763  1.0000
  C   C276      1.0  0.44717  0.22691  0.25630  1.0000
  H   H306      1.0  0.49985  0.28781  0.27330  1.0000
  C   C277      1.0  0.41347  0.29763  0.45729  1.0000
  C   C278      1.0  0.58064  0.05116  0.44817  1.0000
  H   H307      1.0  0.66609  0.47746  0.08515  1.0000
  H   H308      1.0  0.57889  0.19592  0.44366  1.0000
  S   S73       1.0  0.66665  0.15222  0.18177  1.0000
  S   S74       1.0  0.35969  0.50662  0.06818  1.0000
  C   C279      1.0  0.48445  0.27138  0.25852  1.0000
  C   C280      1.0  0.62951  0.19787  0.49042  1.0000
  H   H309      1.0  0.59880  0.06799  0.45810  1.0000
  S   S75       1.0  0.60541  0.09977  0.02912  1.0000
  H   H310      1.0  0.53892  0.13235  0.49568  1.0000
  N   N16       1.0  0.65303  0.06068  0.20379  1.0000
  H   H311      1.0  0.66753  0.22257  0.43940  1.0000
  C   C281      1.0  0.47826  0.45287  0.05381  1.0000
  H   H312      1.0  0.65218  0.18713  0.43477  1.0000
  N   N17       1.0  0.40413  0.29655  0.49296  1.0000
  C   C282      1.0  0.59578  0.11728  0.49557  1.0000
  H   H313      1.0  0.55754  0.22723  0.05664  1.0000
  H   H314      1.0  0.49463  0.41756  0.03718  1.0000
  H   H315      1.0  0.67585  0.24270  0.49861  1.0000
  C   C283      1.0  0.55019  0.25854  0.00941  1.0000
  C   C284      1.0  0.58949  0.11742  0.01971  1.0000
  C   C285      1.0  0.45930  0.48070  0.04952  1.0000
  C   C286      1.0  0.34443  0.49233  0.23972  1.0000
  H   H316      1.0  0.59434  0.17676  0.03325  1.0000
  H   H317      1.0  0.61684  0.02834  0.18248  1.0000
  C   C287      1.0  0.65586  0.17773  0.50080  1.0000
  H   H318      1.0  0.66530  0.04125  0.40555  1.0000
  H   H319      1.0  0.57050  0.01247  0.03239  1.0000
  H   H320      1.0  0.66323  0.44806  0.06692  1.0000
  H   H321      1.0  0.41185  0.34435  0.47235  1.0000
  C   C288      1.0  0.34854  0.39671  0.22780  1.0000
  H   H322      1.0  0.60445  0.39435  0.46261  1.0000
  H   H323      1.0  0.54464  0.48857  0.01759  1.0000
  Fe  Fe37      1.0  0.67370  0.14003  0.12895  1.0000
  H   H324      1.0  0.38067  0.35978  0.47305  1.0000
  H   H325      1.0  0.65804  0.01302  0.31932  1.0000
  C   C289      1.0  0.36126  0.37864  0.28822  1.0000
  C   C290      1.0  0.57897  0.19235  0.49852  1.0000
  H   H326      1.0  0.54448  0.32149  0.02231  1.0000
  C   C291      1.0  0.54625  0.30420  0.01866  1.0000
  H   H327      1.0  0.53971  0.02689  0.01429  1.0000
  H   H328      1.0  0.49924  0.50564  0.50138  1.0000
  C   C292      1.0  0.48822  0.48148  0.00486  1.0000
  S   S76       1.0  0.34283  0.43494  0.40506  1.0000
  H   H329      1.0  0.67378  0.15750  0.00482  1.0000
  H   H330      1.0  0.55942  0.18963  0.50151  1.0000
  H   H331      1.0  0.34703  0.40049  0.31601  1.0000
  C   C293      1.0  0.64507  0.00737  0.26642  1.0000
  H   H332      1.0  0.40860  0.26325  0.50409  1.0000
  H   H333      1.0  0.46959  0.50490  0.00482  1.0000
  C   C294      1.0  0.34406  0.40361  0.26122  1.0000
  N   N18       1.0  0.34331  0.40694  0.19596  1.0000
  H   H334      1.0  0.67582  0.18008  0.50013  1.0000
  H   H335      1.0  0.55295  0.46931  0.50030  1.0000
  H   H336      1.0  0.53677  0.01066  0.50120  1.0000
  Fe  Fe38      1.0  0.46015  0.10845  0.93180  1.0000
  S   S77       1.0  0.49887  0.11342  0.91535  1.0000
  S   S78       1.0  0.42284  0.06833  0.93931  1.0000
  Fe  Fe39      1.0  0.48040  0.16799  0.92628  1.0000
  S   S79       1.0  0.52012  0.17635  0.90756  1.0000
  S   S80       1.0  0.47546  0.20406  0.92928  1.0000
  Fe  Fe40      1.0  0.49801  0.13986  0.87445  1.0000
  S   S81       1.0  0.50803  0.13108  0.82117  1.0000
  Fe  Fe41      1.0  0.51734  0.14930  0.94969  1.0000
  H   H337      1.0  0.61182  0.19177  0.87353  1.0000
  S   S82       1.0  0.45840  0.13338  0.88943  1.0000
  S   S83       1.0  0.47859  0.14251  0.96999  1.0000
  Fe  Fe42      1.0  0.48844  0.14839  0.62284  1.0000
  S   S84       1.0  0.45615  0.14135  0.58534  1.0000
  S   S85       1.0  0.48885  0.16676  0.67490  1.0000
  Fe  Fe43      1.0  0.51460  0.13041  0.56984  1.0000
  S   S86       1.0  0.48429  0.12206  0.52888  1.0000
  S   S87       1.0  0.54741  0.12124  0.56608  1.0000
  Fe  Fe44      1.0  0.48831  0.16091  0.54590  1.0000
  H   H338      1.0  0.54282  0.46539  0.54499  1.0000
  Fe  Fe45      1.0  0.45499  0.10341  0.57191  1.0000
  S   S88       1.0  0.41632  0.06396  0.57486  1.0000
  S   S89       1.0  0.52079  0.17012  0.58427  1.0000
  S   S90       1.0  0.48517  0.10955  0.61192  1.0000
  C   C295      1.0  0.62211  0.18472  0.88924  1.0000
  S   S91       1.0  0.63193  0.46056  0.57898  1.0000
  C   C296      1.0  0.61178  0.44849  0.54173  1.0000
  C   C297      1.0  0.66347  0.16451  0.98795  1.0000
  H   H339      1.0  0.52468  0.19225  0.00228  1.0000
  H   H340      1.0  0.54040  0.11255  0.96741  1.0000
  H   H341      1.0  0.58802  0.11017  0.54978  1.0000
  H   H342      1.0  0.58979  0.16447  0.92444  1.0000
  H   H343      1.0  0.40582  0.04780  0.86955  1.0000
  C   C298      1.0  0.44264  0.01144  0.94080  1.0000
  H   H344      1.0  0.56114  0.08703  0.98549  1.0000
  H   H345      1.0  0.67146  0.22249  0.53523  1.0000
  H   H346      1.0  0.51087  0.31367  0.59749  1.0000
  H   H347      1.0  0.52898  0.24471  0.55734  1.0000
  C   C299      1.0  0.52451  0.21100  0.00363  1.0000
  H   H348      1.0  0.48030  0.23607  0.65674  1.0000
  C   C300      1.0  0.50136  0.14041  0.78089  1.0000
  C   C301      1.0  0.49268  0.15836  0.77827  1.0000
  C   C302      1.0  0.48867  0.16600  0.74561  1.0000
  C   C303      1.0  0.49289  0.15549  0.71533  1.0000
  C   C304      1.0  0.50099  0.13709  0.71799  1.0000
  C   C305      1.0  0.50533  0.12972  0.75062  1.0000
  H   H349      1.0  0.48953  0.16673  0.80135  1.0000
  H   H350      1.0  0.48237  0.18022  0.74385  1.0000
  H   H351      1.0  0.50438  0.12891  0.69492  1.0000
  H   H352      1.0  0.51208  0.11585  0.75240  1.0000
  C   C306      1.0  0.47043  0.21975  0.96544  1.0000
  H   H353      1.0  0.45182  0.05856  0.87538  1.0000
  H   H354      1.0  0.54899  0.25033  0.63784  1.0000
  H   H355      1.0  0.52565  0.29353  0.97018  1.0000
  C   C307      1.0  0.56001  0.47490  0.52739  1.0000
  C   C308      1.0  0.56827  0.10653  0.99620  1.0000
  C   C309      1.0  0.47253  0.24439  0.96107  1.0000
  H   H356      1.0  0.46623  0.01605  0.61083  1.0000
  H   H357      1.0  0.60019  0.40853  0.99688  1.0000
  H   H358      1.0  0.44839  0.01796  0.57436  1.0000
  C   C310      1.0  0.60622  0.44775  0.99329  1.0000
  H   H359      1.0  0.38691  0.26698  0.53239  1.0000
  C   C311      1.0  0.44013  0.07385  0.79609  1.0000
  S   S92       1.0  0.55327  0.16599  0.98485  1.0000
  H   H360      1.0  0.39035  0.01391  0.60876  1.0000
  C   C312      1.0  0.44448  0.03618  0.94104  1.0000
  C   C313      1.0  0.42154  0.03764  0.94041  1.0000
  H   H361      1.0  0.44725  0.09482  0.80319  1.0000
  H   H362      1.0  0.46364  0.05412  0.94185  1.0000
  H   H363      1.0  0.65722  0.20296  0.85862  1.0000
  H   H364      1.0  0.64446  0.49100  0.75233  1.0000
  C   C314      1.0  0.41065  0.03257  0.56199  1.0000
  H   H365      1.0  0.49717  0.48911  0.98022  1.0000
  C   C315      1.0  0.39679  0.01406  0.93962  1.0000
  C   C316      1.0  0.53743  0.26589  0.98474  1.0000
  C   C317      1.0  0.42076  0.01885  0.78487  1.0000
  H   H366      1.0  0.49339  0.20637  0.58052  1.0000
  H   H367      1.0  0.51439  0.25407  0.67195  1.0000
  H   H368      1.0  0.50175  0.27796  0.63607  1.0000
  H   H369      1.0  0.48050  0.19283  0.62161  1.0000
  H   H370      1.0  0.46944  0.21226  0.60047  1.0000
  C   C318      1.0  0.46384  0.23997  0.51475  1.0000
  C   C319      1.0  0.51500  0.25774  0.60097  1.0000
  H   H371      1.0  0.39303  0.04982  0.82854  1.0000
  C   C320      1.0  0.61718  0.46435  0.51292  1.0000
  C   C321      1.0  0.64766  0.19095  0.88090  1.0000
  H   H372      1.0  0.46372  0.08939  0.85556  1.0000
  C   C322      1.0  0.45614  0.06821  0.84995  1.0000
  H   H373      1.0  0.58352  0.18738  0.55222  1.0000
  H   H374      1.0  0.58397  0.25387  0.96868  1.0000
  H   H375      1.0  0.53278  0.48611  0.97426  1.0000
  C   C323      1.0  0.36360  0.49671  0.96081  1.0000
  C   C324      1.0  0.59266  0.19126  0.52708  1.0000
  C   C325      1.0  0.64866  0.16572  0.93023  1.0000
  H   H376      1.0  0.53268  0.06616  0.57755  1.0000
  H   H377      1.0  0.64381  0.15711  0.99960  1.0000
  N   N19       1.0  0.57555  0.50400  0.53279  1.0000
  H   H378      1.0  0.42535  0.03118  0.76258  1.0000
  C   C326      1.0  0.51380  0.05516  0.59181  1.0000
  H   H379      1.0  0.41728  0.07923  0.85119  1.0000
  H   H380      1.0  0.61213  0.14787  0.95964  1.0000
  H   H381      1.0  0.37892  0.01498  0.93918  1.0000
  H   H382      1.0  0.47153  0.27705  0.98534  1.0000
  S   S93       1.0  0.61241  0.49745  0.98998  1.0000
  S   S94       1.0  0.66784  0.50123  0.92284  1.0000
  H   H383      1.0  0.62727  0.19297  0.54621  1.0000
  C   C327      1.0  0.46934  0.21960  0.52011  1.0000
  N   N20       1.0  0.43264  0.05686  0.82694  1.0000
  C   C328      1.0  0.41688  0.01058  0.84609  1.0000
  C   C329      1.0  0.58239  0.11563  0.52617  1.0000
  C   C330      1.0  0.53419  0.47465  0.99575  1.0000
  H   H384      1.0  0.41833  0.01668  0.87263  1.0000
  C   C331      1.0  0.48983  0.05698  0.54254  1.0000
  H   H385      1.0  0.53182  0.04501  0.52913  1.0000
  H   H386      1.0  0.58557  0.41020  0.56316  1.0000
  H   H387      1.0  0.36887  0.48863  0.93829  1.0000
  H   H388      1.0  0.55588  0.39330  0.51168  1.0000
  H   H389      1.0  0.45455  0.50246  0.54430  1.0000
  H   H390      1.0  0.64358  0.11802  0.92457  1.0000
  H   H391      1.0  0.52816  0.25390  0.96199  1.0000
  H   H392      1.0  0.44911  0.24077  0.53037  1.0000
  H   H393      1.0  0.52881  0.31568  0.53943  1.0000
  C   C332      1.0  0.60969  0.16930  0.91781  1.0000
  H   H394      1.0  0.57396  0.50309  0.58819  1.0000
  C   C333      1.0  0.48708  0.21056  0.60553  1.0000
  C   C334      1.0  0.53200  0.23199  0.62678  1.0000
  C   C335      1.0  0.53097  0.28078  0.54609  1.0000
  C   C336      1.0  0.51521  0.29869  0.58940  1.0000
  C   C337      1.0  0.52551  0.30002  0.55678  1.0000
  C   C338      1.0  0.46662  0.02915  0.59014  1.0000
  H   H395      1.0  0.67332  0.48068  0.52872  1.0000
  H   H396      1.0  0.66876  0.43906  0.54554  1.0000
  H   H397      1.0  0.51200  0.07055  0.60626  1.0000
  C   C339      1.0  0.42361  0.02889  0.81903  1.0000
  C   C340      1.0  0.61760  0.19416  0.52324  1.0000
  H   H398      1.0  0.51288  0.21068  0.98095  1.0000
  C   C341      1.0  0.49925  0.23623  0.65764  1.0000
  C   C342      1.0  0.58980  0.42267  0.54101  1.0000
  H   H399      1.0  0.53842  0.22752  0.60210  1.0000
  N   N21       1.0  0.50845  0.23469  0.62260  1.0000
  H   H400      1.0  0.49522  0.21887  0.67343  1.0000
  H   H401      1.0  0.51596  0.04242  0.61084  1.0000
  H   H402      1.0  0.52794  0.21542  0.64415  1.0000
  C   C343      1.0  0.64585  0.12590  0.95124  1.0000
  H   H403      1.0  0.61965  0.45340  0.97187  1.0000
  H   H404      1.0  0.47646  0.25302  0.93576  1.0000
  H   H405      1.0  0.62565  0.11807  0.96166  1.0000
  C   C344      1.0  0.51002  0.27794  0.61135  1.0000
  H   H406      1.0  0.42310  0.06747  0.77819  1.0000
  H   H407      1.0  0.50478  0.42764  0.96349  1.0000
  C   C345      1.0  0.46986  0.25814  0.98919  1.0000
  C   C346      1.0  0.52562  0.25983  0.56762  1.0000
  C   C347      1.0  0.46507  0.20875  0.99829  1.0000
  C   C348      1.0  0.41125  0.05846  0.84471  1.0000
  H   H408      1.0  0.42824  0.04469  0.51207  1.0000
  H   H409      1.0  0.67461  0.18643  0.98970  1.0000
  N   N22       1.0  0.49070  0.03934  0.56873  1.0000
  C   C349      1.0  0.41791  0.02830  0.52940  1.0000
  C   C350      1.0  0.62269  0.15989  0.93794  1.0000
  H   H410      1.0  0.55203  0.23535  0.94820  1.0000
  C   C351      1.0  0.56220  0.12157  0.52653  1.0000
  N   N23       1.0  0.66170  0.15516  0.95199  1.0000
  H   H411      1.0  0.47257  0.06684  0.83810  1.0000
  H   H412      1.0  0.49046  0.44765  0.95613  1.0000
  H   H413      1.0  0.47337  0.04566  0.52383  1.0000
  C   C352      1.0  0.55653  0.12097  0.98585  1.0000
  H   H414      1.0  0.41502  0.49481  0.51228  1.0000
  C   C353      1.0  0.39641  0.01088  0.58373  1.0000
  H   H415      1.0  0.45675  0.07418  0.78204  1.0000
  C   C354      1.0  0.53574  0.28850  0.98926  1.0000
  H   H416      1.0  0.57202  0.46567  0.53258  1.0000
  H   H417      1.0  0.45856  0.20475  0.53920  1.0000
  H   H418      1.0  0.65502  0.11715  0.96731  1.0000
  H   H419      1.0  0.53850  0.28156  0.52043  1.0000
  C   C355      1.0  0.66090  0.18169  0.90104  1.0000
  C   C356      1.0  0.51600  0.02474  0.53181  1.0000
  H   H420      1.0  0.50852  0.06766  0.52778  1.0000
  H   H421      1.0  0.47395  0.41929  0.98312  1.0000
  H   H422      1.0  0.48684  0.07245  0.55451  1.0000
  H   H423      1.0  0.42080  0.31412  0.54230  1.0000
  H   H424      1.0  0.46518  0.04539  0.60277  1.0000
  H   H425      1.0  0.54741  0.46763  0.98633  1.0000
  C   C357      1.0  0.49375  0.43615  0.97591  1.0000
  C   C358      1.0  0.49310  0.01828  0.55125  1.0000
  S   S95       1.0  0.65607  0.50592  0.82355  1.0000
  H   H426      1.0  0.56663  0.21839  0.96630  1.0000
  H   H427      1.0  0.34833  0.47931  0.97515  1.0000
  S   S96       1.0  0.49798  0.19433  0.50766  1.0000
  C   C359      1.0  0.56415  0.23569  0.97040  1.0000
  H   H428      1.0  0.44209  0.30805  0.51565  1.0000
  H   H429      1.0  0.35098  0.26974  0.51483  1.0000
  C   C360      1.0  0.42708  0.31418  0.51532  1.0000
  H   H430      1.0  0.52393  0.48323  0.50622  1.0000
  C   C361      1.0  0.57297  0.41307  0.51194  1.0000
  C   C362      1.0  0.53334  0.50325  0.51587  1.0000
  H   H431      1.0  0.46291  0.18962  0.00201  1.0000
  H   H432      1.0  0.59925  0.49809  0.57033  1.0000
  H   H433      1.0  0.64903  0.17330  0.52778  1.0000
  H   H434      1.0  0.46053  0.01061  0.94137  1.0000
  H   H435      1.0  0.63418  0.48398  0.51274  1.0000
  Fe  Fe46      1.0  0.66278  0.50419  0.58345  1.0000
  H   H436      1.0  0.43752  0.33494  0.50656  1.0000
  C   C363      1.0  0.56604  0.14642  0.99895  1.0000
  H   H437      1.0  0.66299  0.46190  0.99061  1.0000
  C   C364      1.0  0.35848  0.28948  0.50554  1.0000
  C   C365      1.0  0.67568  0.22471  0.50724  1.0000
  H   H438      1.0  0.42437  0.40500  0.00375  1.0000
  C   C366      1.0  0.39337  0.26914  0.50514  1.0000
  N   N24       1.0  0.55160  0.23442  0.00397  1.0000
  S   S97       1.0  0.40424  0.55262  0.44356  1.0000
  S   S98       1.0  0.43257  0.52686  0.02743  1.0000
  Fe  Fe47      1.0  0.52589  0.88513  0.43887  1.0000
  S   S99       1.0  0.56076  0.89169  0.47051  1.0000
  C   C367      1.0  0.36196  0.79201  0.02999  1.0000
  Fe  Fe48      1.0  0.54012  0.86079  0.37799  1.0000
  S   S100      1.0  0.57614  0.86593  0.40526  1.0000
  S   S101      1.0  0.52404  0.83886  0.32697  1.0000
  Fe  Fe49      1.0  0.55028  0.85067  0.45237  1.0000
  H   H439      1.0  0.61051  0.96078  0.47457  1.0000
  Fe  Fe50      1.0  0.58325  0.90615  0.42088  1.0000
  S   S102      1.0  0.62112  0.94445  0.40836  1.0000
  S   S103      1.0  0.51375  0.84372  0.42390  1.0000
  S   S104      1.0  0.54886  0.90154  0.39032  1.0000
  Fe  Fe51      1.0  0.51600  0.87196  0.08476  1.0000
  S   S105      1.0  0.53775  0.87701  0.03592  1.0000
  S   S106      1.0  0.47729  0.87141  0.08800  1.0000
  Fe  Fe52      1.0  0.56100  0.87604  0.12842  1.0000
  S   S107      1.0  0.58629  0.88134  0.08189  1.0000
  S   S108      1.0  0.57914  0.88305  0.18218  1.0000
  Fe  Fe53      1.0  0.57352  0.90920  0.06360  1.0000
  S   S109      1.0  0.59710  0.94779  0.03466  1.0000
  Fe  Fe54      1.0  0.54868  0.84850  0.05772  1.0000
  H   H440      1.0  0.36636  0.80132  0.05600  1.0000
  S   S110      1.0  0.55095  0.90607  0.11106  1.0000
  S   S111      1.0  0.52413  0.84130  0.10565  1.0000
  C   C368      1.0  0.61757  0.97879  0.05545  1.0000
  H   H441      1.0  0.55844  0.96607  0.02365  1.0000
  C   C369      1.0  0.63118  0.98099  0.08603  1.0000
  C   C370      1.0  0.62180  0.00194  0.03957  1.0000
  H   H442      1.0  0.62838  0.96339  0.09834  1.0000
  C   C371      1.0  0.46262  0.85251  0.02150  1.0000
  H   H443      1.0  0.55041  0.91747  0.20844  1.0000
  H   H444      1.0  0.38055  0.80331  0.01496  1.0000
  C   C372      1.0  0.57778  0.98472  0.39930  1.0000
  C   C373      1.0  0.58163  0.77568  0.01752  1.0000
  C   C374      1.0  0.63000  0.97568  0.42626  1.0000
  H   H445      1.0  0.48281  0.51567  0.37726  1.0000
  C   C375      1.0  0.62224  0.97821  0.45934  1.0000
  H   H446      1.0  0.54793  0.71900  0.03607  1.0000
  C   C376      1.0  0.53429  0.69785  0.04199  1.0000
  C   C377      1.0  0.53981  0.85116  0.28697  1.0000
  C   C378      1.0  0.56555  0.87285  0.28506  1.0000
  C   C379      1.0  0.57743  0.88202  0.25277  1.0000
  C   C380      1.0  0.56365  0.86985  0.22210  1.0000
  C   C381      1.0  0.53819  0.84772  0.22406  1.0000
  C   C382      1.0  0.52631  0.83848  0.25635  1.0000
  H   H447      1.0  0.57629  0.88262  0.30841  1.0000
  H   H448      1.0  0.59731  0.89890  0.25152  1.0000
  H   H449      1.0  0.52784  0.83753  0.20072  1.0000
  H   H450      1.0  0.50657  0.82142  0.25762  1.0000
  C   C383      1.0  0.48639  0.58814  0.49313  1.0000
  C   C384      1.0  0.64954  0.00609  0.09979  1.0000
  C   C385      1.0  0.53074  0.95942  0.40413  1.0000
  S   S112      1.0  0.50090  0.90290  0.45274  1.0000
  C   C386      1.0  0.55395  0.79468  0.00761  1.0000
  H   H451      1.0  0.61160  0.00053  0.01577  1.0000
  H   H452      1.0  0.59652  0.77484  0.03287  1.0000
  H   H453      1.0  0.40928  0.55951  0.01448  1.0000
  H   H454      1.0  0.61300  0.76918  0.40991  1.0000
  C   C387      1.0  0.53830  0.91169  0.23124  1.0000
  C   C388      1.0  0.43587  0.56605  0.46247  1.0000
  C   C389      1.0  0.44862  0.59173  0.47639  1.0000
  H   H455      1.0  0.51560  0.99238  0.41158  1.0000
  H   H456      1.0  0.44770  0.57313  0.28843  1.0000
  H   H457      1.0  0.44222  0.59093  0.08123  1.0000
  C   C390      1.0  0.51030  0.89595  0.22905  1.0000
  H   H458      1.0  0.51304  0.95311  0.42050  1.0000
  H   H459      1.0  0.43176  0.62595  0.09197  1.0000
  H   H460      1.0  0.46138  0.88725  0.21006  1.0000
  H   H461      1.0  0.48354  0.62258  0.50237  1.0000
  H   H462      1.0  0.57784  0.96623  0.39343  1.0000
  H   H463      1.0  0.52732  0.92098  0.16645  1.0000
  H   H464      1.0  0.45894  0.85535  0.21029  1.0000
  C   C391      1.0  0.55766  0.96863  0.45461  1.0000
  C   C392      1.0  0.50048  0.70896  0.04292  1.0000
  C   C393      1.0  0.47455  0.54680  0.38508  1.0000
  H   H465      1.0  0.43889  0.53175  0.45305  1.0000
  C   C394      1.0  0.50346  0.86944  0.17830  1.0000
  C   C395      1.0  0.57313  0.79327  0.02722  1.0000
  H   H466      1.0  0.50287  0.92650  0.18562  1.0000
  C   C396      1.0  0.57785  0.80007  0.48831  1.0000
  H   H467      1.0  0.47522  0.87464  0.26166  1.0000
  C   C397      1.0  0.43914  0.52420  0.33005  1.0000
  H   H468      1.0  0.57287  0.93072  0.26390  1.0000
  N   N25       1.0  0.42517  0.55786  0.33477  1.0000
  H   H469      1.0  0.42095  0.59197  0.34084  1.0000
  C   C398      1.0  0.42676  0.56131  0.29685  1.0000
  C   C399      1.0  0.39734  0.53916  0.34398  1.0000
  C   C400      1.0  0.44171  0.54707  0.34622  1.0000
  C   C401      1.0  0.45973  0.55791  0.37445  1.0000
  C   C402      1.0  0.46818  0.86351  0.49757  1.0000
  C   C403      1.0  0.49376  0.64135  0.03951  1.0000
  H   H470      1.0  0.62497  0.00521  0.49921  1.0000
  H   H471      1.0  0.63720  0.98626  0.26673  1.0000
  C   C404      1.0  0.63052  0.00342  0.47327  1.0000
  C   C405      1.0  0.43296  0.58381  0.35090  1.0000
  H   H472      1.0  0.58180  0.73265  0.44690  1.0000
  H   H473      1.0  0.53580  0.69561  0.07014  1.0000
  C   C406      1.0  0.47462  0.88735  0.48214  1.0000
  H   H474      1.0  0.38969  0.51939  0.33196  1.0000
  H   H475      1.0  0.39540  0.53637  0.37229  1.0000
  C   C407      1.0  0.44928  0.63044  0.07758  1.0000
  C   C408      1.0  0.34527  0.81966  0.01187  1.0000
  C   C409      1.0  0.50986  0.89462  0.29225  1.0000
  H   H476      1.0  0.42960  0.58213  0.37924  1.0000
  C   C410      1.0  0.55174  0.79311  0.49490  1.0000
  C   C411      1.0  0.55145  0.91922  0.26296  1.0000
  N   N26       1.0  0.55536  0.97980  0.42168  1.0000
  H   H477      1.0  0.34881  0.82907  0.03772  1.0000
  H   H478      1.0  0.58752  0.51135  0.47981  1.0000
  H   H479      1.0  0.42500  0.51412  0.30948  1.0000
  H   H480      1.0  0.50147  0.71108  0.07144  1.0000
  C   C412      1.0  0.64573  0.99860  0.40709  1.0000
  C   C413      1.0  0.44854  0.55155  0.46366  1.0000
  C   C414      1.0  0.45514  0.61069  0.07169  1.0000
  H   H481      1.0  0.51484  0.72879  0.03239  1.0000
  H   H482      1.0  0.45844  0.86983  0.17064  1.0000
  H   H483      1.0  0.35790  0.77152  0.03276  1.0000
  H   H484      1.0  0.65211  0.99684  0.38167  1.0000
  C   C415      1.0  0.53728  0.91063  0.29338  1.0000
  H   H485      1.0  0.54057  0.96351  0.47162  1.0000
  H   H486      1.0  0.47948  0.85424  0.49163  1.0000
  H   H487      1.0  0.48164  0.60065  0.04776  1.0000
  N   N27       1.0  0.54726  0.78655  0.37345  1.0000
  C   C416      1.0  0.53645  0.79774  0.39822  1.0000
  C   C417      1.0  0.56806  0.80884  0.35337  1.0000
  C   C418      1.0  0.52593  0.76888  0.34906  1.0000
  C   C419      1.0  0.55700  0.77149  0.39237  1.0000
  C   C420      1.0  0.58377  0.77782  0.39123  1.0000
  C   C421      1.0  0.53960  0.75008  0.41351  1.0000
  C   C422      1.0  0.59241  0.76370  0.41046  1.0000
  C   C423      1.0  0.54848  0.73614  0.43260  1.0000
  C   C424      1.0  0.57483  0.74298  0.43116  1.0000
  H   H488      1.0  0.55162  0.81017  0.41789  1.0000
  H   H489      1.0  0.52985  0.81011  0.38521  1.0000
  H   H490      1.0  0.51904  0.78247  0.41242  1.0000
  H   H491      1.0  0.58435  0.82350  0.37035  1.0000
  H   H492      1.0  0.56013  0.81992  0.33980  1.0000
  H   H493      1.0  0.57644  0.80186  0.33314  1.0000
  H   H494      1.0  0.53302  0.75943  0.33054  1.0000
  H   H495      1.0  0.50841  0.75297  0.36241  1.0000
  H   H496      1.0  0.51871  0.77996  0.33390  1.0000
  H   H497      1.0  0.59856  0.79385  0.37618  1.0000
  H   H498      1.0  0.51911  0.74439  0.41615  1.0000
  H   H499      1.0  0.41561  0.99936  0.49294  1.0000
  C   C425      1.0  0.49640  0.88739  0.26063  1.0000
  H   H500      1.0  0.51024  0.64431  0.02396  1.0000
  H   H501      1.0  0.55813  0.95018  0.45039  1.0000
  H   H502      1.0  0.62024  0.88499  0.02487  1.0000
  H   H503      1.0  0.52777  0.96645  0.37904  1.0000
  H   H504      1.0  0.48069  0.70440  0.03362  1.0000
  H   H505      1.0  0.41630  0.57144  0.28792  1.0000
  C   C426      1.0  0.50606  0.91142  0.17291  1.0000
  C   C427      1.0  0.62900  0.90345  0.00979  1.0000
  H   H506      1.0  0.53509  0.72047  0.44952  1.0000
  C   C428      1.0  0.47741  0.61619  0.05285  1.0000
  H   H507      1.0  0.54769  0.91563  0.31781  1.0000
  H   H508      1.0  0.45626  0.93252  0.01976  1.0000
  N   N28       1.0  0.50661  0.68863  0.03138  1.0000
  H   H509      1.0  0.38395  0.54624  0.33582  1.0000
  H   H510      1.0  0.41718  0.54217  0.28253  1.0000
  C   C429      1.0  0.48867  0.66208  0.04546  1.0000
  H   H511      1.0  0.59110  0.81868  0.47620  1.0000
  C   C430      1.0  0.45846  0.86464  0.04982  1.0000
  Fe  Fe55      1.0  0.38204  0.50908  0.42977  1.0000
  H   H512      1.0  0.49622  0.85129  0.19377  1.0000
  H   H513      1.0  0.49906  0.88720  0.31606  1.0000
  H   H514      1.0  0.49435  0.86323  0.15225  1.0000
  H   H515      1.0  0.52513  0.87824  0.17523  1.0000
  S   S113      1.0  0.53953  0.81465  0.48629  1.0000
  C   C431      1.0  0.43862  0.87107  0.04801  1.0000
  H   H516      1.0  0.46242  0.57466  0.38931  1.0000
  H   H517      1.0  0.46460  0.91758  0.47808  1.0000
  C   C432      1.0  0.55605  0.00486  0.42856  1.0000
  C   C433      1.0  0.45984  0.89924  0.49009  1.0000
  C   C434      1.0  0.47165  0.52448  0.36845  1.0000
  H   H518      1.0  0.43529  0.88044  0.06986  1.0000
  H   H519      1.0  0.48800  0.55531  0.40686  1.0000
  H   H520      1.0  0.45411  0.59858  0.34605  1.0000
  H   H521      1.0  0.49545  0.90614  0.14765  1.0000
  N   N29       1.0  0.49692  0.88796  0.19504  1.0000
  C   C435      1.0  0.46574  0.65584  0.06477  1.0000
  H   H522      1.0  0.54263  0.68716  0.02831  1.0000
  C   C436      1.0  0.55173  0.99845  0.02034  1.0000
  S   S114      1.0  0.54270  0.81685  0.01769  1.0000
  C   C437      1.0  0.54491  0.97232  0.01530  1.0000
  H   H523      1.0  0.53118  0.94109  0.39876  1.0000
  C   C438      1.0  0.46764  0.87457  0.19685  1.0000
  H   H524      1.0  0.35253  0.77532  0.49223  1.0000
  H   H525      1.0  0.57594  0.98250  0.46910  1.0000
  H   H526      1.0  0.58151  0.80579  0.04976  1.0000
  H   H527      1.0  0.46000  0.67014  0.07011  1.0000
  H   H528      1.0  0.60757  0.78931  0.49407  1.0000
  H   H529      1.0  0.48331  0.55117  0.47982  1.0000
  C   C439      1.0  0.47372  0.56259  0.47887  1.0000
  H   H530      1.0  0.43895  0.60309  0.47537  1.0000
  C   C440      1.0  0.45393  0.51316  0.34101  1.0000
  H   H531      1.0  0.63450  0.00666  0.21419  1.0000
  H   H532      1.0  0.47764  0.84720  0.02271  1.0000
  H   H533      1.0  0.62601  0.91779  0.02507  1.0000
  C   C441      1.0  0.47380  0.60276  0.49180  1.0000
  C   C442      1.0  0.58718  0.78340  0.49872  1.0000
  H   H534      1.0  0.59721  0.99825  0.41151  1.0000
  H   H535      1.0  0.57719  0.99372  0.37456  1.0000
  H   H536      1.0  0.65065  0.91135  0.00843  1.0000
  H   H537      1.0  0.40811  0.87079  0.01684  1.0000
  C   C443      1.0  0.42317  0.86558  0.01799  1.0000
  C   C444      1.0  0.53434  0.00653  0.01008  1.0000
  Fe  Fe56      1.0  0.37208  0.91279  0.55859  1.0000
  S   S115      1.0  0.39982  0.90905  0.59439  1.0000
  S   S116      1.0  0.38597  0.94865  0.52458  1.0000
  Fe  Fe57      1.0  0.38349  0.86866  0.57132  1.0000
  H   H538      1.0  0.51660  0.75943  0.62940  1.0000
  C   C445      1.0  0.41007  0.58300  0.89405  1.0000
  Fe  Fe58      1.0  0.38310  0.86342  0.94001  1.0000
  C   C446      1.0  0.65583  0.64008  0.91828  1.0000
  S   S117      1.0  0.40792  0.84526  0.95186  1.0000
  Fe  Fe59      1.0  0.38301  0.91477  0.93394  1.0000
  S   S118      1.0  0.41711  0.95742  0.93946  1.0000
  S   S119      1.0  0.39338  0.89194  0.89684  1.0000
  Fe  Fe60      1.0  0.54035  0.66318  0.61383  1.0000
  S   S120      1.0  0.58188  0.69664  0.60693  1.0000
  S   S121      1.0  0.51494  0.65309  0.66147  1.0000
  Fe  Fe61      1.0  0.53903  0.63900  0.54344  1.0000
  S   S122      1.0  0.58067  0.67093  0.53140  1.0000
  H   H539      1.0  0.66598  0.60867  0.61366  1.0000
  Fe  Fe62      1.0  0.59023  0.66599  0.58585  1.0000
  S   S123      1.0  0.62363  0.66195  0.60835  1.0000
  Fe  Fe63      1.0  0.56855  0.69893  0.55308  1.0000
  H   H540      1.0  0.35289  0.80249  0.57664  1.0000
  S   S124      1.0  0.54955  0.63266  0.59646  1.0000
  S   S125      1.0  0.52608  0.66699  0.56141  1.0000
  Fe  Fe64      1.0  0.56514  0.70300  0.93784  1.0000
  S   S126      1.0  0.53115  0.69478  0.90349  1.0000
  H   H541      1.0  0.39826  0.95411  0.80087  1.0000
  Fe  Fe65      1.0  0.56659  0.65406  0.90983  1.0000
  S   S127      1.0  0.53148  0.64256  0.87497  1.0000
  S   S128      1.0  0.57982  0.62391  0.90373  1.0000
  Fe  Fe66      1.0  0.55202  0.68552  0.86202  1.0000
  S   S129      1.0  0.56383  0.70333  0.80855  1.0000
  Fe  Fe67      1.0  0.51416  0.65256  0.91981  1.0000
  S   S130      1.0  0.47167  0.63003  0.93833  1.0000
  S   S131      1.0  0.58774  0.69684  0.89535  1.0000
  S   S132      1.0  0.54742  0.66093  0.95580  1.0000
  H   H542      1.0  0.56604  0.65297  0.79688  1.0000
  H   H543      1.0  0.62482  0.93896  0.97341  1.0000
  S   S133      1.0  0.64051  0.53546  0.90486  1.0000
  S   S134      1.0  0.65771  0.53226  0.61749  1.0000
  C   C447      1.0  0.62876  0.92519  0.95825  1.0000
  C   C448      1.0  0.47309  0.91664  0.96500  1.0000
  C   C449      1.0  0.60846  0.62146  0.90962  1.0000
  C   C450      1.0  0.60558  0.59638  0.90685  1.0000
  C   C451      1.0  0.62748  0.59305  0.91029  1.0000
  C   C452      1.0  0.65281  0.61485  0.91600  1.0000
  H   H544      1.0  0.64566  0.90553  0.91386  1.0000
  C   C453      1.0  0.63377  0.64339  0.91543  1.0000
  H   H545      1.0  0.58614  0.57928  0.90237  1.0000
  H   H546      1.0  0.62461  0.57353  0.90847  1.0000
  H   H547      1.0  0.61506  0.63611  0.82943  1.0000
  C   C454      1.0  0.47293  0.99113  0.55217  1.0000
  H   H548      1.0  0.60513  0.81503  0.95994  1.0000
  C   C455      1.0  0.41169  0.99213  0.77858  1.0000
  C   C456      1.0  0.42776  0.56773  0.00091  1.0000
  C   C457      1.0  0.66985  0.59404  0.77148  1.0000
  C   C458      1.0  0.57105  0.75917  0.98824  1.0000
  C   C459      1.0  0.63082  0.63818  0.59209  1.0000
  C   C460      1.0  0.62100  0.62580  0.56020  1.0000
  C   C461      1.0  0.62781  0.60773  0.54734  1.0000
  C   C462      1.0  0.64387  0.60123  0.56658  1.0000
  C   C463      1.0  0.65341  0.61331  0.59876  1.0000
  C   C464      1.0  0.64712  0.63191  0.61128  1.0000
  H   H549      1.0  0.60870  0.63066  0.54502  1.0000
  C   C465      1.0  0.67545  0.52227  0.72269  1.0000
  H   H550      1.0  0.48045  0.56120  0.63633  1.0000
  C   C466      1.0  0.44698  0.51553  0.54860  1.0000
  C   C467      1.0  0.52931  0.66633  0.70235  1.0000
  C   C468      1.0  0.51504  0.65425  0.73232  1.0000
  C   C469      1.0  0.52551  0.66495  0.76514  1.0000
  C   C470      1.0  0.55007  0.68827  0.76817  1.0000
  C   C471      1.0  0.56432  0.70033  0.73818  1.0000
  C   C472      1.0  0.55421  0.68921  0.70547  1.0000
  H   H551      1.0  0.49571  0.63660  0.73017  1.0000
  H   H552      1.0  0.51431  0.65554  0.78801  1.0000
  H   H553      1.0  0.58337  0.71835  0.74031  1.0000
  H   H554      1.0  0.56548  0.69863  0.68269  1.0000
  C   C473      1.0  0.46125  0.60193  0.96416  1.0000
  H   H555      1.0  0.53093  0.73344  0.53313  1.0000
  C   C474      1.0  0.59629  0.51554  0.50615  1.0000
  H   H556      1.0  0.37579  0.97132  0.93853  1.0000
  H   H557      1.0  0.66469  0.62112  0.84674  1.0000
  C   C475      1.0  0.54152  0.72744  0.61729  1.0000
  H   H558      1.0  0.65129  0.87249  0.88411  1.0000
  H   H559      1.0  0.42463  0.60093  0.88142  1.0000
  C   C476      1.0  0.53328  0.77417  0.61511  1.0000
  H   H560      1.0  0.63636  0.66284  0.91770  1.0000
  C   C477      1.0  0.46724  0.56704  0.98634  1.0000
  C   C478      1.0  0.55925  0.51644  0.53049  1.0000
  H   H561      1.0  0.59247  0.75587  0.60345  1.0000
  C   C479      1.0  0.58860  0.50904  0.56713  1.0000
  C   C480      1.0  0.61072  0.63682  0.69716  1.0000
  C   C481      1.0  0.41791  0.98787  0.93983  1.0000
  N   N30       1.0  0.61710  0.89903  0.97491  1.0000
  C   C482      1.0  0.39494  0.98928  0.93917  1.0000
  C   C483      1.0  0.36332  0.89050  0.72528  1.0000
  H   H562      1.0  0.39418  0.92315  0.75411  1.0000
  H   H563      1.0  0.63787  0.62628  0.71739  1.0000
  H   H564      1.0  0.64266  0.55099  0.77139  1.0000
  C   C484      1.0  0.44703  0.85164  0.52081  1.0000
  C   C485      1.0  0.39876  0.54218  0.92227  1.0000
  H   H565      1.0  0.56995  0.62629  0.81141  1.0000
  C   C486      1.0  0.39627  0.98087  0.54028  1.0000
  H   H566      1.0  0.54795  0.82639  0.56404  1.0000
  S   S135      1.0  0.58385  0.73952  0.52844  1.0000
  H   H567      1.0  0.47419  0.97213  0.94081  1.0000
  Fe  Fe68      1.0  0.35024  0.86932  0.88315  1.0000
  C   C487      1.0  0.50475  0.68714  0.99334  1.0000
  C   C488      1.0  0.56982  0.54313  0.54084  1.0000
  C   C489      1.0  0.43691  0.59074  0.98131  1.0000
  C   C490      1.0  0.57775  0.79371  0.59291  1.0000
  C   C491      1.0  0.60797  0.65282  0.76540  1.0000
  H   H568      1.0  0.59887  0.84732  0.99117  1.0000
  C   C492      1.0  0.44685  0.84657  0.99175  1.0000
  C   C493      1.0  0.55528  0.55568  0.53753  1.0000
  C   C494      1.0  0.42716  0.85316  0.98980  1.0000
  S   S136      1.0  0.35850  0.87363  0.53211  1.0000
  H   H569      1.0  0.36441  0.53707  0.99697  1.0000
  C   C495      1.0  0.58830  0.88843  0.97821  1.0000
  C   C496      1.0  0.62536  0.63426  0.72341  1.0000
  C   C497      1.0  0.54345  0.77822  0.97830  1.0000
  H   H570      1.0  0.64374  0.66848  0.82074  1.0000
  H   H571      1.0  0.38117  0.50727  0.97823  1.0000
  C   C498      1.0  0.38961  0.98522  0.57318  1.0000
  C   C499      1.0  0.65267  0.56488  0.72060  1.0000
  C   C500      1.0  0.45514  0.93989  0.99392  1.0000
  H   H572      1.0  0.47716  0.53917  0.58444  1.0000
  H   H573      1.0  0.40949  0.98473  0.75237  1.0000
  H   H574      1.0  0.42508  0.59987  0.97929  1.0000
  H   H575      1.0  0.66697  0.58300  0.67144  1.0000
  H   H576      1.0  0.49187  0.95810  0.92117  1.0000
  H   H577      1.0  0.54607  0.72635  0.58973  1.0000
  H   H578      1.0  0.62044  0.66448  0.85273  1.0000
  H   H579      1.0  0.64104  0.54518  0.70960  1.0000
  H   H580      1.0  0.41964  0.56224  0.56059  1.0000
  C   C501      1.0  0.50270  0.96182  0.98845  1.0000
  H   H581      1.0  0.35667  0.79587  0.96274  1.0000
  S   S137      1.0  0.40569  0.84795  0.55775  1.0000
  C   C502      1.0  0.36702  0.89259  0.78824  1.0000
  H   H582      1.0  0.45446  0.98418  0.56550  1.0000
  C   C503      1.0  0.47647  0.59009  0.96698  1.0000
  C   C504      1.0  0.62861  0.84176  0.92013  1.0000
  H   H583      1.0  0.52875  0.77922  0.96274  1.0000
  C   C505      1.0  0.49897  0.97878  0.51732  1.0000
  H   H584      1.0  0.64172  0.60842  0.81135  1.0000
  C   C506      1.0  0.41500  0.52808  0.53534  1.0000
  H   H585      1.0  0.58051  0.66289  0.74230  1.0000
  H   H586      1.0  0.63619  0.63999  0.77604  1.0000
  H   H587      1.0  0.43666  0.56862  0.89962  1.0000
  C   C507      1.0  0.55067  0.81222  0.57827  1.0000
  H   H588      1.0  0.45633  0.93962  0.92402  1.0000
  H   H589      1.0  0.54249  0.71155  0.63120  1.0000
  C   C508      1.0  0.66289  0.61703  0.81851  1.0000
  H   H590      1.0  0.49521  0.59848  0.95385  1.0000
  H   H591      1.0  0.60886  0.53737  0.50899  1.0000
  H   H592      1.0  0.43547  0.92562  0.98242  1.0000
  C   C509      1.0  0.47492  0.95377  0.93802  1.0000
  C   C510      1.0  0.37648  0.90390  0.75575  1.0000
  H   H593      1.0  0.40583  0.52949  0.93060  1.0000
  H   H594      1.0  0.39810  0.52510  0.52035  1.0000
  C   C511      1.0  0.41681  0.56468  0.90429  1.0000
  H   H595      1.0  0.58973  0.55476  0.55084  1.0000
  C   C512      1.0  0.41057  0.00256  0.51854  1.0000
  H   H596      1.0  0.34552  0.75624  0.53075  1.0000
  S   S138      1.0  0.35095  0.84908  0.61011  1.0000
  H   H597      1.0  0.45377  0.90324  0.95195  1.0000
  H   H598      1.0  0.55737  0.74015  0.68433  1.0000
  Fe  Fe69      1.0  0.36509  0.88996  0.63047  1.0000
  C   C513      1.0  0.57440  0.81256  0.57588  1.0000
  N   N31       1.0  0.46296  0.57684  0.60227  1.0000
  C   C514      1.0  0.47224  0.60199  0.58401  1.0000
  C   C515      1.0  0.44356  0.57404  0.62865  1.0000
  C   C516      1.0  0.48612  0.57896  0.62064  1.0000
  C   C517      1.0  0.45033  0.55440  0.57748  1.0000
  C   C518      1.0  0.42763  0.54943  0.55833  1.0000
  C   C519      1.0  0.45978  0.53682  0.57171  1.0000
  H   H599      1.0  0.45604  0.60274  0.57047  1.0000
  H   H600      1.0  0.48167  0.61927  0.60201  1.0000
  H   H601      1.0  0.48719  0.60504  0.56441  1.0000
  H   H602      1.0  0.43519  0.55482  0.64202  1.0000
  H   H603      1.0  0.42682  0.57514  0.61741  1.0000
  H   H604      1.0  0.45284  0.59007  0.64854  1.0000
  H   H605      1.0  0.50180  0.58177  0.60226  1.0000
  H   H606      1.0  0.49548  0.59631  0.63861  1.0000
  H   H607      1.0  0.47287  0.90677  0.98935  1.0000
  H   H608      1.0  0.60985  0.50774  0.50767  1.0000
  H   H609      1.0  0.58996  0.82701  0.55963  1.0000
  H   H610      1.0  0.56626  0.77409  0.68074  1.0000
  H   H611      1.0  0.50997  0.67301  0.98256  1.0000
  C   C520      1.0  0.43230  0.86355  0.52883  1.0000
  H   H612      1.0  0.37736  0.90312  0.81143  1.0000
  C   C521      1.0  0.58719  0.75800  0.63035  1.0000
  H   H613      1.0  0.51150  0.79255  0.59884  1.0000
  C   C522      1.0  0.66730  0.58616  0.69902  1.0000
  H   H614      1.0  0.61550  0.69842  0.82582  1.0000
  H   H615      1.0  0.62015  0.92347  0.93217  1.0000
  N   N32       1.0  0.67217  0.59874  0.80918  1.0000
  N   N33       1.0  0.56013  0.75386  0.63219  1.0000
  H   H616      1.0  0.65849  0.57875  0.85752  1.0000
  C   C523      1.0  0.59469  0.64716  0.70443  1.0000
  H   H617      1.0  0.67531  0.65714  0.92264  1.0000
  C   C524      1.0  0.55388  0.75403  0.66916  1.0000
  C   C525      1.0  0.63988  0.86731  0.90759  1.0000
  H   H618      1.0  0.62064  0.59881  0.52221  1.0000
  C   C526      1.0  0.55732  0.77408  0.61354  1.0000
  H   H619      1.0  0.52063  0.72247  0.61851  1.0000
  N   N34       1.0  0.47702  0.94323  0.97166  1.0000
  C   C527      1.0  0.63645  0.88617  0.92504  1.0000
  C   C528      1.0  0.38498  0.57864  0.90102  1.0000
  S   S139      1.0  0.37512  0.88708  0.97788  1.0000
  H   H620      1.0  0.60505  0.69572  0.78236  1.0000
  H   H621      1.0  0.34752  0.55366  0.92378  1.0000
  C   C529      1.0  0.57882  0.64807  0.81227  1.0000
  C   C530      1.0  0.53012  0.79301  0.59774  1.0000
  C   C531      1.0  0.51892  0.00521  0.51541  1.0000
  C   C532      1.0  0.61669  0.69076  0.79998  1.0000
  H   H622      1.0  0.45523  0.95863  0.99762  1.0000
  C   C533      1.0  0.37306  0.53727  0.93018  1.0000
  H   H623      1.0  0.60228  0.77781  0.64053  1.0000
  C   C534      1.0  0.40800  0.98400  0.83956  1.0000
  H   H624      1.0  0.58360  0.64942  0.68376  1.0000
  C   C535      1.0  0.40533  0.97477  0.80585  1.0000
  C   C536      1.0  0.57050  0.75928  0.51517  1.0000
  H   H625      1.0  0.46035  0.95122  0.53662  1.0000
  C   C537      1.0  0.34408  0.86775  0.79057  1.0000
  H   H626      1.0  0.60407  0.53008  0.57132  1.0000
  H   H627      1.0  0.63492  0.56454  0.82346  1.0000
  H   H628      1.0  0.35741  0.82376  0.52182  1.0000
  H   H629      1.0  0.53282  0.74769  0.67338  1.0000
  C   C538      1.0  0.43876  0.88741  0.51340  1.0000
  H   H630      1.0  0.57746  0.65356  0.83928  1.0000
  C   C539      1.0  0.55189  0.76061  0.96866  1.0000
  C   C540      1.0  0.61396  0.83496  0.95026  1.0000
  C   C541      1.0  0.35050  0.77579  0.52057  1.0000
  H   H631      1.0  0.59629  0.79461  0.58873  1.0000
  H   H632      1.0  0.58417  0.90310  0.99024  1.0000
  S   S140      1.0  0.58207  0.73686  0.97771  1.0000
  C   C542      1.0  0.61046  0.85364  0.96793  1.0000
  N   N35       1.0  0.60662  0.66202  0.80049  1.0000
  C   C543      1.0  0.62228  0.65751  0.82667  1.0000
  H   H633      1.0  0.37851  0.96873  0.59014  1.0000
  C   C544      1.0  0.47599  0.97181  0.53545  1.0000
  C   C545      1.0  0.36664  0.55607  0.91866  1.0000
  C   C546      1.0  0.62417  0.64220  0.75708  1.0000
  H   H634      1.0  0.48872  0.91760  0.94802  1.0000
  Fe  Fe70      1.0  0.66661  0.52395  0.87744  1.0000
  H   H635      1.0  0.44217  0.83323  0.53272  1.0000
  C   C547      1.0  0.59319  0.65494  0.73802  1.0000
  H   H636      1.0  0.45002  0.83690  0.97010  1.0000
  H   H637      1.0  0.58906  0.74324  0.64577  1.0000
  H   H638      1.0  0.51837  0.70653  0.98146  1.0000
  C   C548      1.0  0.62146  0.87980  0.95580  1.0000
  C   C549      1.0  0.42460  0.51111  0.53057  1.0000
  H   H639      1.0  0.66301  0.56000  0.82500  1.0000
  H   H640      1.0  0.36322  0.83239  0.99652  1.0000
  H   H641      1.0  0.65503  0.64161  0.63581  1.0000
  H   H642      1.0  0.63760  0.70207  0.79143  1.0000
  H   H643      1.0  0.54372  0.74835  0.94586  1.0000
  S   S141      1.0  0.51781  0.60083  0.51240  1.0000
  C   C550      1.0  0.44285  0.55570  0.00326  1.0000
  C   C551      1.0  0.67303  0.52208  0.78556  1.0000
  C   C552      1.0  0.51012  0.98851  0.99454  1.0000
  C   C553      1.0  0.66259  0.50999  0.75345  1.0000
  S   S142      1.0  0.37564  0.90642  0.68533  1.0000
  H   H644      1.0  0.61193  0.63099  0.67100  1.0000
  S   S143      1.0  0.65102  0.57772  0.54918  1.0000
  H   H645      1.0  0.57821  0.88281  0.95266  1.0000
  C   C554      1.0  0.54415  0.75193  0.52081  1.0000
  C   C555      1.0  0.65643  0.57437  0.82943  1.0000
  H   H646      1.0  0.37058  0.79073  0.53056  1.0000
  H   H647      1.0  0.40311  0.97051  0.86086  1.0000
  H   H648      1.0  0.51683  0.93424  0.99685  1.0000
  H   H649      1.0  0.48427  0.68030  0.98420  1.0000
  H   H650      1.0  0.63118  0.82713  0.90652  1.0000
  H   H651      1.0  0.65064  0.93503  0.95639  1.0000
  C   C556      1.0  0.52984  0.54211  0.52361  1.0000
  C   C557      1.0  0.53496  0.76883  0.51098  1.0000
  H   H652      1.0  0.56399  0.57625  0.54521  1.0000
  H   H653      1.0  0.42745  0.89668  0.51934  1.0000
  H   H654      1.0  0.51881  0.55209  0.52068  1.0000
  H   H655      1.0  0.51477  0.76327  0.51642  1.0000
  H   H656      1.0  0.37991  0.59308  0.89319  1.0000
  C   C558      1.0  0.65387  0.56857  0.75630  1.0000
  N   N36       1.0  0.35364  0.51414  0.95009  1.0000
  C   C559      1.0  0.51889  0.51597  0.51277  1.0000
  H   H657      1.0  0.47913  0.55796  0.98822  1.0000
  H   H658      1.0  0.49715  0.99565  0.98742  1.0000
  H   H659      1.0  0.57844  0.87065  0.99460  1.0000
  H   H660      1.0  0.66733  0.51268  0.69814  1.0000
  Fe  Fe71      1.0  0.64586  0.51681  0.95176  1.0000
  C   C560      1.0  0.34649  0.52322  0.98174  1.0000
  C   C561      1.0  0.52079  0.95415  0.99968  1.0000
  H   H661      1.0  0.50123  0.96361  0.50471  1.0000
  Fe  Fe72      1.0  0.67396  0.56036  0.57332  1.0000
  H   H662      1.0  0.67461  0.63649  0.80602  1.0000
  S   S144      1.0  0.67607  0.53104  0.53842  1.0000
  H   H663      1.0  0.69312  0.09313  0.21120  1.0000
  C   C562      1.0  0.76244  0.21696  0.49247  1.0000
  S   S145      1.0  0.70913  0.13886  0.10984  1.0000
  C   C563      1.0  0.89040  0.46447  0.36273  1.0000
  Fe  Fe73      1.0  0.70345  0.15508  0.05977  1.0000
  H   H664      1.0  0.68093  0.44863  0.01009  1.0000
  C   C564      1.0  0.82752  0.42731  0.44937  1.0000
  C   C565      1.0  0.80863  0.22862  0.49318  1.0000
  Fe  Fe74      1.0  0.70348  0.15737  0.45002  1.0000
  H   H665      1.0  0.71245  0.45035  0.46877  1.0000
  H   H666      1.0  0.82568  0.42163  0.47614  1.0000
  C   C566      1.0  0.79422  0.30266  0.04354  1.0000
  H   H667      1.0  0.90728  0.46652  0.34748  1.0000
  C   C567      1.0  0.85070  0.43565  0.39426  1.0000
  S   S146      1.0  0.71003  0.12658  0.42466  1.0000
  C   C568      1.0  0.68167  0.46739  0.00455  1.0000
  S   S147      1.0  0.87229  0.46105  0.07612  1.0000
  H   H668      1.0  0.74779  0.46599  0.08283  1.0000
  C   C569      1.0  0.69337  0.13705  0.28622  1.0000
  C   C570      1.0  0.69882  0.14247  0.22376  1.0000
  C   C571      1.0  0.94648  0.26192  0.44752  1.0000
  H   H669      1.0  0.76399  0.30417  0.01276  1.0000
  H   H670      1.0  0.77639  0.19311  0.46960  1.0000
  H   H671      1.0  0.83527  0.45077  0.35520  1.0000
  H   H672      1.0  0.89868  0.47713  0.38614  1.0000
  S   S148      1.0  0.72901  0.18788  0.02093  1.0000
  N   N37       1.0  0.81629  0.32850  0.03208  1.0000
  C   C572      1.0  0.79777  0.28623  0.06676  1.0000
  C   C573      1.0  0.70662  0.13766  0.25587  1.0000
  H   H673      1.0  0.69535  0.50003  0.49505  1.0000
  H   H674      1.0  0.70919  0.14288  0.20064  1.0000
  H   H675      1.0  0.91333  0.23479  0.41585  1.0000
  H   H676      1.0  0.82541  0.23943  0.04659  1.0000
  C   C574      1.0  0.87977  0.42677  0.03674  1.0000
  H   H677      1.0  0.88240  0.24601  0.44316  1.0000
  C   C575      1.0  0.90285  0.25571  0.45181  1.0000
  C   C576      1.0  0.86902  0.44318  0.03787  1.0000
  H   H678      1.0  0.73116  0.47587  0.50048  1.0000
  H   H679      1.0  0.72293  0.13420  0.25721  1.0000
  H   H680      1.0  0.89048  0.42590  0.05885  1.0000
  H   H681      1.0  0.89814  0.43858  0.41211  1.0000
  H   H682      1.0  0.82337  0.22366  0.48650  1.0000
  C   C577      1.0  0.71404  0.46781  0.48225  1.0000
  C   C578      1.0  0.71791  0.47296  0.06205  1.0000
  H   H683      1.0  0.79561  0.43499  0.45142  1.0000
  C   C579      1.0  0.98217  0.49638  0.00837  1.0000
  N   N38       1.0  0.87168  0.43672  0.37221  1.0000
  C   C580      1.0  0.85980  0.42092  0.34029  1.0000
  S   S149      1.0  0.68301  0.16151  0.40340  1.0000
  C   C581      1.0  0.88717  0.42643  0.38912  1.0000
  S   S150      1.0  0.72809  0.19501  0.48338  1.0000
  C   C582      1.0  0.76814  0.29304  0.03098  1.0000
  H   H684      1.0  0.84431  0.40029  0.34645  1.0000
  C   C583      1.0  0.90709  0.46167  0.48376  1.0000
  C   C584      1.0  0.85510  0.44408  0.00923  1.0000
  Fe  Fe75      1.0  0.67854  0.09834  0.08900  1.0000
  H   H685      1.0  0.87489  0.42017  0.32394  1.0000
  H   H686      1.0  0.92335  0.32343  0.50039  1.0000
  C   C585      1.0  0.75112  0.25317  0.06421  1.0000
  H   H687      1.0  0.77961  0.24948  0.09415  1.0000
  H   H688      1.0  0.71961  0.48358  0.46298  1.0000
  C   C586      1.0  0.81343  0.44283  0.40140  1.0000
  H   H689      1.0  0.82727  0.36951  0.03335  1.0000
  H   H690      1.0  0.90244  0.42701  0.37176  1.0000
  C   C587      1.0  0.99398  0.48101  0.00875  1.0000
  C   C588      1.0  0.84730  0.42766  0.42921  1.0000
  C   C589      1.0  0.81059  0.43484  0.43550  1.0000
  N   N39       1.0  0.68908  0.46077  0.50018  1.0000
  H   H691      1.0  0.87423  0.40559  0.39719  1.0000
  H   H692      1.0  0.68360  0.48168  0.44002  1.0000
  H   H693      1.0  0.80685  0.35012  0.06837  1.0000
  N   N40       1.0  0.68500  0.48314  0.03614  1.0000
  S   S151      1.0  0.70286  0.12898  0.32550  1.0000
  H   H694      1.0  0.67691  0.06142  0.31864  1.0000
  C   C590      1.0  0.92023  0.24940  0.43644  1.0000
  H   H695      1.0  0.95996  0.25698  0.43537  1.0000
  C   C591      1.0  0.84209  0.33604  0.04842  1.0000
  H   H696      1.0  0.85812  0.35576  0.03985  1.0000
  H   H697      1.0  0.85583  0.48722  0.25982  1.0000
  H   H698      1.0  0.84122  0.33717  0.07692  1.0000
  C   C592      1.0  0.91162  0.27453  0.47833  1.0000
  H   H699      1.0  0.84852  0.32184  0.04143  1.0000
  Fe  Fe76      1.0  0.68720  0.12911  0.37919  1.0000
  H   H700      1.0  0.93283  0.44655  0.47350  1.0000
  H   H701      1.0  0.77926  0.20307  0.05686  1.0000
  H   H702      1.0  0.73485  0.23393  0.07141  1.0000
  H   H703      1.0  0.88081  0.47295  0.34712  1.0000
  C   C593      1.0  0.80965  0.23722  0.02994  1.0000
  H   H704      1.0  0.85049  0.42929  0.32384  1.0000
  C   C594      1.0  0.77641  0.26200  0.07705  1.0000
  C   C595      1.0  0.68029  0.07844  0.19136  1.0000
  H   H705      1.0  0.70413  0.45208  0.05865  1.0000
  C   C596      1.0  0.91638  0.44426  0.48853  1.0000
  C   C597      1.0  0.83325  0.44341  0.38108  1.0000
  S   S152      1.0  0.92218  0.48648  0.45254  1.0000
  C   C598      1.0  0.78193  0.21119  0.48354  1.0000
  C   C599      1.0  0.78343  0.21651  0.03585  1.0000
  C   C600      1.0  0.74277  0.48067  0.07608  1.0000
  H   H706      1.0  0.85999  0.42208  0.44193  1.0000
  H   H707      1.0  0.84647  0.45642  0.00998  1.0000
  H   H708      1.0  0.80076  0.44941  0.39084  1.0000
  C   C601      1.0  0.81054  0.34964  0.04037  1.0000
  H   H709      1.0  0.92591  0.48781  0.04214  1.0000
  H   H710      1.0  0.72733  0.26139  0.03081  1.0000
  H   H711      1.0  0.79305  0.34717  0.02612  1.0000
  H   H712      1.0  0.81693  0.29124  0.07671  1.0000
  H   H713      1.0  0.97606  0.28976  0.48130  1.0000
  H   H714      1.0  0.88572  0.39947  0.00649  1.0000
  H   H715      1.0  0.87853  0.47190  0.49972  1.0000
  C   C602      1.0  0.74699  0.26863  0.04117  1.0000
  C   C603      1.0  0.95549  0.28079  0.47409  1.0000
  C   C604      1.0  0.71113  0.49184  0.05210  1.0000
  S   S153      1.0  0.67610  0.11414  0.03771  1.0000
  C   C605      1.0  0.76273  0.21331  0.01464  1.0000
  C   C606      1.0  0.67775  0.14692  0.22169  1.0000
  H   H716      1.0  0.95652  0.33953  0.48452  1.0000
  Fe  Fe77      1.0  0.87967  0.50284  0.07822  1.0000
  S   S154      1.0  0.86573  0.50301  0.42862  1.0000
  H   H717      1.0  0.68986  0.06709  0.18372  1.0000
  C   C607      1.0  0.68143  0.50532  0.02608  1.0000
  H   H718      1.0  0.68054  0.08971  0.16838  1.0000
  C   C608      1.0  0.93819  0.28759  0.49045  1.0000
  C   C609      1.0  0.88586  0.45863  0.50331  1.0000
  C   C610      1.0  0.87697  0.41164  0.00714  1.0000
  H   H719      1.0  0.68551  0.20659  0.44965  1.0000
  S   S155      1.0  0.67826  0.06048  0.10103  1.0000
  H   H720      1.0  0.89731  0.27879  0.48924  1.0000
  Fe  Fe78      1.0  0.88877  0.33514  0.88499  1.0000
  S   S156      1.0  0.90610  0.32230  0.92700  1.0000
  S   S157      1.0  0.90074  0.33041  0.83080  1.0000
  Fe  Fe79      1.0  0.87526  0.36620  0.93692  1.0000
  S   S158      1.0  0.89273  0.35634  0.98130  1.0000
  S   S159      1.0  0.85797  0.39275  0.94143  1.0000
  Fe  Fe80      1.0  0.92621  0.36430  0.94584  1.0000
  S   S160      1.0  0.96969  0.39645  0.95123  1.0000
  Fe  Fe81      1.0  0.87066  0.31498  0.95860  1.0000
  C   C611      1.0  0.90464  0.42399  0.51285  1.0000
  S   S161      1.0  0.90989  0.37716  0.90308  1.0000
  S   S162      1.0  0.85185  0.32473  0.91507  1.0000
  Fe  Fe82      1.0  0.88123  0.36655  0.57337  1.0000
  S   S163      1.0  0.90130  0.35017  0.54077  1.0000
  S   S164      1.0  0.86842  0.39614  0.56373  1.0000
  Fe  Fe83      1.0  0.87174  0.32967  0.63311  1.0000
  S   S165      1.0  0.89087  0.31043  0.60556  1.0000
  S   S166      1.0  0.84827  0.31654  0.68270  1.0000
  Fe  Fe84      1.0  0.92241  0.35157  0.59010  1.0000
  S   S167      1.0  0.96489  0.36176  0.60097  1.0000
  Fe  Fe85      1.0  0.86847  0.31019  0.55839  1.0000
  H   H721      1.0  0.70569  0.47821  0.79495  1.0000
  S   S168      1.0  0.90449  0.37069  0.62141  1.0000
  S   S169      1.0  0.84718  0.32660  0.58704  1.0000
  H   H722      1.0  0.92220  0.48848  0.94632  1.0000
  H   H723      1.0  0.68924  0.15608  0.91464  1.0000
  C   C612      1.0  0.88352  0.42105  0.53258  1.0000
  C   C613      1.0  0.84342  0.37195  0.65482  1.0000
  H   H724      1.0  0.98243  0.36801  0.79473  1.0000
  H   H725      1.0  0.70233  0.18507  0.94257  1.0000
  H   H726      1.0  0.98997  0.44377  0.99459  1.0000
  H   H727      1.0  0.83398  0.40075  0.73773  1.0000
  H   H728      1.0  0.84157  0.42461  0.68618  1.0000
  C   C614      1.0  0.81569  0.25504  0.00275  1.0000
  S   S170      1.0  0.84995  0.27246  0.52536  1.0000
  C   C615      1.0  0.85186  0.42853  0.97982  1.0000
  H   H729      1.0  0.98293  0.39828  0.87856  1.0000
  H   H730      1.0  0.84079  0.42908  0.95793  1.0000
  H   H731      1.0  0.85779  0.43620  0.54284  1.0000
  C   C616      1.0  0.88574  0.32732  0.79009  1.0000
  C   C617      1.0  0.85978  0.32186  0.78651  1.0000
  C   C618      1.0  0.84854  0.31863  0.75343  1.0000
  C   C619      1.0  0.86328  0.32131  0.72374  1.0000
  C   C620      1.0  0.88935  0.32717  0.72734  1.0000
  C   C621      1.0  0.90040  0.32991  0.76035  1.0000
  H   H732      1.0  0.84826  0.31970  0.80917  1.0000
  H   H733      1.0  0.82835  0.31409  0.75088  1.0000
  H   H734      1.0  0.90087  0.32920  0.70472  1.0000
  H   H735      1.0  0.92044  0.33400  0.76282  1.0000
  H   H736      1.0  0.81549  0.39012  0.68431  1.0000
  H   H737      1.0  0.69807  0.15502  0.95834  1.0000
  H   H738      1.0  0.82619  0.35593  0.66864  1.0000
  H   H739      1.0  0.88831  0.43686  0.66898  1.0000
  C   C622      1.0  0.84998  0.39690  0.73876  1.0000
  H   H740      1.0  0.98885  0.32930  0.50847  1.0000
  C   C623      1.0  0.94408  0.32976  0.50739  1.0000
  H   H741      1.0  0.88368  0.38541  0.80082  1.0000
  H   H742      1.0  0.93709  0.30911  0.57177  1.0000
  H   H743      1.0  0.94578  0.42608  0.96817  1.0000
  N   N41       1.0  0.98327  0.36696  0.85044  1.0000
  H   H744      1.0  0.69829  0.47875  0.98646  1.0000
  H   H745      1.0  0.94655  0.33741  0.87306  1.0000
  H   H746      1.0  0.85799  0.36551  0.65231  1.0000
  H   H747      1.0  0.79916  0.26508  0.96032  1.0000
  N   N42       1.0  0.81132  0.23611  0.63069  1.0000
  C   C624      1.0  0.81194  0.25990  0.61762  1.0000
  C   C625      1.0  0.81647  0.23992  0.66838  1.0000
  C   C626      1.0  0.83328  0.23440  0.61482  1.0000
  C   C627      1.0  0.78567  0.21236  0.62131  1.0000
  C   C628      1.0  0.76726  0.19534  0.64616  1.0000
  C   C629      1.0  0.77833  0.20583  0.58620  1.0000
  C   C630      1.0  0.74312  0.17322  0.63615  1.0000
  C   C631      1.0  0.75414  0.18379  0.57648  1.0000
  C   C632      1.0  0.73658  0.16748  0.60140  1.0000
  H   H748      1.0  0.79499  0.26131  0.62749  1.0000
  H   H749      1.0  0.83036  0.27824  0.62568  1.0000
  H   H750      1.0  0.81126  0.26014  0.58909  1.0000
  H   H751      1.0  0.80147  0.24284  0.68178  1.0000
  H   H752      1.0  0.83593  0.25798  0.67445  1.0000
  H   H753      1.0  0.81692  0.22300  0.67998  1.0000
  H   H754      1.0  0.83285  0.23492  0.58621  1.0000
  H   H755      1.0  0.85294  0.25128  0.62281  1.0000
  H   H756      1.0  0.83247  0.21583  0.62215  1.0000
  H   H757      1.0  0.77097  0.19865  0.67348  1.0000
  H   H758      1.0  0.79122  0.21779  0.56588  1.0000
  N   N43       1.0  0.94472  0.50342  0.99351  1.0000
  H   H759      1.0  0.74896  0.17936  0.54939  1.0000
  N   N44       1.0  0.94687  0.30740  0.51866  1.0000
  C   C633      1.0  0.87801  0.41783  0.65444  1.0000
  H   H760      1.0  0.90916  0.28960  0.54471  1.0000
  H   H761      1.0  0.98280  0.39220  0.53668  1.0000
  H   H762      1.0  0.90435  0.47268  0.98490  1.0000
  C   C634      1.0  0.91947  0.49174  0.97385  1.0000
  H   H763      1.0  0.75534  0.24532  0.51784  1.0000
  C   C635      1.0  0.76877  0.23108  0.98738  1.0000
  H   H764      1.0  0.89264  0.41174  0.64918  1.0000
  C   C636      1.0  0.85771  0.39367  0.77157  1.0000
  H   H765      1.0  0.83705  0.37299  0.62814  1.0000
  S   S171      1.0  0.84924  0.28113  0.99715  1.0000
  H   H766      1.0  0.83619  0.34661  0.98485  1.0000
  H   H767      1.0  0.90629  0.38180  0.74959  1.0000
  H   H768      1.0  0.92472  0.45184  0.96665  1.0000
  C   C637      1.0  0.99665  0.38411  0.58363  1.0000
  C   C638      1.0  0.89081  0.38640  0.74651  1.0000
  C   C639      1.0  0.83439  0.40540  0.67263  1.0000
  H   H769      1.0  0.70361  0.45298  0.54701  1.0000
  C   C640      1.0  0.86252  0.39480  0.70866  1.0000
  C   C641      1.0  0.68896  0.16325  0.94109  1.0000
  C   C642      1.0  0.94411  0.46104  0.97848  1.0000
  N   N45       1.0  0.85461  0.39753  0.67343  1.0000
  H   H770      1.0  0.91075  0.50459  0.97477  1.0000
  H   H771      1.0  0.70837  0.49492  0.53363  1.0000
  C   C643      1.0  0.69161  0.48512  0.51495  1.0000
  H   H772      1.0  0.97832  0.30272  0.53905  1.0000
  C   C644      1.0  0.87414  0.43837  0.52767  1.0000
  H   H773      1.0  0.95262  0.34302  0.81341  1.0000
  H   H774      1.0  0.97268  0.35549  0.90327  1.0000
  H   H775      1.0  0.84772  0.39497  0.79423  1.0000
  H   H776      1.0  0.82943  0.40784  0.64572  1.0000
  H   H777      1.0  0.75303  0.22890  0.97077  1.0000
  H   H778      1.0  0.95391  0.37840  0.85268  1.0000
  H   H779      1.0  0.71787  0.15036  0.59367  1.0000
  C   C645      1.0  0.81629  0.25215  0.51163  1.0000
  H   H780      1.0  0.91205  0.41080  0.51649  1.0000
  C   C646      1.0  0.95604  0.44585  0.97918  1.0000
  C   C647      1.0  0.96830  0.34671  0.87687  1.0000
  C   C648      1.0  0.79499  0.25177  0.98145  1.0000
  C   C649      1.0  0.97454  0.35382  0.81624  1.0000
  C   C650      1.0  0.88304  0.38924  0.71361  1.0000
  H   H781      1.0  0.70282  0.48155  0.73279  1.0000
  H   H782      1.0  0.89287  0.38642  0.69202  1.0000
  C   C651      1.0  0.99991  0.39555  0.55126  1.0000
  H   H783      1.0  0.87248  0.42173  0.62866  1.0000
  H   H784      1.0  0.97252  0.33041  0.87576  1.0000
  C   C652      1.0  0.79687  0.25816  0.51998  1.0000
  H   H785      1.0  0.98094  0.33924  0.81229  1.0000
  H   H786      1.0  0.80233  0.27624  0.53383  1.0000
  H   H787      1.0  0.98403  0.40200  0.83271  1.0000
  H   H788      1.0  0.98683  0.35988  0.97364  1.0000
  C   C653      1.0  0.86276  0.41223  0.97866  1.0000
  H   H789      1.0  0.69844  0.48880  0.84724  1.0000
  C   C654      1.0  0.98092  0.45579  0.99414  1.0000
  C   C655      1.0  0.97579  0.38733  0.85362  1.0000
  H   H790      1.0  0.72933  0.16042  0.65543  1.0000
  C   C656      1.0  0.87806  0.38841  0.77542  1.0000
  C   C657      1.0  0.77016  0.24058  0.51075  1.0000
  C   C658      1.0  0.00093  0.39902  0.95482  1.0000
  H   H791      1.0  0.80168  0.32414  0.97976  1.0000
  C   C659      1.0  0.00403  0.37847  0.96670  1.0000
  H   H792      1.0  0.68063  0.18726  0.89320  1.0000
  H   H793      1.0  0.82331  0.31170  0.98709  1.0000
  C   C660      1.0  0.93007  0.29527  0.54927  1.0000
  H   H794      1.0  0.93016  0.27725  0.55709  1.0000
  C   C661      1.0  0.97483  0.31841  0.52961  1.0000
  C   C662      1.0  0.81944  0.32768  0.99436  1.0000
  H   H795      1.0  0.98046  0.33296  0.55119  1.0000
  H   H796      1.0  0.74812  0.49359  0.87775  1.0000
  H   H797      1.0  0.73122  0.47547  0.83970  1.0000
  H   H798      1.0  0.76334  0.50023  0.96890  1.0000
  C   C663      1.0  0.74671  0.49526  0.84934  1.0000
  C   C664      1.0  0.68615  0.44342  0.52936  1.0000
  C   C665      1.0  0.72014  0.49638  0.78296  1.0000
  H   H799      1.0  0.95023  0.34500  0.52811  1.0000
  C   C666      1.0  0.95694  0.48693  0.99298  1.0000
  H   H800      1.0  0.76588  0.49973  0.83800  1.0000
  C   C667      1.0  0.71845  0.49795  0.74728  1.0000
  H   H801      1.0  0.68404  0.42454  0.52015  1.0000
  H   H802      1.0  0.69609  0.22825  0.50427  1.0000
  C   C668      1.0  0.87733  0.52071  0.22663  1.0000
  S   S172      1.0  0.88698  0.52906  0.03291  1.0000
  Fe  Fe86      1.0  0.89580  0.54759  0.13099  1.0000
  S   S173      1.0  0.90463  0.57691  0.08878  1.0000
  S   S174      1.0  0.90665  0.56477  0.18570  1.0000
  Fe  Fe87      1.0  0.86618  0.54552  0.06402  1.0000
  H   H803      1.0  0.95587  0.55212  0.31587  1.0000
  Fe  Fe88      1.0  0.92452  0.55814  0.06151  1.0000
  S   S175      1.0  0.96378  0.57627  0.03256  1.0000
  H   H804      1.0  0.91072  0.58449  0.25403  1.0000
  H   H805      1.0  0.81120  0.58707  0.02805  1.0000
  Fe  Fe89      1.0  0.92984  0.57136  0.41844  1.0000
  C   C669      1.0  0.78260  0.54439  0.47708  1.0000
  S   S176      1.0  0.96802  0.60880  0.40403  1.0000
  Fe  Fe90      1.0  0.87574  0.54140  0.45443  1.0000
  C   C670      1.0  0.97605  0.59646  0.25133  1.0000
  H   H806      1.0  0.95843  0.59186  0.33494  1.0000
  N   N46       1.0  0.97597  0.58867  0.28762  1.0000
  Fe  Fe91      1.0  0.88208  0.52691  0.38044  1.0000
  C   C671      1.0  0.96358  0.60040  0.30879  1.0000
  S   S177      1.0  0.91715  0.55124  0.46950  1.0000
  S   S178      1.0  0.88940  0.56479  0.40521  1.0000
  H   H807      1.0  0.98410  0.58741  0.23367  1.0000
  C   C672      1.0  0.00267  0.59723  0.30153  1.0000
  H   H808      1.0  0.97698  0.62209  0.31204  1.0000
  H   H809      1.0  0.81244  0.54220  0.44721  1.0000
  H   H810      1.0  0.83861  0.60082  0.44871  1.0000
  C   C673      1.0  0.89306  0.54819  0.22485  1.0000
  C   C674      1.0  0.89924  0.56322  0.25539  1.0000
  C   C675      1.0  0.89045  0.55098  0.28751  1.0000
  C   C676      1.0  0.87486  0.52352  0.28933  1.0000
  C   C677      1.0  0.95925  0.55949  0.28905  1.0000
  S   S179      1.0  0.91810  0.53095  0.10490  1.0000
  S   S180      1.0  0.92299  0.53520  0.39037  1.0000
  H   H811      1.0  0.89525  0.56279  0.31079  1.0000
  C   C678      1.0  0.91967  0.63775  0.45433  1.0000
  S   S181      1.0  0.83869  0.56021  0.04529  1.0000
  H   H812      1.0  0.80325  0.51226  0.00437  1.0000
  C   C679      1.0  0.94417  0.63937  0.45514  1.0000
  H   H813      1.0  0.96847  0.54991  0.27471  1.0000
  H   H814      1.0  0.93929  0.55217  0.27753  1.0000
  H   H815      1.0  0.98279  0.60111  0.10041  1.0000
  C   C680      1.0  0.81912  0.54141  0.50150  1.0000
  C   C681      1.0  0.99585  0.59763  0.05010  1.0000
  C   C682      1.0  0.99971  0.60699  0.08404  1.0000
  H   H816      1.0  0.76995  0.54700  0.07613  1.0000
  C   C683      1.0  0.00582  0.59195  0.33623  1.0000
  H   H817      1.0  0.78095  0.51337  0.09120  1.0000
  H   H818      1.0  0.98753  0.61828  0.24851  1.0000
  C   C684      1.0  0.73054  0.51886  0.05797  1.0000
  C   C685      1.0  0.81017  0.55052  0.01879  1.0000
  H   H819      1.0  0.98336  0.58958  0.46353  1.0000
  H   H820      1.0  0.91555  0.64625  0.43249  1.0000
  Fe  Fe92      1.0  0.90750  0.51429  0.44038  1.0000
  H   H821      1.0  0.95567  0.58963  0.24158  1.0000
  S   S182      1.0  0.85641  0.51720  0.10810  1.0000
  C   C686      1.0  0.99910  0.61713  0.42192  1.0000
  C   C687      1.0  0.95028  0.62751  0.48144  1.0000
  H   H822      1.0  0.85855  0.64817  0.47327  1.0000
  H   H823      1.0  0.72752  0.53476  0.05095  1.0000
  N   N47       1.0  0.87460  0.62265  0.47864  1.0000
  H   H824      1.0  0.96905  0.62824  0.48134  1.0000
  C   C688      1.0  0.75518  0.52628  0.07246  1.0000
  H   H825      1.0  0.94475  0.59688  0.29729  1.0000
  H   H826      1.0  0.85731  0.58477  0.45367  1.0000
  H   H827      1.0  0.86845  0.61165  0.42475  1.0000
  H   H828      1.0  0.88546  0.65621  0.44577  1.0000
  S   S183      1.0  0.85003  0.54271  0.49817  1.0000
  H   H829      1.0  0.95828  0.64914  0.43466  1.0000
  C   C689      1.0  0.85904  0.60429  0.45018  1.0000
  C   C690      1.0  0.90069  0.62465  0.48051  1.0000
  C   C691      1.0  0.80532  0.54239  0.47276  1.0000
  C   C692      1.0  0.00110  0.60487  0.45144  1.0000
  C   C693      1.0  0.93915  0.50710  0.02963  1.0000
  H   H830      1.0  0.77248  0.54574  0.45464  1.0000
  C   C694      1.0  0.87777  0.64884  0.47187  1.0000
  S   S184      1.0  0.86300  0.50740  0.32920  1.0000
  H   H831      1.0  0.95738  0.51799  0.04559  1.0000
  H   H832      1.0  0.98901  0.58194  0.35313  1.0000
  H   H833      1.0  0.89151  0.66383  0.49099  1.0000
  H   H834      1.0  0.92926  0.51877  0.03121  1.0000
  C   C695      1.0  0.80077  0.56805  0.01516  1.0000
  H   H835      1.0  0.99271  0.51559  0.02063  1.0000
  C   C696      1.0  0.76143  0.50730  0.08107  1.0000
  H   H836      1.0  0.69658  0.51823  0.00706  1.0000
  H   H837      1.0  0.68251  0.51751  0.04872  1.0000
  H   H838      1.0  0.87232  0.50892  0.20330  1.0000
  C   C697      1.0  0.86813  0.50846  0.25873  1.0000
  H   H839      1.0  0.96976  0.52755  0.95255  1.0000
  S   S185      1.0  0.70456  0.56092  0.89128  1.0000
  H   H840      1.0  0.77109  0.57496  0.99299  1.0000
  H   H841      1.0  0.70864  0.52290  0.84790  1.0000
  S   S186      1.0  0.74515  0.54907  0.51371  1.0000
  Fe  Fe93      1.0  0.70509  0.53897  0.93858  1.0000
  H   H842      1.0  0.76903  0.56046  0.73537  1.0000
  C   C698      1.0  0.68291  0.61139  0.71300  1.0000
  C   C699      1.0  0.73625  0.52091  0.73025  1.0000
  Fe  Fe94      1.0  0.71758  0.54621  0.55769  1.0000
  C   C700      1.0  0.78640  0.54324  0.53878  1.0000
  H   H843      1.0  0.76080  0.53878  0.88641  1.0000
  N   N48       1.0  0.74061  0.51597  0.84070  1.0000
  H   H844      1.0  0.95331  0.54152  0.97551  1.0000
  C   C701      1.0  0.69654  0.54657  0.78668  1.0000
  S   S187      1.0  0.71675  0.57838  0.58880  1.0000
  H   H845      1.0  0.87025  0.62534  0.53338  1.0000
  H   H846      1.0  0.77292  0.55872  0.79729  1.0000
  H   H847      1.0  0.72758  0.57779  0.75700  1.0000
  H   H848      1.0  0.75696  0.55718  0.85318  1.0000
  C   C702      1.0  0.77307  0.54504  0.51008  1.0000
  S   S188      1.0  0.73552  0.52691  0.95223  1.0000
  S   S189      1.0  0.68275  0.55340  0.97024  1.0000
  H   H849      1.0  0.70499  0.55589  0.81118  1.0000
  C   C703      1.0  0.77370  0.51924  0.98176  1.0000
  H   H850      1.0  0.81983  0.54095  0.55695  1.0000
  H   H851      1.0  0.77946  0.54381  0.56433  1.0000
  C   C704      1.0  0.80931  0.54158  0.53447  1.0000
  Fe  Fe95      1.0  0.70038  0.54846  0.63169  1.0000
  C   C705      1.0  0.76422  0.53671  0.97839  1.0000
  S   S190      1.0  0.68121  0.61150  0.91774  1.0000
  C   C706      1.0  0.96297  0.52961  0.97843  1.0000
  C   C707      1.0  0.69891  0.54682  0.72381  1.0000
  H   H852      1.0  0.93641  0.60399  0.52686  1.0000
  C   C708      1.0  0.70933  0.55892  0.75594  1.0000
  S   S191      1.0  0.70416  0.51768  0.60164  1.0000
  C   C709      1.0  0.70021  0.61078  0.82014  1.0000
  C   C710      1.0  0.79641  0.52601  0.00186  1.0000
  C   C711      1.0  0.73961  0.51802  0.80282  1.0000
  S   S192      1.0  0.71645  0.56255  0.68599  1.0000
  H   H853      1.0  0.78117  0.54700  0.84948  1.0000
  H   H854      1.0  0.73437  0.52240  0.70270  1.0000
  C   C712      1.0  0.75577  0.54241  0.74882  1.0000
  C   C713      1.0  0.75758  0.54115  0.78458  1.0000
  C   C714      1.0  0.71462  0.50865  0.85560  1.0000
  H   H855      1.0  0.98061  0.54192  0.99494  1.0000
  C   C715      1.0  0.76081  0.54089  0.85792  1.0000
  C   C716      1.0  0.77792  0.56119  0.99531  1.0000
  Fe  Fe96      1.0  0.67828  0.57142  0.92151  1.0000
  H   H856      1.0  0.89381  0.60071  0.52668  1.0000
  H   H857      1.0  0.71504  0.50831  0.88419  1.0000
  H   H858      1.0  0.70846  0.59846  0.81162  1.0000
  H   H859      1.0  0.69690  0.63525  0.75824  1.0000
  H   H860      1.0  0.85377  0.59220  0.51618  1.0000
  H   H861      1.0  0.71301  0.63083  0.80961  1.0000
  C   C717      1.0  0.68417  0.61538  0.74866  1.0000
  H   H862      1.0  0.70247  0.61299  0.84870  1.0000
  H   H863      1.0  0.69451  0.62782  0.69603  1.0000
  C   C718      1.0  0.93189  0.61393  0.50705  1.0000
  C   C719      1.0  0.85910  0.61274  0.51081  1.0000
  C   C720      1.0  0.90737  0.61233  0.50667  1.0000
  H   H864      1.0  0.83986  0.61202  0.50920  1.0000
