data_image0
_chemical_formula_structural       CSHCH2FeSCHC2SC5H3SFeS2FeS2Fe3S2CHCSFeCHSC2HNC2HCNH3C2H4C6SHC2HC3H6NCHCFe2HCHCH2CHCHC2H7CHFeHS2C2H2SH7SH3S2CH2C4H4CHSHCHNC2HSCS2FeHFeSH2C3HCHC2HFeHC2HC3HC2NH4CSFeS2FeS2Fe2S3HC2HCH2NC2SCHCH4C4H3C5HCH2C4H3CHFeSCHC2HSFeHCHCH2CH2C2HCH5NHCHC2H3C2H3C3HC2H2C5H2CH2NH3SCHSHC2HCH5CHCHC2H2CHS3HFeSHFeSFeS2HSCH2CSHCH2SCS2HFeSH3C2HSNC2H2C2H2FeSHC5H2C2HC3H4CH2C3H4SC2H3NCH2C6HCS2CH3CH6NC3FeCSFeCH2FeNCHCHC2H3CHCHC2FeC2H3SCHCHC3H3CH2CFeH4SHC2H3SHSH3C2H2FeS2FeS2FeSFeSHC3NH2C6H3C4H3CHC4SH4SH2C9H5CHC2H4CH2C2H4CH4C5SHC2H5CNC4HCFeHCH5CH2CH2CNCH2C3HCH2CHNCHCHC2HCHCHC2H2CH2C2H5CHCSHFeCHSFeSC3H2FeC7H2C2H2CHFeSHCHSH3CHCSHCH6SNHC5H2SH5C2FeCNH2NHCH2SHCH2SC3HC2H2C2SHC4SCHFeHFeCHCHSC2HSHC3H2C2FeH4C2H7SHSC3NSH2CH6CH2SNC2HCHCHCHCHC2SCHCH3CH3SC2H4CSH2SFeS2CHCHC2HC3H4C7H2CHCH3CHCHCHCH2CFeCH2C3HSHCHFeHC3NSHCHSCNH2C2NCHC2H3CHC2H2SH5C2HC4HFe2CHCH4C2HCHCFeHC2HC2HSNHNHC2H4SC2H2SH3CHC2H7SCH3CHCH3CNH2CHC2FeS2FeS2FeSFeS3FeC2FeH2FeSHSH2SFeSCHSHCSC7SCHCHFeHFeH2C8H4C6H4C3FeH3NH3FeC2HSC2HCSH4NH2C3H2CH2CH2SHC4HCSHC2H4SCH2CH2FeHC2HCH4CH2NFeH5SHCH2CFeH4SCHCH2NC2HC2HCSNH8SCSC3NC9H5SHSC2HC2H2FeC2H2C2H2S2H5CH2CHC4HC2H2C2H2SCHFeCHCSFeSFeS2Fe2S3C3H3C3H3FeC3HC4H4FeCH3FeS3HSFeSC3H3C2NHC6H4CHCH2NH2C2HNH3C2H3CHS2H2C5SCHCH2SCSHCHCFeCH2CH3FeNHSHC3HCH2CH3CSC2HCHCH2CHNC9H14FeSH2SC2SHSFeHCHCH2CSC2HCH2FeC2HC2H2CH3CH5CHSNC3HC2H2C2H3CH3SH2NHCH2CHC3H4SCH2SCHFeS2FeSFeS4FeSFeSCHSCHFeS2HFeSCSCH2CHCHC2HCHCHC6H3CHCSHC6H4C3HCHCH5CHCH5C2HCH2SHNC7HCH4CSCHCFeH2CNC9H14SH2SHCSHC2H3FeSH3CFeH4C3SCFeH2NFeHSC6H4NC2SHCFeCSHSHCNCHCFeH4C5H2CHCHC2H3C2H4CHCH3C2HNCH2CHC3H2SC2H6SC2H2CHC3SHSH3CFeC2H3C4NHCHC2H5CH3C2H2CFeH5SH2CH3CHC2HC5HCSFeHC2H4CNH4SH3CH2C2H3CHFeC2H
_chemical_formula_sum              "C720 S192 H864 Fe96 N48"
_cell_length_a       43.9998
_cell_length_b       44.3943
_cell_length_c       49.212
_cell_angle_alpha    90.3591
_cell_angle_beta     89.5148
_cell_angle_gamma    120.086

_space_group_name_H-M_alt    "P 1"
_space_group_IT_number       1

loop_
  _space_group_symop_operation_xyz
  'x, y, z'

loop_
  _atom_site_type_symbol
  _atom_site_label
  _atom_site_symmetry_multiplicity
  _atom_site_fract_x
  _atom_site_fract_y
  _atom_site_fract_z
  _atom_site_occupancy
  C   C1        1.0  0.30660  0.50591  0.04918  1.0000
  S   S1        1.0  0.42529  0.50341  0.14602  1.0000
  H   H1        1.0  0.50023  0.30608  0.22218  1.0000
  C   C2        1.0  0.41958  0.50210  0.20178  1.0000
  H   H2        1.0  0.41568  0.50123  0.24550  1.0000
  H   H3        1.0  0.03158  0.39818  0.31303  1.0000
  Fe  Fe1       1.0  0.39970  0.45323  0.29542  1.0000
  S   S2        1.0  0.36326  0.42990  0.25975  1.0000
  C   C3        1.0  0.23553  0.41298  0.01929  1.0000
  H   H4        1.0  0.37522  0.51650  0.26681  1.0000
  C   C4        1.0  0.06502  0.44427  0.14872  1.0000
  C   C5        1.0  0.18530  0.45998  0.10211  1.0000
  S   S3        1.0  0.51574  0.46522  0.32485  1.0000
  C   C6        1.0  0.30341  0.48323  0.14935  1.0000
  C   C7        1.0  0.05970  0.38781  0.15325  1.0000
  C   C8        1.0  0.18507  0.50542  0.07501  1.0000
  C   C9        1.0  0.30117  0.42714  0.13972  1.0000
  C   C10       1.0  0.30260  0.42143  0.02409  1.0000
  H   H5        1.0  0.32851  0.42491  0.02600  1.0000
  H   H6        1.0  0.12749  0.45890  0.30189  1.0000
  H   H7        1.0  0.31374  0.42738  0.15929  1.0000
  S   S4        1.0  0.18521  0.45826  0.15743  1.0000
  Fe  Fe2       1.0  0.41362  0.41006  0.07871  1.0000
  S   S5        1.0  0.45023  0.46790  0.07964  1.0000
  S   S6        1.0  0.42889  0.36877  0.08076  1.0000
  Fe  Fe3       1.0  0.34902  0.41766  0.07494  1.0000
  S   S7        1.0  0.38040  0.47585  0.07534  1.0000
  S   S8        1.0  0.29060  0.39405  0.07509  1.0000
  Fe  Fe4       1.0  0.41596  0.46881  0.04631  1.0000
  Fe  Fe5       1.0  0.41080  0.46877  0.10864  1.0000
  Fe  Fe6       1.0  0.17528  0.49010  0.00567  1.0000
  S   S9        1.0  0.38216  0.41081  0.04340  1.0000
  S   S10       1.0  0.37669  0.41074  0.11007  1.0000
  C   C11       1.0  0.50881  0.31527  0.20095  1.0000
  H   H8        1.0  0.08427  0.45470  0.30038  1.0000
  C   C12       1.0  0.18558  0.50870  0.12453  1.0000
  S   S11       1.0  0.14304  0.44519  0.22905  1.0000
  Fe  Fe7       1.0  0.18389  0.48488  0.25661  1.0000
  C   C13       1.0  0.27903  0.50539  0.06361  1.0000
  H   H9        1.0  0.44941  0.34431  0.29271  1.0000
  S   S12       1.0  0.16394  0.43495  0.00810  1.0000
  C   C14       1.0  0.46983  0.37897  0.06699  1.0000
  C   C15       1.0  0.47819  0.35257  0.06371  1.0000
  H   H10       1.0  0.27976  0.46611  0.27156  1.0000
  N   N1        1.0  0.08521  0.41000  0.31658  1.0000
  C   C16       1.0  0.46311  0.42636  0.99892  1.0000
  C   C17       1.0  0.49369  0.41276  0.05843  1.0000
  H   H11       1.0  0.45988  0.32642  0.07052  1.0000
  C   C18       1.0  0.34778  0.50565  0.27435  1.0000
  N   N2        1.0  0.28131  0.44602  0.14189  1.0000
  H   H12       1.0  0.48778  0.43339  0.06138  1.0000
  H   H13       1.0  0.18491  0.43544  0.10310  1.0000
  H   H14       1.0  0.10900  0.43571  0.14957  1.0000
  C   C19       1.0  0.27839  0.40645  0.04534  1.0000
  C   C20       1.0  0.24478  0.40210  0.04295  1.0000
  H   H15       1.0  0.25225  0.48511  0.05957  1.0000
  H   H16       1.0  0.48518  0.30240  0.18776  1.0000
  H   H17       1.0  0.22587  0.39024  0.05928  1.0000
  H   H18       1.0  0.28482  0.45628  0.09901  1.0000
  C   C21       1.0  0.26463  0.44323  0.11524  1.0000
  C   C22       1.0  0.28927  0.49369  0.26581  1.0000
  C   C23       1.0  0.25337  0.42768  0.16263  1.0000
  C   C24       1.0  0.09909  0.44053  0.29824  1.0000
  C   C25       1.0  0.18528  0.47413  0.07673  1.0000
  C   C26       1.0  0.32557  0.49298  0.22896  1.0000
  S   S13       1.0  0.06130  0.45793  0.24151  1.0000
  H   H19       1.0  0.23497  0.43786  0.16392  1.0000
  C   C27       1.0  0.38097  0.45067  0.22840  1.0000
  C   C28       1.0  0.40638  0.48607  0.22709  1.0000
  H   H20       1.0  0.45119  0.41813  0.01952  1.0000
  C   C29       1.0  0.40816  0.48272  0.17764  1.0000
  C   C30       1.0  0.38235  0.44755  0.17906  1.0000
  C   C31       1.0  0.36850  0.43171  0.20425  1.0000
  H   H21       1.0  0.20946  0.40919  0.01739  1.0000
  H   H22       1.0  0.51737  0.40153  0.11621  1.0000
  H   H23       1.0  0.37290  0.43236  0.16082  1.0000
  H   H24       1.0  0.34871  0.40438  0.20505  1.0000
  H   H25       1.0  0.10610  0.38649  0.28922  1.0000
  H   H26       1.0  0.26020  0.49411  0.15089  1.0000
  N   N3        1.0  0.32555  0.51087  0.25454  1.0000
  C   C32       1.0  0.50511  0.36335  0.29303  1.0000
  H   H27       1.0  0.08148  0.47229  0.14687  1.0000
  C   C33       1.0  0.28809  0.50447  0.15347  1.0000
  Fe  Fe8       1.0  0.11828  0.47863  0.23158  1.0000
  Fe  Fe9       1.0  0.46763  0.47103  0.32381  1.0000
  H   H28       1.0  0.49567  0.35652  0.23272  1.0000
  C   C34       1.0  0.52015  0.38034  0.15491  1.0000
  H   H29       1.0  0.18568  0.46079  0.05857  1.0000
  C   C35       1.0  0.04805  0.38606  0.30899  1.0000
  H   H30       1.0  0.24787  0.41556  0.10882  1.0000
  H   H31       1.0  0.07159  0.40517  0.21470  1.0000
  C   C36       1.0  0.47827  0.39787  0.30575  1.0000
  H   H32       1.0  0.24745  0.45492  0.11554  1.0000
  C   C37       1.0  0.47518  0.36643  0.29665  1.0000
  H   H33       1.0  0.26479  0.43000  0.18314  1.0000
  C   C38       1.0  0.51132  0.42636  0.31149  1.0000
  C   C39       1.0  0.08061  0.42372  0.15029  1.0000
  H   H34       1.0  0.28381  0.39925  0.13407  1.0000
  H   H35       1.0  0.47593  0.35162  0.20039  1.0000
  H   H36       1.0  0.50071  0.38586  0.16331  1.0000
  H   H37       1.0  0.31824  0.46535  0.23264  1.0000
  H   H38       1.0  0.30104  0.48593  0.03412  1.0000
  H   H39       1.0  0.23682  0.39943  0.15784  1.0000
  H   H40       1.0  0.33789  0.47747  0.27811  1.0000
  C   C40       1.0  0.52524  0.41988  0.04576  1.0000
  H   H41       1.0  0.32163  0.43821  0.12349  1.0000
  Fe  Fe10      1.0  0.17484  0.48090  0.19502  1.0000
  H   H42       1.0  0.52296  0.05586  0.23915  1.0000
  S   S14       1.0  0.49978  0.32279  0.28327  1.0000
  S   S15       1.0  0.38804  0.48489  0.32450  1.0000
  C   C41       1.0  0.18522  0.47706  0.12606  1.0000
  C   C42       1.0  0.04586  0.39283  0.22395  1.0000
  H   H43       1.0  0.35215  0.50599  0.21934  1.0000
  H   H44       1.0  0.35443  0.48576  0.14930  1.0000
  S   S16       1.0  0.20324  0.46877  0.29271  1.0000
  H   H45       1.0  0.51605  0.33918  0.04851  1.0000
  H   H46       1.0  0.51322  0.39308  0.21037  1.0000
  H   H47       1.0  0.06435  0.41804  0.08121  1.0000
  H   H48       1.0  0.26975  0.49281  0.25117  1.0000
  H   H49       1.0  0.09529  0.36740  0.32223  1.0000
  H   H50       1.0  0.49206  0.44048  0.00166  1.0000
  H   H51       1.0  0.09677  0.43265  0.27651  1.0000
  S   S17       1.0  0.45556  0.49401  0.28786  1.0000
  H   H52       1.0  0.03205  0.34156  0.20951  1.0000
  H   H53       1.0  0.45498  0.39982  0.30861  1.0000
  H   H54       1.0  0.45222  0.36174  0.01036  1.0000
  S   S18       1.0  0.14683  0.51147  0.19535  1.0000
  S   S19       1.0  0.43906  0.50222  0.00888  1.0000
  C   C43       1.0  0.34039  0.49957  0.15255  1.0000
  H   H55       1.0  0.07207  0.37205  0.15503  1.0000
  H   H56       1.0  0.30681  0.49260  0.21381  1.0000
  C   C44       1.0  0.03805  0.39757  0.07602  1.0000
  C   C45       1.0  0.10588  0.39248  0.31123  1.0000
  C   C46       1.0  0.50992  0.35974  0.05123  1.0000
  C   C47       1.0  0.50169  0.36431  0.21097  1.0000
  H   H57       1.0  0.04388  0.35739  0.09498  1.0000
  H   H58       1.0  0.28769  0.50741  0.28433  1.0000
  H   H59       1.0  0.13378  0.40940  0.31746  1.0000
  H   H60       1.0  0.04546  0.37926  0.28694  1.0000
  C   C48       1.0  0.03430  0.41281  0.23788  1.0000
  H   H61       1.0  0.40225  0.36634  0.00252  1.0000
  S   S20       1.0  0.15676  0.51565  0.26185  1.0000
  H   H62       1.0  0.52774  0.20960  0.32619  1.0000
  C   C49       1.0  0.20019  0.48819  0.32304  1.0000
  H   H63       1.0  0.03621  0.36097  0.32013  1.0000
  N   N4        1.0  0.52607  0.35371  0.19902  1.0000
  C   C50       1.0  0.29312  0.43151  0.00020  1.0000
  C   C51       1.0  0.25970  0.42769  0.99792  1.0000
  H   H64       1.0  0.52661  0.30546  0.19456  1.0000
  S   S21       1.0  0.37552  0.44555  0.39677  1.0000
  C   C52       1.0  0.09336  0.44026  0.63577  1.0000
  S   S22       1.0  0.13827  0.49611  0.47187  1.0000
  S   S23       1.0  0.16883  0.45124  0.43992  1.0000
  Fe  Fe11      1.0  0.12862  0.44152  0.47192  1.0000
  H   H65       1.0  0.19663  0.47803  0.55542  1.0000
  Fe  Fe12      1.0  0.20728  0.46654  0.47374  1.0000
  S   S24       1.0  0.25310  0.45809  0.46898  1.0000
  H   H66       1.0  0.39511  0.37536  0.50056  1.0000
  H   H67       1.0  0.47921  0.32036  0.64596  1.0000
  C   C53       1.0  0.29967  0.44812  0.37415  1.0000
  C   C54       1.0  0.26265  0.44408  0.49918  1.0000
  C   C55       1.0  0.24440  0.44179  0.52321  1.0000
  H   H68       1.0  0.22465  0.44928  0.52348  1.0000
  C   C56       1.0  0.45424  0.37666  0.48872  1.0000
  H   H69       1.0  0.44272  0.43266  0.38877  1.0000
  C   C57       1.0  0.47606  0.24918  0.39365  1.0000
  C   C58       1.0  0.44191  0.41798  0.43056  1.0000
  H   H70       1.0  0.24326  0.45438  0.37814  1.0000
  Fe  Fe13      1.0  0.18143  0.50666  0.44181  1.0000
  H   H71       1.0  0.51526  0.43457  0.46602  1.0000
  C   C59       1.0  0.44984  0.40751  0.64460  1.0000
  C   C60       1.0  0.45824  0.43244  0.40572  1.0000
  H   H72       1.0  0.19902  0.45167  0.59880  1.0000
  C   C61       1.0  0.39417  0.46378  0.42853  1.0000
  C   C62       1.0  0.52128  0.32095  0.38230  1.0000
  C   C63       1.0  0.42907  0.49056  0.43097  1.0000
  H   H73       1.0  0.26514  0.50825  0.36128  1.0000
  C   C64       1.0  0.38721  0.46419  0.47773  1.0000
  C   C65       1.0  0.37328  0.45084  0.45197  1.0000
  N   N5        1.0  0.05963  0.42382  0.56258  1.0000
  H   H74       1.0  0.49404  0.30725  0.34327  1.0000
  H   H75       1.0  0.37072  0.45427  0.49559  1.0000
  H   H76       1.0  0.34621  0.43020  0.45022  1.0000
  H   H77       1.0  0.44603  0.42274  0.52053  1.0000
  C   C66       1.0  0.19431  0.48622  0.37216  1.0000
  S   S25       1.0  0.16548  0.44975  0.50592  1.0000
  Fe  Fe14      1.0  0.40528  0.40820  0.57639  1.0000
  S   S26       1.0  0.44541  0.46488  0.58072  1.0000
  S   S27       1.0  0.41807  0.36498  0.57587  1.0000
  Fe  Fe15      1.0  0.34496  0.42296  0.57514  1.0000
  S   S28       1.0  0.38069  0.48045  0.57904  1.0000
  S   S29       1.0  0.28804  0.40658  0.57689  1.0000
  Fe  Fe16      1.0  0.41403  0.47252  0.54842  1.0000
  Fe  Fe17      1.0  0.40741  0.46605  0.61075  1.0000
  S   S30       1.0  0.42365  0.49526  0.65059  1.0000
  S   S31       1.0  0.37632  0.41566  0.54220  1.0000
  S   S32       1.0  0.36934  0.40887  0.60857  1.0000
  H   H78       1.0  0.30586  0.46189  0.42853  1.0000
  C   C67       1.0  0.50197  0.35975  0.54806  1.0000
  C   C68       1.0  0.47435  0.26274  0.36864  1.0000
  H   H79       1.0  0.28373  0.44043  0.35527  1.0000
  C   C69       1.0  0.19052  0.48690  0.62377  1.0000
  H   H80       1.0  0.34535  0.48974  0.41116  1.0000
  H   H81       1.0  0.45606  0.24577  0.35334  1.0000
  N   N6        1.0  0.29009  0.46090  0.64911  1.0000
  C   C70       1.0  0.46030  0.37665  0.56423  1.0000
  C   C71       1.0  0.46876  0.35073  0.55865  1.0000
  S   S33       1.0  0.44020  0.50781  0.51239  1.0000
  C   C72       1.0  0.51453  0.44750  0.42454  1.0000
  H   H82       1.0  0.28997  0.42459  0.38721  1.0000
  C   C73       1.0  0.48533  0.41150  0.55975  1.0000
  H   H83       1.0  0.44939  0.32364  0.56198  1.0000
  H   H84       1.0  0.50620  0.36305  0.35222  1.0000
  H   H85       1.0  0.09262  0.44374  0.52675  1.0000
  H   H86       1.0  0.47938  0.43167  0.56420  1.0000
  C   C74       1.0  0.28884  0.43506  0.49917  1.0000
  C   C75       1.0  0.29646  0.42333  0.52307  1.0000
  C   C76       1.0  0.27765  0.42021  0.54693  1.0000
  C   C77       1.0  0.25159  0.42945  0.54704  1.0000
  H   H87       1.0  0.30288  0.43664  0.48061  1.0000
  H   H88       1.0  0.31620  0.41576  0.52282  1.0000
  H   H89       1.0  0.23711  0.42725  0.56550  1.0000
  C   C78       1.0  0.19291  0.48829  0.57425  1.0000
  C   C79       1.0  0.31808  0.48440  0.41426  1.0000
  C   C80       1.0  0.31356  0.50790  0.37080  1.0000
  C   C81       1.0  0.10218  0.45424  0.35511  1.0000
  C   C82       1.0  0.07519  0.39291  0.36594  1.0000
  H   H90       1.0  0.11841  0.45441  0.59743  1.0000
  C   C83       1.0  0.06101  0.42419  0.59267  1.0000
  H   H91       1.0  0.46804  0.46053  0.65618  1.0000
  H   H92       1.0  0.06429  0.45210  0.47272  1.0000
  C   C84       1.0  0.43891  0.37392  0.65361  1.0000
  C   C85       1.0  0.07756  0.40102  0.39364  1.0000
  C   C86       1.0  0.06199  0.42331  0.65039  1.0000
  C   C87       1.0  0.49947  0.32849  0.66114  1.0000
  H   H93       1.0  0.19245  0.47316  0.39077  1.0000
  H   H94       1.0  0.09375  0.44165  0.42354  1.0000
  H   H95       1.0  0.26721  0.50702  0.66087  1.0000
  C   C88       1.0  0.49970  0.27097  0.41321  1.0000
  H   H96       1.0  0.19475  0.44596  0.34772  1.0000
  Fe  Fe18      1.0  0.40676  0.46381  0.35753  1.0000
  S   S34       1.0  0.07570  0.39280  0.47031  1.0000
  C   C89       1.0  0.09465  0.44437  0.54935  1.0000
  H   H97       1.0  0.11810  0.45277  0.64658  1.0000
  C   C90       1.0  0.31174  0.49867  0.65487  1.0000
  C   C91       1.0  0.49443  0.44715  0.40269  1.0000
  H   H98       1.0  0.05900  0.37512  0.55992  1.0000
  S   S35       1.0  0.19185  0.46704  0.65433  1.0000
  Fe  Fe19      1.0  0.17779  0.50511  0.50433  1.0000
  H   H99       1.0  0.03770  0.44047  0.53090  1.0000
  C   C92       1.0  0.52675  0.39470  0.54327  1.0000
  H   H100      1.0  0.50135  0.26033  0.43259  1.0000
  C   C93       1.0  0.03774  0.39611  0.47371  1.0000
  H   H101      1.0  0.06869  0.38061  0.40883  1.0000
  H   H102      1.0  0.25052  0.44151  0.41037  1.0000
  C   C94       1.0  0.26081  0.46397  0.39607  1.0000
  H   H103      1.0  0.41386  0.40766  0.43144  1.0000
  H   H104      1.0  0.50813  0.33964  0.54326  1.0000
  C   C95       1.0  0.08745  0.41928  0.34576  1.0000
  C   C96       1.0  0.10411  0.46198  0.38286  1.0000
  H   H105      1.0  0.32565  0.49507  0.54315  1.0000
  C   C97       1.0  0.09309  0.44087  0.60735  1.0000
  H   H106      1.0  0.32692  0.45562  0.36804  1.0000
  H   H107      1.0  0.45918  0.22170  0.39784  1.0000
  H   H108      1.0  0.48792  0.44309  0.50399  1.0000
  H   H109      1.0  0.48274  0.38779  0.49269  1.0000
  H   H110      1.0  0.50693  0.45868  0.38343  1.0000
  N   N7        1.0  0.44544  0.40338  0.48009  1.0000
  H   H111      1.0  0.51885  0.17600  0.36851  1.0000
  C   C98       1.0  0.52444  0.38617  0.62079  1.0000
  H   H112      1.0  0.25279  0.42750  0.61902  1.0000
  C   C99       1.0  0.46162  0.41777  0.45328  1.0000
  C   C100      1.0  0.09178  0.43546  0.40205  1.0000
  H   H113      1.0  0.32880  0.45412  0.62688  1.0000
  H   H114      1.0  0.11301  0.47624  0.34148  1.0000
  H   H115      1.0  0.45537  0.45354  0.49384  1.0000
  C   C101      1.0  0.51835  0.42051  0.54911  1.0000
  C   C102      1.0  0.52397  0.37498  0.36987  1.0000
  H   H116      1.0  0.06414  0.36582  0.36043  1.0000
  H   H117      1.0  0.25765  0.48453  0.40661  1.0000
  H   H118      1.0  0.11219  0.43381  0.55420  1.0000
  C   C103      1.0  0.19619  0.47101  0.34762  1.0000
  C   C104      1.0  0.44302  0.50393  0.45678  1.0000
  C   C105      1.0  0.52701  0.16868  0.35003  1.0000
  H   H119      1.0  0.10790  0.47229  0.55551  1.0000
  C   C106      1.0  0.31104  0.44339  0.64482  1.0000
  C   C107      1.0  0.45932  0.43186  0.50047  1.0000
  H   H120      1.0  0.11606  0.48887  0.38958  1.0000
  H   H121      1.0  0.42990  0.35289  0.63889  1.0000
  C   C108      1.0  0.18630  0.51598  0.57410  1.0000
  C   C109      1.0  0.40652  0.38672  0.48031  1.0000
  C   C110      1.0  0.26930  0.45565  0.62419  1.0000
  C   C111      1.0  0.03762  0.43845  0.55342  1.0000
  C   C112      1.0  0.19485  0.47371  0.59897  1.0000
  H   H122      1.0  0.39431  0.36507  0.46529  1.0000
  H   H123      1.0  0.28674  0.46858  0.60637  1.0000
  C   C113      1.0  0.49639  0.29808  0.36304  1.0000
  H   H124      1.0  0.29400  0.41505  0.64054  1.0000
  H   H125      1.0  0.39797  0.40591  0.47593  1.0000
  N   N8        1.0  0.29809  0.47674  0.38852  1.0000
  H   H126      1.0  0.44948  0.41247  0.62309  1.0000
  H   H127      1.0  0.44641  0.35597  0.47301  1.0000
  H   H128      1.0  0.44062  0.36383  0.50804  1.0000
  S   S36       1.0  0.52684  0.11662  0.37985  1.0000
  C   C114      1.0  0.42220  0.49058  0.48025  1.0000
  H   H129      1.0  0.44547  0.50067  0.41308  1.0000
  S   S37       1.0  0.46271  0.50668  0.35413  1.0000
  H   H130      1.0  0.38151  0.42079  0.66146  1.0000
  C   C115      1.0  0.03012  0.40673  0.63670  1.0000
  C   C116      1.0  0.04389  0.38744  0.55264  1.0000
  H   H131      1.0  0.49588  0.36750  0.61852  1.0000
  C   C117      1.0  0.02951  0.40696  0.60826  1.0000
  H   H132      1.0  0.50727  0.37296  0.38766  1.0000
  H   H133      1.0  0.31904  0.50702  0.42492  1.0000
  H   H134      1.0  0.50782  0.32199  0.60560  1.0000
  H   H135      1.0  0.33570  0.50568  0.47717  1.0000
  H   H136      1.0  0.04363  0.38613  0.53001  1.0000
  C   C118      1.0  0.52208  0.30633  0.40775  1.0000
  H   H137      1.0  0.25107  0.46598  0.62639  1.0000
  C   C119      1.0  0.49849  0.43311  0.44950  1.0000
  H   H138      1.0  0.36387  0.50376  0.65057  1.0000
  C   C120      1.0  0.03938  0.42838  0.47464  1.0000
  C   C121      1.0  0.18514  0.51541  0.62365  1.0000
  H   H139      1.0  0.52765  0.40534  0.63681  1.0000
  H   H140      1.0  0.04733  0.46501  0.56191  1.0000
  C   C122      1.0  0.34908  0.51665  0.65480  1.0000
  H   H141      1.0  0.28596  0.51559  0.55763  1.0000
  S   S38       1.0  0.41222  0.42694  0.32905  1.0000
  S   S39       1.0  0.07131  0.37570  0.97373  1.0000
  S   S40       1.0  0.38452  0.46741  0.82469  1.0000
  H   H142      1.0  0.50451  0.44606  0.88038  1.0000
  Fe  Fe20      1.0  0.46964  0.46219  0.82177  1.0000
  S   S41       1.0  0.41645  0.41510  0.82746  1.0000
  H   H143      1.0  0.48596  0.43756  0.74461  1.0000
  Fe  Fe21      1.0  0.39956  0.43880  0.79509  1.0000
  S   S42       1.0  0.36637  0.40875  0.75957  1.0000
  Fe  Fe22      1.0  0.40744  0.44903  0.85670  1.0000
  S   S43       1.0  0.37792  0.42691  0.89604  1.0000
  S   S44       1.0  0.45346  0.48332  0.78705  1.0000
  H   H144      1.0  0.35153  0.47266  0.88386  1.0000
  S   S45       1.0  0.13281  0.47865  0.97518  1.0000
  C   C123      1.0  0.43860  0.36727  0.68141  1.0000
  H   H145      1.0  0.10960  0.44670  0.85494  1.0000
  H   H146      1.0  0.34202  0.50782  0.98227  1.0000
  C   C124      1.0  0.18019  0.45259  0.84659  1.0000
  S   S46       1.0  0.49926  0.31036  0.79220  1.0000
  H   H147      1.0  0.52419  0.31772  0.86218  1.0000
  C   C125      1.0  0.05071  0.41794  0.80408  1.0000
  H   H148      1.0  0.39210  0.36834  0.73249  1.0000
  H   H149      1.0  0.44323  0.49031  0.91001  1.0000
  S   S47       1.0  0.46195  0.49491  0.85320  1.0000
  C   C126      1.0  0.03684  0.41149  0.98642  1.0000
  S   S48       1.0  0.16210  0.43348  0.94173  1.0000
  S   S49       1.0  0.14507  0.51094  0.69336  1.0000
  H   H150      1.0  0.51665  0.36918  0.87082  1.0000
  Fe  Fe23      1.0  0.20298  0.45041  0.97392  1.0000
  S   S50       1.0  0.24925  0.44256  0.96859  1.0000
  H   H151      1.0  0.22182  0.42083  0.81622  1.0000
  H   H152      1.0  0.45673  0.35110  0.97580  1.0000
  H   H153      1.0  0.17880  0.42758  0.84593  1.0000
  C   C127      1.0  0.45993  0.42819  0.69115  1.0000
  C   C128      1.0  0.02909  0.41767  0.90494  1.0000
  H   H154      1.0  0.46748  0.45024  0.70444  1.0000
  S   S51       1.0  0.21696  0.50630  0.97342  1.0000
  N   N9        1.0  0.45091  0.39626  0.98019  1.0000
  C   C129      1.0  0.41097  0.35973  0.73824  1.0000
  C   C130      1.0  0.41232  0.48846  0.70567  1.0000
  H   H155      1.0  0.18107  0.45507  0.89011  1.0000
  H   H156      1.0  0.37343  0.44087  0.99419  1.0000
  C   C131      1.0  0.44111  0.49586  0.95345  1.0000
  C   C132      1.0  0.05286  0.41241  0.86148  1.0000
  H   H157      1.0  0.32701  0.44576  0.66301  1.0000
  H   H158      1.0  0.04299  0.36685  0.91942  1.0000
  Fe  Fe24      1.0  0.17154  0.47909  0.69295  1.0000
  S   S52       1.0  0.05154  0.45899  0.71950  1.0000
  H   H159      1.0  0.33826  0.50280  0.87304  1.0000
  C   C133      1.0  0.18059  0.46912  0.82236  1.0000
  C   C134      1.0  0.47095  0.37214  0.73616  1.0000
  C   C135      1.0  0.38012  0.43316  0.72937  1.0000
  C   C136      1.0  0.37289  0.41583  0.70439  1.0000
  C   C137      1.0  0.39950  0.46959  0.72996  1.0000
  H   H160      1.0  0.35783  0.38769  0.70372  1.0000
  H   H161      1.0  0.40426  0.48328  0.74908  1.0000
  C   C138      1.0  0.39504  0.44914  0.92692  1.0000
  C   C139      1.0  0.42782  0.47958  0.92825  1.0000
  H   H162      1.0  0.52006  0.43190  0.96401  1.0000
  C   C140      1.0  0.42172  0.48175  0.97742  1.0000
  C   C141      1.0  0.38878  0.45165  0.97597  1.0000
  C   C142      1.0  0.37547  0.43543  0.95083  1.0000
  H   H163      1.0  0.06242  0.42284  0.67241  1.0000
  H   H164      1.0  0.30914  0.41799  0.90710  1.0000
  H   H165      1.0  0.41488  0.39240  0.93174  1.0000
  H   H166      1.0  0.34999  0.41197  0.95000  1.0000
  C   C143      1.0  0.49367  0.43560  0.90031  1.0000
  H   H167      1.0  0.10771  0.42226  0.89577  1.0000
  H   H168      1.0  0.40212  0.33409  0.72843  1.0000
  C   C144      1.0  0.40594  0.47104  0.68070  1.0000
  C   C145      1.0  0.47914  0.35475  0.81300  1.0000
  C   C146      1.0  0.48310  0.38758  0.81844  1.0000
  H   H169      1.0  0.40084  0.35317  0.96789  1.0000
  H   H170      1.0  0.25198  0.39251  0.79459  1.0000
  H   H171      1.0  0.45593  0.33150  0.82012  1.0000
  H   H172      1.0  0.46334  0.38948  0.83021  1.0000
  S   S53       1.0  0.13117  0.43718  0.72013  1.0000
  C   C147      1.0  0.18097  0.49945  0.87300  1.0000
  C   C148      1.0  0.44888  0.39417  0.70109  1.0000
  H   H173      1.0  0.05228  0.39467  0.72953  1.0000
  H   H174      1.0  0.28821  0.48676  0.92226  1.0000
  H   H175      1.0  0.45652  0.41010  0.77028  1.0000
  N   N10       1.0  0.29698  0.45648  0.89185  1.0000
  C   C149      1.0  0.29377  0.43082  0.91251  1.0000
  H   H176      1.0  0.40816  0.35504  0.76059  1.0000
  H   H177      1.0  0.28016  0.44812  0.69158  1.0000
  C   C150      1.0  0.28387  0.43876  0.86536  1.0000
  C   C151      1.0  0.25530  0.43809  0.85150  1.0000
  C   C152      1.0  0.30000  0.42157  0.85249  1.0000
  C   C153      1.0  0.24387  0.42129  0.82638  1.0000
  C   C154      1.0  0.28880  0.40540  0.82717  1.0000
  C   C155      1.0  0.26074  0.40523  0.81415  1.0000
  H   H178      1.0  0.26588  0.40999  0.91533  1.0000
  C   C156      1.0  0.45745  0.41809  0.90440  1.0000
  S   S54       1.0  0.20805  0.50819  0.72727  1.0000
  S   S55       1.0  0.51899  0.45914  0.81666  1.0000
  C   C157      1.0  0.51307  0.41772  0.80944  1.0000
  H   H179      1.0  0.27947  0.49395  0.88821  1.0000
  H   H180      1.0  0.24939  0.45436  0.90624  1.0000
  H   H181      1.0  0.40039  0.39277  0.97629  1.0000
  C   C158      1.0  0.04150  0.37109  0.89733  1.0000
  H   H182      1.0  0.24126  0.45026  0.85966  1.0000
  H   H183      1.0  0.32160  0.42060  0.86190  1.0000
  H   H184      1.0  0.05824  0.36250  0.88657  1.0000
  H   H185      1.0  0.08774  0.42630  0.92608  1.0000
  H   H186      1.0  0.10681  0.45017  0.80617  1.0000
  H   H187      1.0  0.25004  0.41445  0.66900  1.0000
  N   N11       1.0  0.05328  0.40804  0.89129  1.0000
  C   C159      1.0  0.18089  0.46792  0.87177  1.0000
  C   C160      1.0  0.18185  0.50123  0.82347  1.0000
  C   C161      1.0  0.27762  0.47364  0.90238  1.0000
  Fe  Fe25      1.0  0.17346  0.48847  0.94310  1.0000
  C   C162      1.0  0.46499  0.40905  0.95256  1.0000
  S   S56       1.0  0.17950  0.44902  0.79113  1.0000
  Fe  Fe26      1.0  0.10760  0.47173  0.72319  1.0000
  C   C163      1.0  0.38604  0.43469  0.68023  1.0000
  H   H188      1.0  0.18289  0.51458  0.80496  1.0000
  H   H189      1.0  0.49863  0.39108  0.73042  1.0000
  Fe  Fe27      1.0  0.16548  0.46991  0.75465  1.0000
  N   N12       1.0  0.44740  0.38620  0.73044  1.0000
  C   C164      1.0  0.18179  0.51622  0.84871  1.0000
  H   H190      1.0  0.45589  0.44547  0.99129  1.0000
  C   C165      1.0  0.48959  0.31318  0.68687  1.0000
  H   H191      1.0  0.44021  0.41508  0.88769  1.0000
  C   C166      1.0  0.46371  0.37308  0.99012  1.0000
  C   C167      1.0  0.51583  0.44019  0.92195  1.0000
  H   H192      1.0  0.46309  0.34739  0.72522  1.0000
  H   H193      1.0  0.30198  0.39292  0.81760  1.0000
  H   H194      1.0  0.42959  0.34074  0.68745  1.0000
  C   C168      1.0  0.51466  0.32215  0.70712  1.0000
  H   H195      1.0  0.30351  0.44324  0.93271  1.0000
  C   C169      1.0  0.44314  0.40502  0.93007  1.0000
  H   H196      1.0  0.09922  0.45796  0.89981  1.0000
  C   C170      1.0  0.45822  0.41696  0.74836  1.0000
  C   C171      1.0  0.08392  0.43265  0.84589  1.0000
  Fe  Fe28      1.0  0.12429  0.42444  0.97570  1.0000
  C   C172      1.0  0.50182  0.42717  0.94772  1.0000
  C   C173      1.0  0.08269  0.43510  0.81763  1.0000
  H   H197      1.0  0.34504  0.49827  0.90855  1.0000
  H   H198      1.0  0.26336  0.48128  0.79432  1.0000
  H   H199      1.0  0.31185  0.44261  0.98370  1.0000
  S   S57       1.0  0.13856  0.50104  0.75975  1.0000
  C   C174      1.0  0.33451  0.48373  0.88917  1.0000
  H   H200      1.0  0.24599  0.45177  0.67483  1.0000
  C   C175      1.0  0.50527  0.35188  0.79875  1.0000
  H   H201      1.0  0.46248  0.29373  0.69102  1.0000
  C   C176      1.0  0.41190  0.37626  0.98159  1.0000
  C   C177      1.0  0.03421  0.38059  0.97675  1.0000
  C   C178      1.0  0.08855  0.42967  0.90360  1.0000
  H   H202      1.0  0.44078  0.42818  0.74570  1.0000
  H   H203      1.0  0.47063  0.36625  0.75811  1.0000
  H   H204      1.0  0.04992  0.42001  0.78215  1.0000
  C   C179      1.0  0.26561  0.44316  0.67213  1.0000
  H   H205      1.0  0.49265  0.38694  0.99293  1.0000
  H   H206      1.0  0.03032  0.41648  0.92748  1.0000
  C   C180      1.0  0.28443  0.50813  0.79560  1.0000
  Fe  Fe29      1.0  0.43966  0.51075  0.81875  1.0000
  H   H207      1.0  0.03584  0.44465  0.89954  1.0000
  H   H208      1.0  0.50706  0.31001  0.72701  1.0000
  H   H209      1.0  0.32478  0.49481  0.80120  1.0000
  H   H210      1.0  0.52279  0.16906  0.86216  1.0000
  S   S58       1.0  0.52672  0.10778  0.87324  1.0000
  H   H211      1.0  0.06183  0.43255  0.99317  1.0000
  C   C181      1.0  0.46044  0.43457  0.66328  1.0000
  C   C182      1.0  0.31893  0.51573  0.79936  1.0000
  H   H212      1.0  0.42720  0.51658  0.70629  1.0000
  H   H213      1.0  0.32407  0.57580  0.10383  1.0000
  H   H214      1.0  0.40951  0.55445  0.07105  1.0000
  S   S59       1.0  0.21955  0.60290  0.22685  1.0000
  H   H215      1.0  0.34833  0.51762  0.29438  1.0000
  S   S60       1.0  0.45006  0.57577  0.30621  1.0000
  H   H216      1.0  0.47850  0.80813  0.19873  1.0000
  H   H217      1.0  0.51160  0.82930  0.14313  1.0000
  H   H218      1.0  0.26435  0.52972  0.09481  1.0000
  C   C183      1.0  0.48189  0.85576  0.14482  1.0000
  C   C184      1.0  0.29111  0.62558  0.28385  1.0000
  H   H219      1.0  0.38540  0.57162  0.27412  1.0000
  H   H220      1.0  0.41794  0.63499  0.09907  1.0000
  Fe  Fe30      1.0  0.45669  0.71696  0.12418  1.0000
  S   S61       1.0  0.41515  0.73085  0.11670  1.0000
  S   S62       1.0  0.48140  0.70527  0.08829  1.0000
  Fe  Fe31      1.0  0.44497  0.71317  0.18603  1.0000
  S   S63       1.0  0.40143  0.72508  0.18246  1.0000
  S   S64       1.0  0.46233  0.70161  0.22591  1.0000
  Fe  Fe32      1.0  0.38397  0.68859  0.14663  1.0000
  S   S65       1.0  0.33234  0.64263  0.13419  1.0000
  Fe  Fe33      1.0  0.43765  0.76613  0.15282  1.0000
  S   S66       1.0  0.42460  0.67325  0.15278  1.0000
  H   H221      1.0  0.52345  0.98547  0.00123  1.0000
  C   C185      1.0  0.47911  0.81254  0.22046  1.0000
  C   C186      1.0  0.34458  0.55460  0.16412  1.0000
  C   C187      1.0  0.26665  0.61210  0.01679  1.0000
  N   N13       1.0  0.38616  0.58690  0.07715  1.0000
  H   H222      1.0  0.49991  0.56159  0.16160  1.0000
  H   H223      1.0  0.25361  0.57692  0.06467  1.0000
  C   C188      1.0  0.44453  0.70680  0.25668  1.0000
  C   C189      1.0  0.41608  0.71261  0.25711  1.0000
  C   C190      1.0  0.40197  0.71573  0.28200  1.0000
  C   C191      1.0  0.41650  0.71352  0.30661  1.0000
  C   C192      1.0  0.44500  0.70783  0.30620  1.0000
  C   C193      1.0  0.45880  0.70422  0.28134  1.0000
  H   H224      1.0  0.40475  0.71456  0.23835  1.0000
  H   H225      1.0  0.37987  0.72008  0.28212  1.0000
  H   H226      1.0  0.24460  0.58650  0.02102  1.0000
  C   C194      1.0  0.49513  0.81219  0.32336  1.0000
  C   C195      1.0  0.46047  0.70282  0.05723  1.0000
  C   C196      1.0  0.47923  0.70995  0.03271  1.0000
  C   C197      1.0  0.42482  0.69268  0.05663  1.0000
  H   H227      1.0  0.48705  0.59554  0.12896  1.0000
  H   H228      1.0  0.40974  0.68599  0.07520  1.0000
  H   H229      1.0  0.36020  0.58183  0.16983  1.0000
  C   C198      1.0  0.48656  0.63045  0.15935  1.0000
  H   H230      1.0  0.25803  0.59516  0.09766  1.0000
  C   C199      1.0  0.40833  0.69065  0.03185  1.0000
  C   C200      1.0  0.26035  0.62372  0.32543  1.0000
  C   C201      1.0  0.49022  0.60263  0.15029  1.0000
  C   C202      1.0  0.46847  0.84015  0.25903  1.0000
  S   S67       1.0  0.48241  0.75592  0.15810  1.0000
  H   H231      1.0  0.47861  0.78338  0.32141  1.0000
  H   H232      1.0  0.32208  0.69285  0.04347  1.0000
  H   H233      1.0  0.50676  0.71756  0.03295  1.0000
  H   H234      1.0  0.48074  0.69962  0.28126  1.0000
  S   S68       1.0  0.18503  0.52364  0.04323  1.0000
  H   H235      1.0  0.22510  0.64174  0.05488  1.0000
  H   H236      1.0  0.48844  0.92340  0.22501  1.0000
  C   C203      1.0  0.32087  0.63328  0.29885  1.0000
  C   C204      1.0  0.50513  0.93961  0.24127  1.0000
  C   C205      1.0  0.36899  0.57586  0.26023  1.0000
  C   C206      1.0  0.24984  0.61513  0.20022  1.0000
  C   C207      1.0  0.28009  0.64796  0.20020  1.0000
  C   C208      1.0  0.30534  0.65675  0.17963  1.0000
  C   C209      1.0  0.30020  0.63279  0.15909  1.0000
  C   C210      1.0  0.26950  0.60029  0.15875  1.0000
  C   C211      1.0  0.24447  0.59137  0.17943  1.0000
  H   H237      1.0  0.28414  0.66645  0.21619  1.0000
  H   H238      1.0  0.32848  0.68221  0.17956  1.0000
  H   H239      1.0  0.26526  0.58168  0.14286  1.0000
  H   H240      1.0  0.22090  0.56614  0.17921  1.0000
  H   H241      1.0  0.46809  0.63115  0.26744  1.0000
  C   C212      1.0  0.32995  0.59192  0.22463  1.0000
  H   H242      1.0  0.45592  0.63648  0.23408  1.0000
  C   C213      1.0  0.36080  0.61853  0.23580  1.0000
  C   C214      1.0  0.42737  0.69914  0.00742  1.0000
  H   H243      1.0  0.31475  0.59830  0.21093  1.0000
  H   H244      1.0  0.34467  0.63801  0.28849  1.0000
  H   H245      1.0  0.36974  0.64545  0.23062  1.0000
  H   H246      1.0  0.50746  0.57638  0.20942  1.0000
  C   C215      1.0  0.49060  0.79581  0.23789  1.0000
  H   H247      1.0  0.29607  0.55513  0.16393  1.0000
  H   H248      1.0  0.35599  0.58833  0.32164  1.0000
  C   C216      1.0  0.50286  0.86816  0.31247  1.0000
  C   C217      1.0  0.40764  0.57180  0.08654  1.0000
  H   H249      1.0  0.43892  0.52943  0.20095  1.0000
  H   H250      1.0  0.29139  0.62379  0.26184  1.0000
  H   H251      1.0  0.45974  0.88941  0.14446  1.0000
  H   H252      1.0  0.40208  0.58772  0.03517  1.0000
  C   C218      1.0  0.34930  0.55878  0.07334  1.0000
  H   H253      1.0  0.51422  0.95613  0.18642  1.0000
  H   H254      1.0  0.45928  0.85723  0.26625  1.0000
  H   H255      1.0  0.18544  0.54713  0.09796  1.0000
  H   H256      1.0  0.31236  0.66889  0.08629  1.0000
  C   C219      1.0  0.28599  0.53062  0.08336  1.0000
  C   C220      1.0  0.44452  0.81810  0.31688  1.0000
  C   C221      1.0  0.32058  0.55703  0.08829  1.0000
  C   C222      1.0  0.46283  0.70847  0.00791  1.0000
  C   C223      1.0  0.30843  0.53954  0.16079  1.0000
  S   S69       1.0  0.44209  0.81909  0.15505  1.0000
  H   H257      1.0  0.51554  0.94211  0.13163  1.0000
  C   C224      1.0  0.46788  0.83452  0.23097  1.0000
  C   C225      1.0  0.39007  0.61365  0.09730  1.0000
  H   H258      1.0  0.20602  0.53453  0.30429  1.0000
  H   H259      1.0  0.40389  0.63148  0.26258  1.0000
  H   H260      1.0  0.38084  0.68287  0.03173  1.0000
  H   H261      1.0  0.46092  0.92324  0.26851  1.0000
  H   H262      1.0  0.45818  0.84672  0.21714  1.0000
  C   C226      1.0  0.48331  0.88781  0.14157  1.0000
  N   N14       1.0  0.26594  0.63070  0.06514  1.0000
  C   C227      1.0  0.22837  0.62085  0.06436  1.0000
  C   C228      1.0  0.26867  0.60133  0.07658  1.0000
  C   C229      1.0  0.28401  0.66057  0.08422  1.0000
  C   C230      1.0  0.28082  0.63827  0.03724  1.0000
  H   H263      1.0  0.37478  0.62636  0.09140  1.0000
  C   C231      1.0  0.38008  0.61054  0.25373  1.0000
  Fe  Fe34      1.0  0.18813  0.54498  0.22563  1.0000
  H   H264      1.0  0.29655  0.60773  0.07722  1.0000
  C   C232      1.0  0.26090  0.62064  0.29713  1.0000
  H   H265      1.0  0.21219  0.59659  0.05252  1.0000
  H   H266      1.0  0.21650  0.61589  0.08509  1.0000
  H   H267      1.0  0.51786  0.68461  0.23014  1.0000
  H   H268      1.0  0.38469  0.61580  0.04269  1.0000
  H   H269      1.0  0.44710  0.59438  0.24486  1.0000
  C   C233      1.0  0.51237  0.85384  0.14079  1.0000
  H   H270      1.0  0.45631  0.70597  0.32501  1.0000
  H   H271      1.0  0.27272  0.65375  0.10515  1.0000
  C   C234      1.0  0.51315  0.61042  0.25272  1.0000
  H   H272      1.0  0.49369  0.58199  0.25292  1.0000
  H   H273      1.0  0.49680  0.96028  0.30664  1.0000
  C   C235      1.0  0.51496  0.91774  0.13430  1.0000
  N   N15       1.0  0.50135  0.63002  0.23553  1.0000
  C   C236      1.0  0.34123  0.53196  0.05402  1.0000
  H   H274      1.0  0.18583  0.52225  0.14291  1.0000
  H   H275      1.0  0.23784  0.61479  0.28527  1.0000
  C   C237      1.0  0.48024  0.82365  0.27743  1.0000
  C   C238      1.0  0.50927  0.96013  0.28755  1.0000
  C   C239      1.0  0.50196  0.59248  0.19634  1.0000
  H   H276      1.0  0.28170  0.68328  0.07766  1.0000
  C   C240      1.0  0.48915  0.93922  0.26608  1.0000
  H   H277      1.0  0.43514  0.59240  0.09106  1.0000
  H   H278      1.0  0.48095  0.64541  0.14492  1.0000
  C   C241      1.0  0.30940  0.67125  0.02948  1.0000
  H   H279      1.0  0.38151  0.60245  0.11796  1.0000
  N   N16       1.0  0.48080  0.83025  0.30703  1.0000
  C   C242      1.0  0.49021  0.63919  0.18696  1.0000
  H   H280      1.0  0.42816  0.62728  0.05326  1.0000
  C   C243      1.0  0.40082  0.60506  0.05094  1.0000
  H   H281      1.0  0.52213  0.90822  0.19877  1.0000
  C   C244      1.0  0.49829  0.62063  0.20632  1.0000
  C   C245      1.0  0.31865  0.55718  0.23092  1.0000
  H   H282      1.0  0.49954  0.78648  0.27823  1.0000
  C   C246      1.0  0.49781  0.58370  0.16873  1.0000
  H   H283      1.0  0.48644  0.66057  0.19302  1.0000
  C   C247      1.0  0.49102  0.80095  0.26599  1.0000
  H   H284      1.0  0.39633  0.55608  0.10532  1.0000
  C   C248      1.0  0.20194  0.52054  0.32308  1.0000
  C   C249      1.0  0.33783  0.54799  0.24883  1.0000
  H   H285      1.0  0.51600  0.61876  0.27443  1.0000
  H   H286      1.0  0.38874  0.54621  0.16246  1.0000
  C   C250      1.0  0.36053  0.53463  0.15999  1.0000
  H   H287      1.0  0.49874  0.77825  0.22954  1.0000
  H   H288      1.0  0.44489  0.63584  0.31970  1.0000
  C   C251      1.0  0.46661  0.62272  0.24589  1.0000
  C   C252      1.0  0.18556  0.52287  0.09903  1.0000
  H   H289      1.0  0.34511  0.70247  0.99754  1.0000
  H   H290      1.0  0.43272  0.83249  0.30744  1.0000
  H   H291      1.0  0.49117  0.88340  0.30443  1.0000
  H   H292      1.0  0.52262  0.82032  0.31732  1.0000
  H   H293      1.0  0.42698  0.78989  0.31231  1.0000
  C   C253      1.0  0.52695  0.66767  0.23922  1.0000
  H   H294      1.0  0.29482  0.53745  0.22143  1.0000
  C   C254      1.0  0.32043  0.63584  0.32718  1.0000
  S   S70       1.0  0.21859  0.51701  0.22248  1.0000
  H   H295      1.0  0.36167  0.53096  0.04237  1.0000
  Fe  Fe35      1.0  0.44444  0.52468  0.31839  1.0000
  C   C255      1.0  0.32293  0.67727  0.00299  1.0000
  H   H296      1.0  0.46643  0.59870  0.00475  1.0000
  S   S71       1.0  0.39393  0.69973  0.47443  1.0000
  Fe  Fe36      1.0  0.43061  0.72555  0.37515  1.0000
  S   S72       1.0  0.42314  0.68296  0.40356  1.0000
  C   C256      1.0  0.51344  0.91199  0.62448  1.0000
  C   C257      1.0  0.19908  0.53526  0.34764  1.0000
  C   C258      1.0  0.28476  0.56593  0.59525  1.0000
  H   H297      1.0  0.12707  0.55291  0.62241  1.0000
  H   H298      1.0  0.43817  0.60587  0.42169  1.0000
  Fe  Fe37      1.0  0.48199  0.71130  0.40422  1.0000
  C   C259      1.0  0.49423  0.65204  0.37660  1.0000
  C   C260      1.0  0.18303  0.52985  0.59887  1.0000
  C   C261      1.0  0.50229  0.62543  0.37412  1.0000
  C   C262      1.0  0.32636  0.57057  0.56054  1.0000
  C   C263      1.0  0.44964  0.70961  0.50621  1.0000
  C   C264      1.0  0.41485  0.70232  0.50551  1.0000
  C   C265      1.0  0.39630  0.69676  0.52999  1.0000
  H   H299      1.0  0.46399  0.71313  0.48765  1.0000
  H   H300      1.0  0.36934  0.69103  0.52963  1.0000
  C   C266      1.0  0.45074  0.59784  0.43742  1.0000
  C   C267      1.0  0.47568  0.85538  0.64508  1.0000
  H   H301      1.0  0.25527  0.65504  0.37412  1.0000
  H   H302      1.0  0.39305  0.56789  0.34308  1.0000
  C   C268      1.0  0.47330  0.88202  0.38126  1.0000
  H   H303      1.0  0.25665  0.58332  0.64987  1.0000
  Fe  Fe38      1.0  0.44390  0.71913  0.62394  1.0000
  S   S73       1.0  0.40137  0.73222  0.61998  1.0000
  H   H304      1.0  0.51451  0.77863  0.55973  1.0000
  C   C269      1.0  0.38531  0.58111  0.54862  1.0000
  H   H305      1.0  0.47969  0.80457  0.60331  1.0000
  S   S74       1.0  0.32020  0.64677  0.64115  1.0000
  H   H306      1.0  0.25744  0.54455  0.54590  1.0000
  H   H307      1.0  0.47264  0.80986  0.45625  1.0000
  H   H308      1.0  0.45679  0.88561  0.62473  1.0000
  C   C270      1.0  0.44789  0.70748  0.55558  1.0000
  H   H309      1.0  0.50493  0.86931  0.56865  1.0000
  C   C271      1.0  0.41272  0.69921  0.55496  1.0000
  S   S75       1.0  0.42980  0.75956  0.40886  1.0000
  H   H310      1.0  0.39805  0.69448  0.57363  1.0000
  C   C272      1.0  0.38726  0.60666  0.47584  1.0000
  H   H311      1.0  0.34681  0.66859  0.37665  1.0000
  H   H312      1.0  0.25644  0.58318  0.55359  1.0000
  H   H313      1.0  0.45075  0.65596  0.45131  1.0000
  H   H314      1.0  0.32309  0.69050  0.36913  1.0000
  H   H315      1.0  0.45582  0.60016  0.50632  1.0000
  H   H316      1.0  0.49111  0.91542  0.43469  1.0000
  S   S76       1.0  0.48752  0.74536  0.43956  1.0000
  N   N17       1.0  0.30194  0.58270  0.56919  1.0000
  H   H317      1.0  0.51857  0.62272  0.38915  1.0000
  C   C273      1.0  0.47844  0.81212  0.47777  1.0000
  C   C274      1.0  0.33256  0.55220  0.48151  1.0000
  C   C275      1.0  0.31940  0.62098  0.57331  1.0000
  C   C276      1.0  0.35013  0.53393  0.47655  1.0000
  C   C277      1.0  0.50511  0.96994  0.46357  1.0000
  H   H318      1.0  0.46132  0.83121  0.39488  1.0000
  H   H319      1.0  0.30456  0.53807  0.48578  1.0000
  S   S77       1.0  0.47019  0.71322  0.58647  1.0000
  H   H320      1.0  0.42508  0.77659  0.48954  1.0000
  H   H321      1.0  0.33748  0.60281  0.48500  1.0000
  H   H322      1.0  0.33986  0.62998  0.58937  1.0000
  H   H323      1.0  0.48198  0.95689  0.47742  1.0000
  H   H324      1.0  0.49574  0.81813  0.34547  1.0000
  C   C278      1.0  0.13484  0.56780  0.64115  1.0000
  C   C279      1.0  0.25876  0.63384  0.38274  1.0000
  Fe  Fe39      1.0  0.42896  0.71968  0.43726  1.0000
  C   C280      1.0  0.46192  0.59601  0.48510  1.0000
  N   N18       1.0  0.29060  0.63466  0.37141  1.0000
  H   H325      1.0  0.26892  0.53712  0.59365  1.0000
  H   H326      1.0  0.49316  0.71818  0.53134  1.0000
  N   N19       1.0  0.44428  0.60694  0.46510  1.0000
  H   H327      1.0  0.52011  0.98141  0.51375  1.0000
  C   C281      1.0  0.51286  0.83287  0.48657  1.0000
  H   H328      1.0  0.51631  0.93382  0.61287  1.0000
  H   H329      1.0  0.49469  0.96945  0.44287  1.0000
  S   S78       1.0  0.39857  0.71793  0.33755  1.0000
  H   H330      1.0  0.19953  0.55979  0.34744  1.0000
  C   C282      1.0  0.27448  0.57318  0.54827  1.0000
  H   H331      1.0  0.44076  0.56951  0.43493  1.0000
  H   H332      1.0  0.32084  0.67276  0.40243  1.0000
  S   S79       1.0  0.22213  0.52257  0.47433  1.0000
  C   C283      1.0  0.52156  0.85726  0.57183  1.0000
  C   C284      1.0  0.47356  0.65575  0.35698  1.0000
  C   C285      1.0  0.46095  0.63291  0.33481  1.0000
  H   H333      1.0  0.47066  0.58770  0.63658  1.0000
  C   C286      1.0  0.32153  0.66796  0.38025  1.0000
  C   C287      1.0  0.29549  0.51877  0.66061  1.0000
  H   H334      1.0  0.29173  0.55728  0.33059  1.0000
  H   H335      1.0  0.46732  0.67624  0.35894  1.0000
  C   C288      1.0  0.37182  0.54575  0.54365  1.0000
  C   C289      1.0  0.33603  0.52259  0.54705  1.0000
  S   S80       1.0  0.48922  0.75089  0.37299  1.0000
  H   H336      1.0  0.26639  0.57476  0.60241  1.0000
  C   C290      1.0  0.36507  0.55469  0.34735  1.0000
  C   C291      1.0  0.38618  0.55181  0.47101  1.0000
  C   C292      1.0  0.40599  0.58875  0.47068  1.0000
  C   C293      1.0  0.48182  0.85769  0.39137  1.0000
  S   S81       1.0  0.47236  0.75859  0.65676  1.0000
  C   C294      1.0  0.45170  0.79360  0.49658  1.0000
  H   H337      1.0  0.49017  0.65838  0.46242  1.0000
  Fe  Fe40      1.0  0.42703  0.76817  0.65512  1.0000
  H   H338      1.0  0.50650  0.87391  0.33462  1.0000
  Fe  Fe41      1.0  0.37361  0.69092  0.65130  1.0000
  C   C295      1.0  0.35109  0.58850  0.48112  1.0000
  H   H339      1.0  0.44367  0.82147  0.33927  1.0000
  C   C296      1.0  0.48903  0.60208  0.35226  1.0000
  H   H340      1.0  0.48260  0.90082  0.46933  1.0000
  S   S82       1.0  0.19324  0.53807  0.40302  1.0000
  C   C297      1.0  0.51669  0.86806  0.39753  1.0000
  C   C298      1.0  0.36309  0.59354  0.55691  1.0000
  H   H341      1.0  0.34421  0.64187  0.33783  1.0000
  S   S83       1.0  0.48824  0.94705  0.36592  1.0000
  H   H342      1.0  0.49101  0.61063  0.48250  1.0000
  C   C299      1.0  0.29029  0.63159  0.34138  1.0000
  C   C300      1.0  0.49395  0.81736  0.53409  1.0000
  C   C301      1.0  0.50384  0.91629  0.45436  1.0000
  H   H343      1.0  0.43722  0.78031  0.53768  1.0000
  H   H344      1.0  0.31735  0.60563  0.37753  1.0000
  C   C302      1.0  0.46141  0.64548  0.46671  1.0000
  C   C303      1.0  0.34420  0.56614  0.33522  1.0000
  Fe  Fe42      1.0  0.48820  0.78222  0.40846  1.0000
  H   H345      1.0  0.39988  0.63474  0.47592  1.0000
  H   H346      1.0  0.45390  0.56812  0.48304  1.0000
  H   H347      1.0  0.45321  0.81093  0.57939  1.0000
  H   H348      1.0  0.44621  0.87415  0.37700  1.0000
  C   C304      1.0  0.49965  0.91669  0.37721  1.0000
  C   C305      1.0  0.46608  0.71213  0.53109  1.0000
  H   H349      1.0  0.52839  0.85992  0.59372  1.0000
  H   H350      1.0  0.30460  0.57254  0.61150  1.0000
  H   H351      1.0  0.37546  0.62125  0.56039  1.0000
  H   H352      1.0  0.39854  0.53644  0.46715  1.0000
  H   H353      1.0  0.23459  0.60836  0.37895  1.0000
  H   H354      1.0  0.49535  0.58158  0.35036  1.0000
  H   H355      1.0  0.52100  0.99787  0.46936  1.0000
  S   S84       1.0  0.50862  0.67976  0.40478  1.0000
  H   H356      1.0  0.45813  0.77278  0.57751  1.0000
  S   S85       1.0  0.43334  0.82164  0.65335  1.0000
  C   C306      1.0  0.29279  0.60533  0.38354  1.0000
  C   C307      1.0  0.47975  0.88447  0.63090  1.0000
  C   C308      1.0  0.50539  0.85404  0.65306  1.0000
  N   N20       1.0  0.50306  0.82021  0.56326  1.0000
  S   S86       1.0  0.18193  0.53386  0.54344  1.0000
  H   H357      1.0  0.38912  0.53624  0.53707  1.0000
  H   H358      1.0  0.45842  0.65414  0.48731  1.0000
  C   C309      1.0  0.45914  0.79599  0.52436  1.0000
  H   H359      1.0  0.26011  0.63711  0.40524  1.0000
  H   H360      1.0  0.41322  0.59908  0.54615  1.0000
  H   H361      1.0  0.47935  0.61127  0.43253  1.0000
  H   H362      1.0  0.29226  0.60614  0.40617  1.0000
  H   H363      1.0  0.30049  0.62922  0.58032  1.0000
  H   H364      1.0  0.17855  0.55164  0.59884  1.0000
  C   C310      1.0  0.31354  0.53466  0.55536  1.0000
  H   H365      1.0  0.33163  0.63539  0.55421  1.0000
  H   H366      1.0  0.18852  0.60061  0.62817  1.0000
  S   S87       1.0  0.41485  0.67559  0.65337  1.0000
  N   N21       1.0  0.52653  0.95260  0.46397  1.0000
  C   C311      1.0  0.47493  0.59569  0.65773  1.0000
  C   C312      1.0  0.30817  0.54877  0.34037  1.0000
  H   H367      1.0  0.27014  0.57984  0.37714  1.0000
  C   C313      1.0  0.47207  0.80128  0.58149  1.0000
  H   H368      1.0  0.28631  0.58399  0.52806  1.0000
  C   C314      1.0  0.46830  0.60579  0.33270  1.0000
  H   H369      1.0  0.47019  0.52432  0.45856  1.0000
  C   C315      1.0  0.52063  0.83545  0.51427  1.0000
  H   H370      1.0  0.51875  0.90248  0.45080  1.0000
  C   C316      1.0  0.52657  0.80575  0.56765  1.0000
  H   H371      1.0  0.46288  0.63661  0.65240  1.0000
  C   C317      1.0  0.16943  0.59457  0.64432  1.0000
  C   C318      1.0  0.19543  0.51825  0.37236  1.0000
  S   S88       1.0  0.52812  0.83908  0.41173  1.0000
  C   C319      1.0  0.29303  0.52028  0.35805  1.0000
  H   H372      1.0  0.23617  0.62004  0.33420  1.0000
  C   C320      1.0  0.35005  0.52583  0.36462  1.0000
  H   H373      1.0  0.18262  0.52639  0.64259  1.0000
  H   H374      1.0  0.08415  0.53839  0.65843  1.0000
  H   H375      1.0  0.36726  0.51729  0.37273  1.0000
  C   C321      1.0  0.36869  0.55231  0.66039  1.0000
  H   H376      1.0  0.39712  0.56524  0.66039  1.0000
  H   H377      1.0  0.47437  0.95606  0.71627  1.0000
  H   H378      1.0  0.47013  0.65349  0.98504  1.0000
  S   S89       1.0  0.20946  0.59452  0.73653  1.0000
  C   C322      1.0  0.48766  0.85234  0.88957  1.0000
  C   C323      1.0  0.45672  0.62101  0.75383  1.0000
  H   H379      1.0  0.30768  0.64065  0.76303  1.0000
  H   H380      1.0  0.50450  0.86938  0.82345  1.0000
  H   H381      1.0  0.47567  0.92565  0.75472  1.0000
  H   H382      1.0  0.46762  0.78045  0.72035  1.0000
  C   C324      1.0  0.35188  0.57117  0.66609  1.0000
  S   S90       1.0  0.43518  0.75244  0.90823  1.0000
  H   H383      1.0  0.46101  0.65407  0.94927  1.0000
  H   H384      1.0  0.47761  0.80027  0.85168  1.0000
  S   S91       1.0  0.40566  0.69678  0.97675  1.0000
  Fe  Fe43      1.0  0.43216  0.71510  0.87574  1.0000
  S   S92       1.0  0.39576  0.70181  0.83981  1.0000
  S   S93       1.0  0.42847  0.67553  0.90573  1.0000
  C   C325      1.0  0.05801  0.54470  0.70301  1.0000
  H   H385      1.0  0.34970  0.60806  0.98511  1.0000
  C   C326      1.0  0.39347  0.55179  0.97408  1.0000
  H   H386      1.0  0.30149  0.61022  0.83464  1.0000
  C   C327      1.0  0.34192  0.55612  0.98464  1.0000
  C   C328      1.0  0.46305  0.59233  0.83405  1.0000
  H   H387      1.0  0.52137  0.96258  0.93013  1.0000
  C   C329      1.0  0.49580  0.64266  0.87463  1.0000
  C   C330      1.0  0.47174  0.64429  0.85721  1.0000
  C   C331      1.0  0.45554  0.61927  0.83680  1.0000
  H   H388      1.0  0.46139  0.56516  0.98159  1.0000
  H   H389      1.0  0.40437  0.53499  0.97083  1.0000
  H   H390      1.0  0.46550  0.66477  0.85946  1.0000
  H   H391      1.0  0.43668  0.62050  0.82356  1.0000
  C   C332      1.0  0.48157  0.79712  0.76187  1.0000
  C   C333      1.0  0.44242  0.70466  0.75569  1.0000
  C   C334      1.0  0.41097  0.70512  0.75829  1.0000
  C   C335      1.0  0.39663  0.70382  0.78418  1.0000
  C   C336      1.0  0.41363  0.70207  0.80758  1.0000
  C   C337      1.0  0.44462  0.70080  0.80492  1.0000
  C   C338      1.0  0.48729  0.59075  0.85132  1.0000
  H   H392      1.0  0.39780  0.70674  0.74046  1.0000
  H   H393      1.0  0.37260  0.70478  0.78609  1.0000
  C   C339      1.0  0.44822  0.81410  0.73319  1.0000
  H   H394      1.0  0.36051  0.60372  0.79846  1.0000
  C   C340      1.0  0.34595  0.55029  0.80047  1.0000
  H   H395      1.0  0.50629  0.61639  0.78095  1.0000
  H   H396      1.0  0.49938  0.60684  0.97941  1.0000
  H   H397      1.0  0.49369  0.57037  0.84885  1.0000
  C   C341      1.0  0.10540  0.55685  0.73311  1.0000
  H   H398      1.0  0.45225  0.81549  0.83457  1.0000
  C   C342      1.0  0.44551  0.83334  0.75459  1.0000
  H   H399      1.0  0.44694  0.63660  0.74336  1.0000
  C   C343      1.0  0.47898  0.87698  0.88050  1.0000
  H   H400      1.0  0.30238  0.56915  0.67080  1.0000
  C   C344      1.0  0.50542  0.91135  0.87548  1.0000
  H   H401      1.0  0.24447  0.57357  0.80941  1.0000
  H   H402      1.0  0.51678  0.90264  0.70842  1.0000
  C   C345      1.0  0.31536  0.55441  0.66625  1.0000
  Fe  Fe44      1.0  0.43757  0.71518  0.93788  1.0000
  C   C346      1.0  0.41466  0.58851  0.97152  1.0000
  H   H403      1.0  0.49734  0.95612  0.96104  1.0000
  H   H404      1.0  0.09033  0.61580  0.70149  1.0000
  C   C347      1.0  0.24089  0.61004  0.71048  1.0000
  C   C348      1.0  0.27004  0.64370  0.71139  1.0000
  C   C349      1.0  0.50180  0.91614  0.70402  1.0000
  H   H405      1.0  0.27336  0.66067  0.72836  1.0000
  S   S94       1.0  0.44211  0.56104  0.80875  1.0000
  H   H406      1.0  0.46713  0.82600  0.89369  1.0000
  C   C350      1.0  0.31163  0.62402  0.81494  1.0000
  H   H407      1.0  0.48325  0.70167  0.77729  1.0000
  Fe  Fe45      1.0  0.48717  0.70389  0.90255  1.0000
  H   H408      1.0  0.18209  0.54073  0.84945  1.0000
  C   C351      1.0  0.45901  0.70219  0.77907  1.0000
  C   C352      1.0  0.30360  0.57052  0.79446  1.0000
  C   C353      1.0  0.50056  0.96986  0.70622  1.0000
  N   N22       1.0  0.29647  0.59963  0.79163  1.0000
  S   S95       1.0  0.49623  0.74075  0.93668  1.0000
  H   H409      1.0  0.43598  0.81275  0.71381  1.0000
  C   C354      1.0  0.45561  0.59349  0.93631  1.0000
  H   H410      1.0  0.48849  0.93150  0.80337  1.0000
  S   S96       1.0  0.49044  0.74041  0.87002  1.0000
  C   C355      1.0  0.46706  0.80151  0.83149  1.0000
  N   N23       1.0  0.49543  0.81850  0.81090  1.0000
  H   H411      1.0  0.24553  0.57135  0.77266  1.0000
  H   H412      1.0  0.31982  0.65579  0.96321  1.0000
  C   C356      1.0  0.47967  0.81684  0.78405  1.0000
  C   C357      1.0  0.11030  0.55978  0.66215  1.0000
  N   N24       1.0  0.45236  0.60462  0.96413  1.0000
  C   C358      1.0  0.50385  0.61609  0.87156  1.0000
  H   H413      1.0  0.08749  0.55082  0.75091  1.0000
  C   C359      1.0  0.47530  0.63281  0.69409  1.0000
  C   C360      1.0  0.48974  0.58797  0.70348  1.0000
  H   H414      1.0  0.44285  0.60205  0.92112  1.0000
  H   H415      1.0  0.45172  0.86949  0.87762  1.0000
  H   H416      1.0  0.37283  0.55614  0.80324  1.0000
  C   C361      1.0  0.36192  0.59222  0.98224  1.0000
  H   H417      1.0  0.44356  0.56477  0.93450  1.0000
  C   C362      1.0  0.29500  0.65532  0.69024  1.0000
  C   C363      1.0  0.25841  0.58809  0.79070  1.0000
  H   H418      1.0  0.43598  0.59306  0.75246  1.0000
  H   H419      1.0  0.43086  0.84675  0.75185  1.0000
  S   S97       1.0  0.46204  0.70750  0.72372  1.0000
  H   H420      1.0  0.25377  0.61048  0.78890  1.0000
  H   H421      1.0  0.26914  0.59798  0.97516  1.0000
  H   H422      1.0  0.49978  0.65466  0.95937  1.0000
  H   H423      1.0  0.49396  0.89751  0.96797  1.0000
  H   H424      1.0  0.04835  0.55357  0.68571  1.0000
  C   C364      1.0  0.46613  0.79600  0.73686  1.0000
  C   C365      1.0  0.46090  0.83471  0.77969  1.0000
  H   H425      1.0  0.45746  0.69857  0.82275  1.0000
  C   C366      1.0  0.50268  0.60752  0.75936  1.0000
  C   C367      1.0  0.30874  0.65090  0.98357  1.0000
  C   C368      1.0  0.47053  0.59333  0.98333  1.0000
  C   C369      1.0  0.29012  0.63352  0.66801  1.0000
  H   H426      1.0  0.47599  0.90178  0.71451  1.0000
  Fe  Fe46      1.0  0.17844  0.53695  0.72979  1.0000
  Fe  Fe47      1.0  0.43814  0.71613  0.68616  1.0000
  C   C370      1.0  0.50983  0.94354  0.78868  1.0000
  H   H427      1.0  0.47780  0.71480  0.98931  1.0000
  C   C371      1.0  0.11994  0.57858  0.68712  1.0000
  H   H428      1.0  0.16534  0.61972  0.70846  1.0000
  H   H429      1.0  0.45933  0.62844  0.77571  1.0000
  H   H430      1.0  0.30216  0.60125  0.74811  1.0000
  H   H431      1.0  0.10455  0.53222  0.72734  1.0000
  C   C372      1.0  0.09531  0.60297  0.71890  1.0000
  C   C373      1.0  0.51699  0.66432  0.74440  1.0000
  H   H432      1.0  0.49438  0.78185  0.76331  1.0000
  C   C374      1.0  0.15555  0.60529  0.68972  1.0000
  H   H433      1.0  0.31410  0.54369  0.98943  1.0000
  C   C375      1.0  0.50284  0.94036  0.76082  1.0000
  Fe  Fe48      1.0  0.49348  0.77493  0.90456  1.0000
  H   H434      1.0  0.13256  0.57523  0.74015  1.0000
  C   C376      1.0  0.47141  0.64331  0.96462  1.0000
  C   C377      1.0  0.51900  0.85538  0.81893  1.0000
  H   H435      1.0  0.31752  0.68129  0.69086  1.0000
  C   C378      1.0  0.31282  0.61876  0.76612  1.0000
  C   C379      1.0  0.33855  0.57735  0.79786  1.0000
  H   H436      1.0  0.21428  0.56244  0.68746  1.0000
  S   S98       1.0  0.17895  0.51796  0.90434  1.0000
  N   N25       1.0  0.49044  0.62676  0.74223  1.0000
  H   H437      1.0  0.46678  0.51901  0.95437  1.0000
  N   N26       1.0  0.09490  0.57075  0.70996  1.0000
  H   H438      1.0  0.49596  0.97051  0.68405  1.0000
  C   C380      1.0  0.51948  0.91006  0.95678  1.0000
  C   C381      1.0  0.17971  0.61330  0.66852  1.0000
  H   H439      1.0  0.49579  0.91306  0.68196  1.0000
  H   H440      1.0  0.50252  0.83216  0.66461  1.0000
  H   H441      1.0  0.45757  0.84943  0.79587  1.0000
  H   H442      1.0  0.41138  0.63622  0.97374  1.0000
  S   S99       1.0  0.49399  0.94162  0.86397  1.0000
  C   C382      1.0  0.39768  0.60826  0.97569  1.0000
  C   C383      1.0  0.27668  0.53492  0.79325  1.0000
  H   H443      1.0  0.34075  0.63723  0.81553  1.0000
  H   H444      1.0  0.44774  0.77430  0.82544  1.0000
  S   S100      1.0  0.39428  0.72816  0.68657  1.0000
  H   H445      1.0  0.48312  0.57914  0.75992  1.0000
  H   H446      1.0  0.52242  0.67302  0.76599  1.0000
  H   H447      1.0  0.52835  0.61121  0.75213  1.0000
  C   C384      1.0  0.28051  0.61839  0.99041  1.0000
  H   H448      1.0  0.07496  0.59749  0.73475  1.0000
  C   C385      1.0  0.48537  0.61577  0.71334  1.0000
  C   C386      1.0  0.23656  0.58833  0.68842  1.0000
  H   H449      1.0  0.12077  0.62224  0.72811  1.0000
  H   H450      1.0  0.24932  0.52686  0.79039  1.0000
  H   H451      1.0  0.34184  0.63027  0.76598  1.0000
  H   H452      1.0  0.49676  0.57296  0.71651  1.0000
  H   H453      1.0  0.30533  0.64538  0.81413  1.0000
  H   H454      1.0  0.48365  0.60504  0.93002  1.0000
  H   H455      1.0  0.20686  0.63363  0.67116  1.0000
  S   S101      1.0  0.51452  0.67295  0.90095  1.0000
  C   C387      1.0  0.48462  0.57830  0.67607  1.0000
  H   H456      1.0  0.47107  0.65388  0.70008  1.0000
  H   H457      1.0  0.49993  0.77234  0.80781  1.0000
  H   H458      1.0  0.36712  0.59881  0.67044  1.0000
  C   C388      1.0  0.26066  0.60024  0.66701  1.0000
  H   H459      1.0  0.50831  0.68118  0.73459  1.0000
  C   C389      1.0  0.52286  0.86193  0.89320  1.0000
  H   H460      1.0  0.05517  0.51899  0.69775  1.0000
  H   H461      1.0  0.51392  0.99730  0.71361  1.0000
  H   H462      1.0  0.03977  0.53947  0.72048  1.0000
  C   C390      1.0  0.51654  0.80083  0.81149  1.0000
  N   N27       1.0  0.52203  0.95343  0.71189  1.0000
  H   H463      1.0  0.48766  0.55674  0.66901  1.0000
  H   H464      1.0  0.51339  0.90665  0.93472  1.0000
  C   C391      1.0  0.35769  0.53595  0.98057  1.0000
  H   H465      1.0  0.52268  0.61497  0.88489  1.0000
  C   C392      1.0  0.47037  0.62299  0.66670  1.0000
  C   C393      1.0  0.52425  0.96602  0.95262  1.0000
  Fe  Fe49      1.0  0.85272  0.29694  0.19159  1.0000
  S   S102      1.0  0.86880  0.25650  0.18839  1.0000
  S   S103      1.0  0.85359  0.32697  0.15417  1.0000
  Fe  Fe50      1.0  0.84674  0.29104  0.25428  1.0000
  S   S104      1.0  0.86301  0.25076  0.25510  1.0000
  S   S105      1.0  0.83210  0.30855  0.29311  1.0000
  Fe  Fe51      1.0  0.90329  0.28409  0.22408  1.0000
  S   S106      1.0  0.95973  0.29697  0.22407  1.0000
  Fe  Fe52      1.0  0.82669  0.22796  0.21979  1.0000
  S   S107      1.0  0.78566  0.17151  0.22069  1.0000
  S   S108      1.0  0.88983  0.32651  0.22555  1.0000
  S   S109      1.0  0.80775  0.26631  0.22045  1.0000
  Fe  Fe53      1.0  0.57664  0.05372  0.08523  1.0000
  C   C394      1.0  0.68324  0.23178  0.18312  1.0000
  C   C395      1.0  0.55823  0.36947  0.21597  1.0000
  Fe  Fe54      1.0  0.57416  0.05739  0.14739  1.0000
  H   H466      1.0  0.96777  0.38579  0.19746  1.0000
  H   H467      1.0  0.65534  0.13234  0.99710  1.0000
  Fe  Fe55      1.0  0.64334  0.08429  0.11771  1.0000
  S   S110      1.0  0.69670  0.13165  0.11312  1.0000
  H   H468      1.0  0.58112  0.28208  0.19806  1.0000
  S   S111      1.0  0.60085  0.09772  0.11514  1.0000
  H   H469      1.0  0.02585  0.43172  0.05395  1.0000
  H   H470      1.0  0.95466  0.30746  0.01532  1.0000
  S   S112      1.0  0.81070  0.24853  0.04036  1.0000
  Fe  Fe56      1.0  0.65884  0.36372  0.03221  1.0000
  S   S113      1.0  0.71742  0.39274  0.03388  1.0000
  C   C396      1.0  0.73125  0.37480  0.00834  1.0000
  H   H471      1.0  0.57324  0.39829  0.21373  1.0000
  S   S114      1.0  0.55572  0.06256  0.04610  1.0000
  H   H472      1.0  0.78448  0.39861  0.02268  1.0000
  C   C397      1.0  0.97806  0.36070  0.24613  1.0000
  S   S115      1.0  0.55815  0.30573  0.02912  1.0000
  C   C398      1.0  0.56938  0.06907  0.21548  1.0000
  C   C399      1.0  0.60491  0.07878  0.21650  1.0000
  C   C400      1.0  0.62091  0.08106  0.24158  1.0000
  C   C401      1.0  0.60158  0.07400  0.26581  1.0000
  C   C402      1.0  0.56638  0.06538  0.26482  1.0000
  C   C403      1.0  0.54694  0.14919  0.30191  1.0000
  C   C404      1.0  0.91246  0.32712  0.04044  1.0000
  S   S116      1.0  0.54887  0.20136  0.27187  1.0000
  C   C405      1.0  0.59397  0.29503  0.17947  1.0000
  H   H473      1.0  0.96766  0.38667  0.04101  1.0000
  C   C406      1.0  0.57623  0.06235  0.01523  1.0000
  H   H474      1.0  0.69047  0.17533  0.26186  1.0000
  Fe  Fe57      1.0  0.59063  0.36417  0.02922  1.0000
  H   H475      1.0  0.92360  0.34002  0.02066  1.0000
  Fe  Fe58      1.0  0.82780  0.27866  0.00084  1.0000
  H   H476      1.0  0.55133  0.06046  0.28327  1.0000
  H   H477      1.0  0.58806  0.36176  0.11935  1.0000
  C   C407      1.0  0.55989  0.16045  0.17528  1.0000
  C   C408      1.0  0.53215  0.18779  0.32610  1.0000
  C   C409      1.0  0.84138  0.30480  0.12275  1.0000
  C   C410      1.0  0.84551  0.32368  0.09891  1.0000
  C   C411      1.0  0.83586  0.30670  0.07360  1.0000
  C   C412      1.0  0.82209  0.27068  0.07189  1.0000
  C   C413      1.0  0.81774  0.25181  0.09576  1.0000
  C   C414      1.0  0.82754  0.26882  0.12108  1.0000
  H   H478      1.0  0.85603  0.35153  0.10004  1.0000
  H   H479      1.0  0.83904  0.32157  0.05548  1.0000
  H   H480      1.0  0.80709  0.22392  0.09469  1.0000
  H   H481      1.0  0.82422  0.25401  0.13930  1.0000
  C   C415      1.0  0.76090  0.16037  0.19086  1.0000
  C   C416      1.0  0.73242  0.12668  0.18751  1.0000
  C   C417      1.0  0.71271  0.11764  0.16355  1.0000
  C   C418      1.0  0.72152  0.14224  0.14292  1.0000
  C   C419      1.0  0.74996  0.17596  0.14633  1.0000
  C   C420      1.0  0.76948  0.18508  0.17038  1.0000
  H   H482      1.0  0.72586  0.10746  0.20327  1.0000
  H   H483      1.0  0.69129  0.09142  0.16081  1.0000
  H   H484      1.0  0.75676  0.19508  0.13046  1.0000
  H   H485      1.0  0.79134  0.21113  0.17302  1.0000
  C   C421      1.0  0.53547  0.36431  0.17027  1.0000
  C   C422      1.0  0.98909  0.34093  0.23129  1.0000
  C   C423      1.0  0.91497  0.29366  0.07725  1.0000
  Fe  Fe59      1.0  0.61017  0.32184  0.31152  1.0000
  H   H486      1.0  0.76192  0.28466  0.05980  1.0000
  H   H487      1.0  0.61673  0.23139  0.10469  1.0000
  H   H488      1.0  0.01771  0.44614  0.14909  1.0000
  N   N28       1.0  0.96761  0.37701  0.15451  1.0000
  H   H489      1.0  0.00863  0.34439  0.15768  1.0000
  H   H490      1.0  0.75782  0.22930  0.28549  1.0000
  H   H491      1.0  0.73702  0.24893  0.09654  1.0000
  Fe  Fe60      1.0  0.56478  0.25726  0.27868  1.0000
  C   C424      1.0  0.72401  0.14221  0.27849  1.0000
  C   C425      1.0  0.55421  0.38324  0.11503  1.0000
  H   H492      1.0  0.99181  0.41217  0.26010  1.0000
  S   S117      1.0  0.62821  0.36640  0.99717  1.0000
  C   C426      1.0  0.58037  0.27866  0.15440  1.0000
  C   C427      1.0  0.96973  0.34369  0.06142  1.0000
  H   H493      1.0  0.77312  0.32717  0.04860  1.0000
  C   C428      1.0  0.56927  0.36717  0.12938  1.0000
  S   S118      1.0  0.62267  0.29490  0.27828  1.0000
  H   H494      1.0  0.92918  0.37983  0.18035  1.0000
  H   H495      1.0  0.66305  0.28655  0.08814  1.0000
  H   H496      1.0  0.77358  0.30570  0.10747  1.0000
  H   H497      1.0  0.64832  0.08826  0.24216  1.0000
  N   N29       1.0  0.58426  0.18018  0.19773  1.0000
  H   H498      1.0  0.77565  0.22323  0.32711  1.0000
  H   H499      1.0  0.78121  0.20544  0.28271  1.0000
  C   C429      1.0  0.62059  0.18938  0.19016  1.0000
  C   C430      1.0  0.62839  0.16288  0.18322  1.0000
  C   C431      1.0  0.66252  0.17066  0.17661  1.0000
  H   H500      1.0  0.72394  0.21408  0.99619  1.0000
  H   H501      1.0  0.95337  0.32572  0.13967  1.0000
  C   C432      1.0  0.57318  0.15809  0.22241  1.0000
  H   H502      1.0  0.64592  0.24631  0.19460  1.0000
  H   H503      1.0  0.57260  0.13307  0.21909  1.0000
  C   C433      1.0  0.00628  0.39245  0.15303  1.0000
  H   H504      1.0  0.60807  0.13581  0.18303  1.0000
  H   H505      1.0  0.66772  0.14985  0.17146  1.0000
  S   S119      1.0  0.63240  0.30555  0.03243  1.0000
  H   H506      1.0  0.91141  0.32854  0.30826  1.0000
  C   C434      1.0  0.55031  0.06286  0.23973  1.0000
  C   C435      1.0  0.64852  0.22650  0.02434  1.0000
  C   C436      1.0  0.02640  0.36337  0.08382  1.0000
  C   C437      1.0  0.60425  0.05593  0.01450  1.0000
  H   H507      1.0  0.62792  0.12762  0.04311  1.0000
  C   C438      1.0  0.52953  0.38960  0.12769  1.0000
  S   S120      1.0  0.54846  0.06556  0.18429  1.0000
  H   H508      1.0  0.55822  0.13495  0.17141  1.0000
  C   C439      1.0  0.58029  0.21089  0.20365  1.0000
  C   C440      1.0  0.54137  0.42350  0.30736  1.0000
  H   H509      1.0  0.90906  0.34554  0.05380  1.0000
  H   H510      1.0  0.54352  0.44602  0.03891  1.0000
  H   H511      1.0  0.91367  0.27078  0.02604  1.0000
  H   H512      1.0  0.54622  0.15125  0.22917  1.0000
  S   S121      1.0  0.57846  0.27436  0.09893  1.0000
  C   C441      1.0  0.67191  0.24929  0.00498  1.0000
  H   H513      1.0  0.53253  0.15424  0.17995  1.0000
  H   H514      1.0  0.68131  0.12116  0.32588  1.0000
  C   C442      1.0  0.64914  0.22429  0.18976  1.0000
  H   H515      1.0  0.95517  0.33013  0.17629  1.0000
  H   H516      1.0  0.88572  0.30514  0.03586  1.0000
  Fe  Fe61      1.0  0.59519  0.30887  0.06187  1.0000
  H   H517      1.0  0.68900  0.19380  0.11342  1.0000
  C   C443      1.0  0.95485  0.38568  0.12959  1.0000
  C   C444      1.0  0.69323  0.17402  0.28425  1.0000
  H   H518      1.0  0.95212  0.34826  0.25508  1.0000
  C   C445      1.0  0.56006  0.35775  0.15652  1.0000
  H   H519      1.0  0.62883  0.18444  0.11767  1.0000
  H   H520      1.0  0.96504  0.41408  0.12760  1.0000
  H   H521      1.0  0.92561  0.37307  0.12954  1.0000
  H   H522      1.0  0.55678  0.25336  0.15384  1.0000
  C   C446      1.0  0.01626  0.40525  0.06081  1.0000
  H   H523      1.0  0.73265  0.31293  0.32673  1.0000
  H   H524      1.0  0.61340  0.05034  0.03287  1.0000
  N   N30       1.0  0.93473  0.31490  0.05330  1.0000
  Fe  Fe62      1.0  0.59877  0.30818  0.99961  1.0000
  H   H525      1.0  0.71642  0.21092  0.17174  1.0000
  H   H526      1.0  0.72338  0.14310  0.25587  1.0000
  H   H527      1.0  0.75359  0.20408  0.25593  1.0000
  H   H528      1.0  0.95376  0.28000  0.04223  1.0000
  H   H529      1.0  0.88825  0.27234  0.07148  1.0000
  S   S122      1.0  0.61852  0.04697  0.15235  1.0000
  H   H530      1.0  0.85368  0.25864  0.30964  1.0000
  C   C447      1.0  0.00057  0.39665  0.24923  1.0000
  H   H531      1.0  0.56818  0.17556  0.15600  1.0000
  H   H532      1.0  0.55270  0.20312  0.20922  1.0000
  C   C448      1.0  0.68994  0.20502  0.17671  1.0000
  Fe  Fe63      1.0  0.54629  0.31460  0.28282  1.0000
  H   H533      1.0  0.58753  0.22830  0.18572  1.0000
  H   H534      1.0  0.62769  0.23057  0.03217  1.0000
  H   H535      1.0  0.63246  0.18170  0.04847  1.0000
  H   H536      1.0  0.93829  0.38554  0.28577  1.0000
  S   S123      1.0  0.62209  0.07559  0.29680  1.0000
  C   C449      1.0  0.02334  0.35685  0.22085  1.0000
  H   H537      1.0  0.92778  0.28042  0.08692  1.0000
  C   C450      1.0  0.54207  0.17797  0.30202  1.0000
  H   H538      1.0  0.73139  0.29064  0.03987  1.0000
  H   H539      1.0  0.96962  0.41999  0.17725  1.0000
  N   N31       1.0  0.68233  0.16253  0.03237  1.0000
  C   C451      1.0  0.71687  0.17541  0.04564  1.0000
  C   C452      1.0  0.65472  0.13903  0.05190  1.0000
  H   H540      1.0  0.57226  0.34506  0.16662  1.0000
  C   C453      1.0  0.67863  0.19243  0.02364  1.0000
  C   C454      1.0  0.65163  0.19841  0.03359  1.0000
  H   H541      1.0  0.91927  0.32767  0.15817  1.0000
  C   C455      1.0  0.93939  0.29226  0.03344  1.0000
  S   S124      1.0  0.55204  0.28568  0.24757  1.0000
  N   N32       1.0  0.72569  0.17348  0.29117  1.0000
  H   H542      1.0  0.72004  0.19251  0.06328  1.0000
  H   H543      1.0  0.72000  0.15364  0.05356  1.0000
  H   H544      1.0  0.73933  0.19048  0.03157  1.0000
  H   H545      1.0  0.65578  0.15265  0.07120  1.0000
  H   H546      1.0  0.65804  0.11664  0.05778  1.0000
  H   H547      1.0  0.56155  0.39057  0.09398  1.0000
  H   H548      1.0  0.70008  0.11759  0.28447  1.0000
  H   H549      1.0  0.55453  0.14140  0.28338  1.0000
  S   S125      1.0  0.62079  0.04239  0.08612  1.0000
  C   C456      1.0  0.84869  0.26960  0.32751  1.0000
  S   S126      1.0  0.55289  0.28177  0.31412  1.0000
  C   C457      1.0  0.02307  0.37222  0.15465  1.0000
  C   C458      1.0  0.98264  0.37887  0.05349  1.0000
  C   C459      1.0  0.62735  0.32780  0.13086  1.0000
  N   N33       1.0  0.73503  0.30744  0.08135  1.0000
  C   C460      1.0  0.72467  0.33372  0.07492  1.0000
  C   C461      1.0  0.76209  0.32240  0.10290  1.0000
  C   C462      1.0  0.75104  0.30215  0.05642  1.0000
  C   C463      1.0  0.70532  0.27368  0.09060  1.0000
  C   C464      1.0  0.67031  0.26730  0.09316  1.0000
  C   C465      1.0  0.71112  0.24605  0.09791  1.0000
  C   C466      1.0  0.64315  0.23540  0.10273  1.0000
  C   C467      1.0  0.68378  0.21431  0.10753  1.0000
  C   C468      1.0  0.64988  0.20901  0.11000  1.0000
  H   H550      1.0  0.74751  0.35888  0.06813  1.0000
  H   H551      1.0  0.70536  0.32492  0.05804  1.0000
  H   H552      1.0  0.71328  0.33996  0.09291  1.0000
  H   H553      1.0  0.75080  0.32590  0.12222  1.0000
  H   H554      1.0  0.78450  0.34829  0.09699  1.0000
  S   S127      1.0  0.64026  0.35023  0.21137  1.0000
  H   H555      1.0  0.66915  0.15018  0.29133  1.0000
  S   S128      1.0  0.62440  0.36718  0.06424  1.0000
  C   C469      1.0  0.62400  0.32807  0.18032  1.0000
  C   C470      1.0  0.76578  0.38126  0.00785  1.0000
  H   H556      1.0  0.59647  0.22605  0.22136  1.0000
  C   C471      1.0  0.75589  0.20450  0.27849  1.0000
  C   C472      1.0  0.53329  0.39336  0.04201  1.0000
  H   H557      1.0  0.70466  0.25854  0.18307  1.0000
  H   H558      1.0  0.56706  0.44562  0.31146  1.0000
  Fe  Fe64      1.0  0.60916  0.32529  0.24949  1.0000
  C   C473      1.0  0.64084  0.34424  0.15595  1.0000
  C   C474      1.0  0.59675  0.29518  0.13002  1.0000
  H   H559      1.0  0.74740  0.14010  0.28392  1.0000
  H   H560      1.0  0.62034  0.08517  0.19809  1.0000
  C   C475      1.0  0.94821  0.33848  0.15718  1.0000
  C   C476      1.0  0.95819  0.39134  0.17836  1.0000
  H   H561      1.0  0.91132  0.30984  0.09289  1.0000
  H   H562      1.0  0.98564  0.31048  0.08220  1.0000
  S   S129      1.0  0.60274  0.35676  0.28268  1.0000
  S   S130      1.0  0.57201  0.40278  0.02476  1.0000
  H   H563      1.0  0.66417  0.36975  0.15645  1.0000
  H   H564      1.0  0.69312  0.19682  0.29369  1.0000
  H   H565      1.0  0.64062  0.34045  0.11223  1.0000
  H   H566      1.0  0.56162  0.39040  0.29454  1.0000
  H   H567      1.0  0.96299  0.37698  0.11111  1.0000
  C   C477      1.0  0.72831  0.17218  0.32112  1.0000
  H   H568      1.0  0.59113  0.17173  0.23970  1.0000
  H   H569      1.0  0.97693  0.43930  0.31159  1.0000
  C   C478      1.0  0.99287  0.33674  0.07656  1.0000
  H   H570      1.0  0.57635  0.35965  0.21064  1.0000
  C   C479      1.0  0.83792  0.29425  0.32507  1.0000
  C   C480      1.0  0.94321  0.38412  0.30714  1.0000
  C   C481      1.0  0.53831  0.39218  0.29787  1.0000
  C   C482      1.0  0.70240  0.21659  0.00433  1.0000
  H   H571      1.0  0.00892  0.43880  0.99549  1.0000
  C   C483      1.0  0.54235  0.13049  0.32585  1.0000
  C   C484      1.0  0.92772  0.35193  0.31998  1.0000
  H   H572      1.0  0.55183  0.36352  0.23794  1.0000
  H   H573      1.0  0.68146  0.11767  0.01426  1.0000
  C   C485      1.0  0.96458  0.41431  0.32182  1.0000
  C   C486      1.0  0.68034  0.14128  0.00832  1.0000
  H   H574      1.0  0.66925  0.27092  0.99778  1.0000
  H   H575      1.0  0.54677  0.10874  0.32556  1.0000
  S   S131      1.0  0.83784  0.33314  0.99897  1.0000
  C   C487      1.0  0.02845  0.42899  0.15003  1.0000
  H   H576      1.0  0.66696  0.17933  0.36075  1.0000
  Fe  Fe65      1.0  0.59447  0.05893  0.39732  1.0000
  C   C488      1.0  0.59241  0.29783  0.62988  1.0000
  H   H577      1.0  0.94330  0.32570  0.39764  1.0000
  C   C489      1.0  0.93211  0.34976  0.34787  1.0000
  S   S132      1.0  0.60238  0.10111  0.36857  1.0000
  Fe  Fe66      1.0  0.88572  0.35251  0.48056  1.0000
  S   S133      1.0  0.87806  0.29883  0.48500  1.0000
  Fe  Fe67      1.0  0.80966  0.32422  0.46347  1.0000
  S   S134      1.0  0.79678  0.26897  0.46742  1.0000
  S   S135      1.0  0.76505  0.32843  0.44619  1.0000
  Fe  Fe68      1.0  0.82768  0.28694  0.50619  1.0000
  Fe  Fe69      1.0  0.84802  0.28746  0.44583  1.0000
  S   S136      1.0  0.85347  0.25967  0.40907  1.0000
  S   S137      1.0  0.83678  0.34121  0.50376  1.0000
  S   S138      1.0  0.85940  0.34200  0.44007  1.0000
  C   C490      1.0  0.75090  0.34849  0.46963  1.0000
  C   C491      1.0  0.71601  0.34090  0.46924  1.0000
  C   C492      1.0  0.70392  0.35519  0.48901  1.0000
  H   H578      1.0  0.69811  0.32354  0.45405  1.0000
  H   H579      1.0  0.67689  0.34905  0.48873  1.0000
  H   H580      1.0  0.70408  0.32796  0.33938  1.0000
  C   C493      1.0  0.97596  0.39936  0.48105  1.0000
  C   C494      1.0  0.97440  0.36718  0.47973  1.0000
  C   C495      1.0  0.00516  0.36555  0.47604  1.0000
  H   H581      1.0  0.94963  0.34346  0.48198  1.0000
  H   H582      1.0  0.00372  0.34048  0.47538  1.0000
  H   H583      1.0  0.01039  0.42006  0.39454  1.0000
  Fe  Fe70      1.0  0.58961  0.06181  0.33532  1.0000
  C   C496      1.0  0.66358  0.22358  0.61842  1.0000
  C   C497      1.0  0.62554  0.06320  0.48870  1.0000
  C   C498      1.0  0.61035  0.06742  0.46519  1.0000
  H   H584      1.0  0.57506  0.13681  0.43008  1.0000
  C   C499      1.0  0.56590  0.36060  0.35088  1.0000
  C   C500      1.0  0.79796  0.14767  0.63124  1.0000
  C   C501      1.0  0.84673  0.27281  0.37693  1.0000
  C   C502      1.0  0.83518  0.29685  0.37448  1.0000
  H   H585      1.0  0.58485  0.38810  0.34534  1.0000
  H   H586      1.0  0.82900  0.30688  0.39237  1.0000
  H   H587      1.0  0.56910  0.16310  0.55136  1.0000
  H   H588      1.0  0.91863  0.32397  0.35654  1.0000
  Fe  Fe71      1.0  0.57991  0.04657  0.58535  1.0000
  C   C503      1.0  0.85317  0.25901  0.35333  1.0000
  H   H589      1.0  0.61077  0.17259  0.34483  1.0000
  H   H590      1.0  0.55817  0.25298  0.65404  1.0000
  H   H591      1.0  0.74606  0.28494  0.60062  1.0000
  Fe  Fe72      1.0  0.64823  0.07361  0.61470  1.0000
  S   S139      1.0  0.70302  0.11833  0.61071  1.0000
  S   S140      1.0  0.61993  0.36869  0.56397  1.0000
  S   S141      1.0  0.60826  0.09059  0.61467  1.0000
  H   H592      1.0  0.00987  0.45500  0.47920  1.0000
  S   S142      1.0  0.80701  0.25464  0.54461  1.0000
  Fe  Fe73      1.0  0.65250  0.36429  0.53096  1.0000
  S   S143      1.0  0.71079  0.39264  0.53494  1.0000
  C   C504      1.0  0.72679  0.37734  0.50896  1.0000
  C   C505      1.0  0.76195  0.38581  0.50883  1.0000
  C   C506      1.0  0.77396  0.37115  0.48924  1.0000
  H   H593      1.0  0.77984  0.40347  0.52393  1.0000
  H   H594      1.0  0.80119  0.37790  0.48904  1.0000
  H   H595      1.0  0.63139  0.34600  0.61193  1.0000
  C   C507      1.0  0.57770  0.05964  0.51621  1.0000
  C   C508      1.0  0.60935  0.05950  0.51416  1.0000
  N   N34       1.0  0.54472  0.36869  0.62735  1.0000
  H   H596      1.0  0.65147  0.29213  0.60987  1.0000
  C   C509      1.0  0.81125  0.30562  0.62722  1.0000
  C   C510      1.0  0.79856  0.26983  0.62515  1.0000
  C   C511      1.0  0.79730  0.25462  0.59972  1.0000
  C   C512      1.0  0.80933  0.27506  0.57617  1.0000
  C   C513      1.0  0.82235  0.31092  0.57827  1.0000
  C   C514      1.0  0.82307  0.32608  0.60364  1.0000
  H   H597      1.0  0.78890  0.25377  0.64305  1.0000
  H   H598      1.0  0.78698  0.22688  0.59828  1.0000
  H   H599      1.0  0.83194  0.32708  0.56042  1.0000
  H   H600      1.0  0.83300  0.35381  0.60501  1.0000
  C   C515      1.0  0.57890  0.27664  0.40625  1.0000
  H   H601      1.0  0.84720  0.22870  0.60501  1.0000
  C   C516      1.0  0.99303  0.39257  0.40080  1.0000
  H   H602      1.0  0.74259  0.18819  0.63109  1.0000
  H   H603      1.0  0.82326  0.32715  0.34698  1.0000
  N   N35       1.0  0.72406  0.33284  0.59799  1.0000
  H   H604      1.0  0.68533  0.11780  0.37500  1.0000
  H   H605      1.0  0.58118  0.34719  0.35405  1.0000
  C   C517      1.0  0.74103  0.33785  0.57092  1.0000
  C   C518      1.0  0.57030  0.37820  0.39737  1.0000
  H   H606      1.0  0.61419  0.24482  0.44707  1.0000
  N   N36       1.0  0.95578  0.37930  0.39363  1.0000
  H   H607      1.0  0.77043  0.34018  0.61874  1.0000
  H   H608      1.0  0.75709  0.36598  0.56567  1.0000
  H   H609      1.0  0.73377  0.16610  0.40036  1.0000
  C   C519      1.0  0.71768  0.13453  0.64336  1.0000
  C   C520      1.0  0.57820  0.20308  0.49069  1.0000
  H   H610      1.0  0.55873  0.18969  0.40998  1.0000
  H   H611      1.0  0.77822  0.21833  0.37601  1.0000
  H   H612      1.0  0.54920  0.34848  0.33279  1.0000
  C   C521      1.0  0.93475  0.34388  0.40543  1.0000
  H   H613      1.0  0.62135  0.05634  0.53203  1.0000
  S   S144      1.0  0.55149  0.30954  0.53011  1.0000
  S   S145      1.0  0.57334  0.27705  0.59884  1.0000
  H   H614      1.0  0.77455  0.12304  0.62670  1.0000
  H   H615      1.0  0.58333  0.12629  0.52239  1.0000
  C   C522      1.0  0.66604  0.27853  0.61023  1.0000
  C   C523      1.0  0.65631  0.26040  0.35362  1.0000
  C   C524      1.0  0.58561  0.18204  0.47315  1.0000
  C   C525      1.0  0.53644  0.34081  0.60706  1.0000
  C   C526      1.0  0.75125  0.30195  0.37675  1.0000
  S   S146      1.0  0.80930  0.32466  0.65840  1.0000
  C   C527      1.0  0.68918  0.26548  0.36249  1.0000
  H   H616      1.0  0.58763  0.36728  0.40203  1.0000
  C   C528      1.0  0.55699  0.18567  0.43240  1.0000
  H   H617      1.0  0.77266  0.32898  0.38131  1.0000
  H   H618      1.0  0.64409  0.22844  0.44711  1.0000
  S   S147      1.0  0.63000  0.07013  0.43330  1.0000
  C   C529      1.0  0.64700  0.24330  0.61728  1.0000
  S   S148      1.0  0.62438  0.03714  0.64988  1.0000
  H   H619      1.0  0.55087  0.20512  0.44132  1.0000
  C   C530      1.0  0.73716  0.17046  0.64777  1.0000
  H   H620      1.0  0.71229  0.22374  0.61317  1.0000
  C   C531      1.0  0.57425  0.16870  0.52985  1.0000
  Fe  Fe74      1.0  0.58225  0.05110  0.64764  1.0000
  C   C532      1.0  0.59698  0.16420  0.42793  1.0000
  H   H621      1.0  0.93697  0.34411  0.42799  1.0000
  H   H622      1.0  0.76102  0.29175  0.36022  1.0000
  C   C533      1.0  0.58232  0.14799  0.51342  1.0000
  H   H623      1.0  0.70012  0.29847  0.40995  1.0000
  H   H624      1.0  0.55567  0.25109  0.40684  1.0000
  H   H625      1.0  0.90634  0.33256  0.40102  1.0000
  Fe  Fe75      1.0  0.54413  0.07757  0.37220  1.0000
  N   N37       1.0  0.54503  0.35807  0.37547  1.0000
  H   H626      1.0  0.72029  0.37919  0.59251  1.0000
  S   S149      1.0  0.58844  0.02186  0.36371  1.0000
  H   H627      1.0  0.74042  0.34606  0.63959  1.0000
  C   C534      1.0  0.80926  0.17522  0.61310  1.0000
  C   C535      1.0  0.59240  0.29555  0.43036  1.0000
  C   C536      1.0  0.96936  0.41247  0.34970  1.0000
  H   H628      1.0  0.59932  0.16966  0.40569  1.0000
  C   C537      1.0  0.58814  0.15449  0.48550  1.0000
  H   H629      1.0  0.96082  0.42970  0.40204  1.0000
  H   H630      1.0  0.71605  0.23625  0.37179  1.0000
  C   C538      1.0  0.70484  0.14079  0.36421  1.0000
  H   H631      1.0  0.56632  0.21271  0.53131  1.0000
  H   H632      1.0  0.54947  0.32566  0.61231  1.0000
  H   H633      1.0  0.00579  0.39348  0.64830  1.0000
  C   C539      1.0  0.63238  0.19820  0.34986  1.0000
  S   S150      1.0  0.56845  0.40734  0.53021  1.0000
  C   C540      1.0  0.58261  0.39496  0.62433  1.0000
  C   C541      1.0  0.62848  0.22728  0.34733  1.0000
  H   H634      1.0  0.76802  0.37874  0.61531  1.0000
  C   C542      1.0  0.59470  0.29105  0.38114  1.0000
  H   H635      1.0  0.55659  0.37862  0.41636  1.0000
  C   C543      1.0  0.56284  0.06438  0.49273  1.0000
  H   H636      1.0  0.54024  0.32136  0.42368  1.0000
  H   H637      1.0  0.62349  0.23019  0.41605  1.0000
  C   C544      1.0  0.85722  0.21172  0.64320  1.0000
  H   H638      1.0  0.79473  0.17193  0.59457  1.0000
  N   N38       1.0  0.68977  0.16882  0.53991  1.0000
  C   C545      1.0  0.72429  0.17699  0.55117  1.0000
  C   C546      1.0  0.66229  0.14560  0.55963  1.0000
  C   C547      1.0  0.68387  0.14894  0.51426  1.0000
  C   C548      1.0  0.68960  0.20151  0.53425  1.0000
  C   C549      1.0  0.71528  0.22698  0.51667  1.0000
  C   C550      1.0  0.66395  0.20880  0.54526  1.0000
  C   C551      1.0  0.71484  0.25736  0.51002  1.0000
  C   C552      1.0  0.66380  0.23933  0.53852  1.0000
  C   C553      1.0  0.68894  0.26335  0.52071  1.0000
  H   H639      1.0  0.73139  0.19470  0.56905  1.0000
  H   H640      1.0  0.72447  0.15316  0.55789  1.0000
  H   H641      1.0  0.74596  0.18969  0.53608  1.0000
  H   H642      1.0  0.66589  0.15848  0.57978  1.0000
  H   H643      1.0  0.66337  0.12141  0.56343  1.0000
  H   H644      1.0  0.63533  0.13672  0.55206  1.0000
  H   H645      1.0  0.70473  0.16365  0.49887  1.0000
  H   H646      1.0  0.68372  0.12408  0.51772  1.0000
  H   H647      1.0  0.65821  0.14229  0.50503  1.0000
  H   H648      1.0  0.73605  0.22363  0.50797  1.0000
  H   H649      1.0  0.64369  0.19134  0.55912  1.0000
  H   H650      1.0  0.73477  0.27644  0.49650  1.0000
  H   H651      1.0  0.64400  0.24439  0.54710  1.0000
  H   H652      1.0  0.68854  0.28680  0.51527  1.0000
  Fe  Fe76      1.0  0.58917  0.31059  0.56128  1.0000
  S   S151      1.0  0.62175  0.36949  0.49711  1.0000
  H   H653      1.0  0.72106  0.32540  0.55468  1.0000
  H   H654      1.0  0.72925  0.34174  0.39806  1.0000
  S   S152      1.0  0.93777  0.40210  0.48587  1.0000
  C   C554      1.0  0.70260  0.29519  0.60418  1.0000
  C   C555      1.0  0.94367  0.40167  0.40677  1.0000
  S   S153      1.0  0.57055  0.27757  0.46129  1.0000
  H   H655      1.0  0.66188  0.36827  0.40353  1.0000
  S   S154      1.0  0.62409  0.30598  0.53022  1.0000
  Fe  Fe77      1.0  0.58568  0.36765  0.53026  1.0000
  H   H656      1.0  0.94337  0.39977  0.42930  1.0000
  C   C556      1.0  0.71844  0.27413  0.60506  1.0000
  H   H657      1.0  0.53755  0.44761  0.54554  1.0000
  C   C557      1.0  0.70351  0.35109  0.59771  1.0000
  H   H658      1.0  0.86175  0.24011  0.35499  1.0000
  H   H659      1.0  0.74906  0.35042  0.34864  1.0000
  C   C558      1.0  0.81594  0.15199  0.65554  1.0000
  S   S155      1.0  0.64422  0.34340  0.34878  1.0000
  C   C559      1.0  0.63860  0.34271  0.40421  1.0000
  C   C560      1.0  0.61917  0.22455  0.43823  1.0000
  H   H660      1.0  0.63392  0.34278  0.44780  1.0000
  C   C561      1.0  0.57946  0.27971  0.65433  1.0000
  H   H661      1.0  0.59068  0.41702  0.63879  1.0000
  H   H662      1.0  0.65192  0.28212  0.35128  1.0000
  Fe  Fe78      1.0  0.59010  0.31127  0.49897  1.0000
  C   C562      1.0  0.62427  0.32436  0.38002  1.0000
  C   C563      1.0  0.62269  0.32836  0.42933  1.0000
  H   H663      1.0  0.74777  0.28690  0.39568  1.0000
  C   C564      1.0  0.95244  0.38020  0.36376  1.0000
  C   C565      1.0  0.75700  0.19741  0.36472  1.0000
  H   H664      1.0  0.91647  0.39389  0.40038  1.0000
  H   H665      1.0  0.75907  0.32717  0.56972  1.0000
  C   C566      1.0  0.83877  0.20717  0.61908  1.0000
  H   H666      1.0  0.00412  0.39334  0.59858  1.0000
  H   H667      1.0  0.59397  0.13726  0.47397  1.0000
  H   H668      1.0  0.87960  0.23730  0.64656  1.0000
  C   C567      1.0  0.72628  0.32391  0.34487  1.0000
  H   H669      1.0  0.58897  0.40634  0.60348  1.0000
  H   H670      1.0  0.58408  0.27618  0.36273  1.0000
  H   H671      1.0  0.00956  0.42205  0.55938  1.0000
  H   H672      1.0  0.68499  0.31897  0.38655  1.0000
  H   H673      1.0  0.61923  0.23145  0.62218  1.0000
  C   C568      1.0  0.69223  0.23516  0.36506  1.0000
  H   H674      1.0  0.98573  0.43664  0.36033  1.0000
  S   S156      1.0  0.62178  0.03201  0.58326  1.0000
  N   N39       1.0  0.71823  0.30096  0.36888  1.0000
  C   C569      1.0  0.70758  0.31558  0.39178  1.0000
  C   C570      1.0  0.73196  0.16797  0.37853  1.0000
  C   C571      1.0  0.62034  0.33214  0.63054  1.0000
  H   H675      1.0  0.99635  0.39176  0.42314  1.0000
  C   C572      1.0  0.00852  0.42998  0.47832  1.0000
  C   C573      1.0  0.75184  0.35016  0.61877  1.0000
  H   H676      1.0  0.58806  0.40584  0.39141  1.0000
  H   H677      1.0  0.64882  0.19641  0.62429  1.0000
  C   C574      1.0  0.57928  0.06859  0.46738  1.0000
  C   C575      1.0  0.69923  0.23894  0.61216  1.0000
  H   H678      1.0  0.56811  0.07332  0.44966  1.0000
  H   H679      1.0  0.64964  0.06232  0.48717  1.0000
  H   H680      1.0  0.68250  0.33997  0.58206  1.0000
  C   C576      1.0  0.83129  0.30785  0.34868  1.0000
  H   H681      1.0  0.59943  0.38316  0.62750  1.0000
  H   H682      1.0  0.54092  0.40309  0.36485  1.0000
  H   H683      1.0  0.69157  0.35009  0.61794  1.0000
  S   S157      1.0  0.55616  0.05465  0.54761  1.0000
  H   H684      1.0  0.69624  0.08384  0.66154  1.0000
  H   H685      1.0  0.60382  0.22424  0.34019  1.0000
  N   N40       1.0  0.58973  0.18877  0.44348  1.0000
  H   H686      1.0  0.57610  0.22455  0.48290  1.0000
  C   C577      1.0  0.66412  0.20211  0.35879  1.0000
  H   H687      1.0  0.62193  0.16580  0.43435  1.0000
  H   H688      1.0  0.54549  0.35158  0.58629  1.0000
  C   C578      1.0  0.57256  0.19646  0.51854  1.0000
  H   H689      1.0  0.00306  0.37660  0.39099  1.0000
  C   C579      1.0  0.53498  0.35321  0.65487  1.0000
  C   C580      1.0  0.70289  0.14287  0.33599  1.0000
  C   C581      1.0  0.63453  0.34858  0.65546  1.0000
  H   H690      1.0  0.53402  0.15928  0.43628  1.0000
  H   H691      1.0  0.65596  0.37524  0.65578  1.0000
  H   H692      1.0  0.54278  0.45949  0.42221  1.0000
  H   H693      1.0  0.53864  0.06509  0.49418  1.0000
  S   S158      1.0  0.53672  0.03752  0.40305  1.0000
  C   C582      1.0  0.53215  0.14000  0.34989  1.0000
  H   H694      1.0  0.01619  0.37089  0.55945  1.0000
  H   H695      1.0  0.53313  0.40046  0.60116  1.0000
  S   S159      1.0  0.53151  0.04100  0.33684  1.0000
  C   C583      1.0  0.75528  0.19975  0.33647  1.0000
  H   H696      1.0  0.73694  0.20266  0.92457  1.0000
  Fe  Fe79      1.0  0.81806  0.29747  0.75898  1.0000
  S   S160      1.0  0.83669  0.25894  0.75760  1.0000
  S   S161      1.0  0.80373  0.31078  0.79998  1.0000
  Fe  Fe80      1.0  0.87387  0.29305  0.72513  1.0000
  S   S162      1.0  0.92907  0.30177  0.72491  1.0000
  Fe  Fe81      1.0  0.79774  0.23394  0.72447  1.0000
  S   S163      1.0  0.76113  0.17648  0.72718  1.0000
  S   S164      1.0  0.85794  0.33376  0.72851  1.0000
  S   S165      1.0  0.77620  0.26989  0.72741  1.0000
  S   S166      1.0  0.55982  0.06168  0.68545  1.0000
  Fe  Fe82      1.0  0.59709  0.05768  0.83553  1.0000
  S   S167      1.0  0.63270  0.07346  0.79873  1.0000
  Fe  Fe83      1.0  0.59696  0.05413  0.89748  1.0000
  S   S168      1.0  0.62955  0.06341  0.93482  1.0000
  C   C584      1.0  0.54539  0.38576  0.86694  1.0000
  H   H697      1.0  0.79163  0.36413  0.89276  1.0000
  S   S169      1.0  0.60605  0.09642  0.86841  1.0000
  C   C585      1.0  0.60274  0.39153  0.87068  1.0000
  H   H698      1.0  0.54404  0.45445  0.91887  1.0000
  Fe  Fe84      1.0  0.80846  0.31657  0.95963  1.0000
  S   S170      1.0  0.79417  0.26093  0.96348  1.0000
  S   S171      1.0  0.76386  0.32210  0.94461  1.0000
  H   H699      1.0  0.76742  0.39310  0.82856  1.0000
  Fe  Fe85      1.0  0.84384  0.27826  0.93991  1.0000
  S   S172      1.0  0.84565  0.25176  0.90148  1.0000
  C   C586      1.0  0.60854  0.06287  0.96547  1.0000
  S   S173      1.0  0.85645  0.33324  0.93421  1.0000
  C   C587      1.0  0.78873  0.37165  0.87182  1.0000
  H   H700      1.0  0.58378  0.28166  0.69788  1.0000
  H   H701      1.0  0.56785  0.24666  0.90823  1.0000
  C   C588      1.0  0.02553  0.38851  0.72614  1.0000
  H   H702      1.0  0.58091  0.13730  0.95400  1.0000
  C   C589      1.0  0.58041  0.06915  0.96604  1.0000
  H   H703      1.0  0.70419  0.21875  0.68812  1.0000
  C   C590      1.0  0.97162  0.35678  0.96970  1.0000
  C   C591      1.0  0.00150  0.35318  0.96857  1.0000
  H   H704      1.0  0.94677  0.33585  0.96266  1.0000
  C   C592      1.0  0.89752  0.22224  0.69111  1.0000
  H   H705      1.0  0.56240  0.43813  0.78802  1.0000
  C   C593      1.0  0.54091  0.32147  0.94473  1.0000
  H   H706      1.0  0.57501  0.20079  0.94994  1.0000
  C   C594      1.0  0.58084  0.06545  0.71666  1.0000
  C   C595      1.0  0.61408  0.06860  0.71786  1.0000
  C   C596      1.0  0.62990  0.07121  0.74313  1.0000
  C   C597      1.0  0.61258  0.07068  0.76730  1.0000
  C   C598      1.0  0.57974  0.06833  0.76604  1.0000
  C   C599      1.0  0.56389  0.06562  0.74083  1.0000
  H   H707      1.0  0.62801  0.06975  0.69943  1.0000
  H   H708      1.0  0.65561  0.07362  0.74391  1.0000
  H   H709      1.0  0.56660  0.06898  0.78442  1.0000
  C   C600      1.0  0.74606  0.38986  0.88176  1.0000
  H   H710      1.0  0.68075  0.34804  0.98892  1.0000
  C   C601      1.0  0.73235  0.43596  0.91285  1.0000
  S   S174      1.0  0.56052  0.27560  0.81444  1.0000
  H   H711      1.0  0.57118  0.07446  0.94743  1.0000
  C   C602      1.0  0.81635  0.29534  0.82831  1.0000
  C   C603      1.0  0.84260  0.28644  0.82605  1.0000
  C   C604      1.0  0.85100  0.27244  0.84837  1.0000
  C   C605      1.0  0.83421  0.26854  0.87347  1.0000
  C   C606      1.0  0.80844  0.27814  0.87599  1.0000
  C   C607      1.0  0.79923  0.29103  0.85338  1.0000
  H   H712      1.0  0.85719  0.29115  0.80735  1.0000
  H   H713      1.0  0.87129  0.26556  0.84639  1.0000
  H   H714      1.0  0.79527  0.27513  0.89529  1.0000
  H   H715      1.0  0.77849  0.29716  0.85527  1.0000
  C   C608      1.0  0.74340  0.16043  0.69521  1.0000
  C   C609      1.0  0.72333  0.12454  0.69096  1.0000
  C   C610      1.0  0.74987  0.18340  0.67377  1.0000
  H   H716      1.0  0.71826  0.10674  0.70758  1.0000
  C   C611      1.0  0.70567  0.26657  0.68223  1.0000
  H   H717      1.0  0.63535  0.16261  0.76346  1.0000
  C   C612      1.0  0.96319  0.34546  0.72315  1.0000
  H   H718      1.0  0.68636  0.14306  0.93141  1.0000
  H   H719      1.0  0.92944  0.36602  0.71385  1.0000
  H   H720      1.0  0.55041  0.14279  0.93372  1.0000
  H   H721      1.0  0.72689  0.25233  0.91945  1.0000
  H   H722      1.0  0.56791  0.32329  0.86347  1.0000
  C   C613      1.0  0.59716  0.19130  0.90060  1.0000
  H   H723      1.0  0.61504  0.21909  0.89535  1.0000
  C   C614      1.0  0.58981  0.27301  0.90719  1.0000
  H   H724      1.0  0.80849  0.39968  0.86905  1.0000
  H   H725      1.0  0.01382  0.35330  0.89123  1.0000
  H   H726      1.0  0.59937  0.17496  0.88429  1.0000
  H   H727      1.0  0.55439  0.41131  0.87692  1.0000
  H   H728      1.0  0.72883  0.32527  0.89733  1.0000
  C   C615      1.0  0.72688  0.32901  0.87524  1.0000
  C   C616      1.0  0.02074  0.39493  0.84696  1.0000
  H   H729      1.0  0.00379  0.33320  0.73147  1.0000
  C   C617      1.0  0.99806  0.35372  0.72724  1.0000
  H   H730      1.0  0.72182  0.35875  0.83059  1.0000
  H   H731      1.0  0.62972  0.19936  0.76045  1.0000
  S   S175      1.0  0.83665  0.26338  0.69135  1.0000
  H   H732      1.0  0.57623  0.12722  0.91795  1.0000
  N   N41       1.0  0.64505  0.18443  0.72305  1.0000
  C   C618      1.0  0.60789  0.16270  0.71453  1.0000
  C   C619      1.0  0.66363  0.16522  0.71589  1.0000
  C   C620      1.0  0.64598  0.18822  0.75306  1.0000
  C   C621      1.0  0.66068  0.21923  0.71025  1.0000
  C   C622      1.0  0.53913  0.41486  0.79502  1.0000
  C   C623      1.0  0.69097  0.23304  0.69313  1.0000
  C   C624      1.0  0.75188  0.39392  0.91019  1.0000
  H   H733      1.0  0.54911  0.39130  0.84483  1.0000
  C   C625      1.0  0.55902  0.36104  0.90561  1.0000
  H   H734      1.0  0.00112  0.39989  0.89966  1.0000
  H   H735      1.0  0.59557  0.13601  0.72320  1.0000
  H   H736      1.0  0.65162  0.13955  0.72620  1.0000
  H   H737      1.0  0.60852  0.39584  0.84849  1.0000
  C   C626      1.0  0.56733  0.38857  0.92432  1.0000
  S   S176      1.0  0.64934  0.34275  0.84864  1.0000
  C   C627      1.0  0.55995  0.36152  0.67594  1.0000
  H   H738      1.0  0.69162  0.17966  0.72230  1.0000
  C   C628      1.0  0.75180  0.34285  0.96897  1.0000
  Fe  Fe86      1.0  0.88493  0.34347  0.97374  1.0000
  H   H739      1.0  0.62707  0.13263  0.93309  1.0000
  H   H740      1.0  0.56892  0.40390  0.96624  1.0000
  C   C629      1.0  0.95602  0.37209  0.71758  1.0000
  N   N42       1.0  0.72000  0.18042  0.81308  1.0000
  C   C630      1.0  0.75843  0.20558  0.81323  1.0000
  C   C631      1.0  0.71283  0.15428  0.83463  1.0000
  C   C632      1.0  0.71106  0.16262  0.78637  1.0000
  C   C633      1.0  0.69835  0.19704  0.81743  1.0000
  C   C634      1.0  0.66178  0.17649  0.82287  1.0000
  C   C635      1.0  0.71213  0.23349  0.81468  1.0000
  C   C636      1.0  0.64083  0.19168  0.82656  1.0000
  C   C637      1.0  0.69073  0.24831  0.81773  1.0000
  C   C638      1.0  0.65516  0.22746  0.82380  1.0000
  H   H741      1.0  0.76657  0.22075  0.83252  1.0000
  H   H742      1.0  0.77415  0.19232  0.81119  1.0000
  H   H743      1.0  0.76689  0.22402  0.79582  1.0000
  H   H744      1.0  0.73114  0.14384  0.83329  1.0000
  H   H745      1.0  0.68617  0.13096  0.83308  1.0000
  H   H746      1.0  0.71556  0.16584  0.85524  1.0000
  H   H747      1.0  0.71720  0.18151  0.76958  1.0000
  H   H748      1.0  0.72605  0.14893  0.78230  1.0000
  H   H749      1.0  0.68274  0.14273  0.78496  1.0000
  H   H750      1.0  0.64887  0.14840  0.82381  1.0000
  H   H751      1.0  0.73931  0.25111  0.80981  1.0000
  H   H752      1.0  0.61316  0.17552  0.83117  1.0000
  H   H753      1.0  0.70181  0.27613  0.81506  1.0000
  H   H754      1.0  0.63848  0.23890  0.82591  1.0000
  S   S177      1.0  0.55519  0.28108  0.74842  1.0000
  H   H755      1.0  0.81827  0.15574  0.71147  1.0000
  H   H756      1.0  0.74915  0.41851  0.94730  1.0000
  S   S178      1.0  0.93666  0.39182  0.98266  1.0000
  H   H757      1.0  0.61829  0.38005  0.87869  1.0000
  C   C639      1.0  0.71759  0.33708  0.96905  1.0000
  S   S179      1.0  0.60224  0.35252  0.78467  1.0000
  H   H758      1.0  0.64928  0.29035  0.70867  1.0000
  C   C640      1.0  0.74921  0.36651  0.83645  1.0000
  C   C641      1.0  0.60396  0.28801  0.88176  1.0000
  H   H759      1.0  0.89276  0.16320  0.67023  1.0000
  H   H760      1.0  0.99936  0.32928  0.96094  1.0000
  H   H761      1.0  0.55627  0.34273  0.83705  1.0000
  Fe  Fe87      1.0  0.61569  0.31990  0.81129  1.0000
  S   S180      1.0  0.87648  0.28940  0.97759  1.0000
  H   H762      1.0  0.56988  0.18682  0.89974  1.0000
  H   H763      1.0  0.83277  0.20107  0.71124  1.0000
  H   H764      1.0  0.91111  0.22454  0.71069  1.0000
  C   C642      1.0  0.01813  0.41510  0.72092  1.0000
  Fe  Fe88      1.0  0.81807  0.30166  0.69651  1.0000
  H   H765      1.0  0.66811  0.36730  0.90337  1.0000
  H   H766      1.0  0.69891  0.32021  0.95399  1.0000
  H   H767      1.0  0.56410  0.13742  0.77843  1.0000
  H   H768      1.0  0.73087  0.30922  0.86436  1.0000
  C   C643      1.0  0.71052  0.11159  0.66499  1.0000
  C   C644      1.0  0.69059  0.28707  0.68778  1.0000
  C   C645      1.0  0.55528  0.14449  0.79671  1.0000
  S   S181      1.0  0.53885  0.03176  0.90055  1.0000
  C   C646      1.0  0.97414  0.38753  0.97956  1.0000
  Fe  Fe89      1.0  0.54782  0.30642  0.78541  1.0000
  H   H769      1.0  0.54019  0.30479  0.90433  1.0000
  H   H770      1.0  0.66742  0.24343  0.92060  1.0000
  N   N43       1.0  0.60492  0.18213  0.92759  1.0000
  Fe  Fe90      1.0  0.57412  0.25519  0.77719  1.0000
  H   H771      1.0  0.61307  0.41754  0.88027  1.0000
  S   S182      1.0  0.56578  0.20178  0.76873  1.0000
  C   C647      1.0  0.64089  0.18722  0.92730  1.0000
  C   C648      1.0  0.64772  0.15928  0.93028  1.0000
  C   C649      1.0  0.67048  0.22093  0.92326  1.0000
  C   C650      1.0  0.68198  0.16494  0.92933  1.0000
  C   C651      1.0  0.70466  0.22631  0.92243  1.0000
  C   C652      1.0  0.71040  0.19837  0.92542  1.0000
  H   H772      1.0  0.70220  0.31317  0.67964  1.0000
  H   H773      1.0  0.85396  0.13409  0.68915  1.0000
  H   H774      1.0  0.54948  0.10078  0.81949  1.0000
  H   H775      1.0  0.67326  0.20571  0.76024  1.0000
  N   N44       1.0  0.75262  0.36485  0.86636  1.0000
  C   C653      1.0  0.72637  0.43274  0.88492  1.0000
  C   C654      1.0  0.98338  0.40680  0.71655  1.0000
  S   S183      1.0  0.58460  0.27286  0.96275  1.0000
  H   H776      1.0  0.89270  0.16420  0.70681  1.0000
  C   C655      1.0  0.57714  0.14579  0.93369  1.0000
  Fe  Fe91      1.0  0.54746  0.07117  0.86878  1.0000
  C   C656      1.0  0.64592  0.24081  0.71524  1.0000
  S   S184      1.0  0.63854  0.35277  0.71088  1.0000
  H   H777      1.0  0.59323  0.27293  0.86346  1.0000
  S   S185      1.0  0.63052  0.29756  0.77598  1.0000
  H   H778      1.0  0.99497  0.38425  0.80800  1.0000
  C   C657      1.0  0.55286  0.17473  0.79732  1.0000
  N   N45       1.0  0.56472  0.36828  0.87611  1.0000
  C   C658      1.0  0.53520  0.38198  0.78958  1.0000
  H   H779      1.0  0.64327  0.34086  0.94798  1.0000
  C   C659      1.0  0.64627  0.34097  0.90427  1.0000
  Fe  Fe92      1.0  0.61080  0.32494  0.74945  1.0000
  H   H780      1.0  0.80549  0.13007  0.66924  1.0000
  H   H781      1.0  0.57852  0.41515  0.91754  1.0000
  H   H782      1.0  0.99611  0.37852  0.85732  1.0000
  H   H783      1.0  0.62291  0.23217  0.72802  1.0000
  C   C660      1.0  0.66076  0.27418  0.70418  1.0000
  C   C661      1.0  0.60347  0.29217  0.93121  1.0000
  C   C662      1.0  0.62096  0.33079  0.67995  1.0000
  C   C663      1.0  0.59375  0.29609  0.67928  1.0000
  C   C664      1.0  0.63201  0.32608  0.92965  1.0000
  H   H784      1.0  0.97752  0.42724  0.71236  1.0000
  H   H785      1.0  0.72655  0.40784  0.84818  1.0000
  C   C665      1.0  0.63193  0.32229  0.88020  1.0000
  H   H786      1.0  0.72686  0.45328  0.92482  1.0000
  C   C666      1.0  0.56198  0.38247  0.95224  1.0000
  H   H787      1.0  0.66251  0.15980  0.69368  1.0000
  C   C667      1.0  0.73284  0.40990  0.86951  1.0000
  C   C668      1.0  0.54108  0.18347  0.82093  1.0000
  H   H788      1.0  0.55513  0.37999  0.77806  1.0000
  H   H789      1.0  0.61930  0.23307  0.94403  1.0000
  H   H790      1.0  0.79646  0.35666  0.85797  1.0000
  C   C669      1.0  0.74497  0.41646  0.92548  1.0000
  C   C670      1.0  0.55269  0.33653  0.85915  1.0000
  H   H791      1.0  0.71605  0.44754  0.87519  1.0000
  H   H792      1.0  0.75569  0.34839  0.82541  1.0000
  H   H793      1.0  0.76148  0.37930  0.92091  1.0000
  H   H794      1.0  0.59118  0.17355  0.72152  1.0000
  C   C671      1.0  0.60216  0.20492  0.94850  1.0000
  H   H795      1.0  0.60929  0.19995  0.96895  1.0000
  C   C672      1.0  0.54972  0.34622  0.70163  1.0000
  H   H796      1.0  0.69949  0.32307  0.87151  1.0000
  H   H797      1.0  0.71725  0.26236  0.98015  1.0000
  H   H798      1.0  0.89099  0.24339  0.69158  1.0000
  C   C673      1.0  0.54607  0.32722  0.91672  1.0000
  C   C674      1.0  0.53216  0.16232  0.84402  1.0000
  H   H799      1.0  0.91700  0.22784  0.67455  1.0000
  N   N46       1.0  0.86552  0.18756  0.68774  1.0000
  C   C675      1.0  0.77604  0.36516  0.98815  1.0000
  H   H800      1.0  0.56937  0.35250  0.71722  1.0000
  H   H801      1.0  0.54482  0.34443  0.98410  1.0000
  C   C676      1.0  0.54688  0.12363  0.81995  1.0000
  H   H802      1.0  0.85571  0.18527  0.73104  1.0000
  C   C677      1.0  0.53540  0.13257  0.84365  1.0000
  C   C678      1.0  0.84212  0.18204  0.71135  1.0000
  C   C679      1.0  0.01978  0.39787  0.81871  1.0000
  H   H803      1.0  0.53841  0.06376  0.74011  1.0000
  H   H804      1.0  0.76484  0.21112  0.67722  1.0000
  S   S186      1.0  0.59435  0.01765  0.86463  1.0000
  C   C680      1.0  0.54857  0.34895  0.96240  1.0000
  C   C681      1.0  0.87666  0.16109  0.68848  1.0000
  H   H805      1.0  0.72925  0.27694  0.66974  1.0000
  H   H806      1.0  0.53160  0.29559  0.95287  1.0000
  H   H807      1.0  0.60570  0.15995  0.69203  1.0000
  H   H808      1.0  0.53809  0.20606  0.82130  1.0000
  H   H809      1.0  0.80288  0.37070  0.98743  1.0000
  H   H810      1.0  0.58773  0.37924  0.67308  1.0000
  S   S187      1.0  0.53873  0.03511  0.83382  1.0000
  C   C682      1.0  0.70728  0.35284  0.98888  1.0000
  C   C683      1.0  0.00683  0.41494  0.98781  1.0000
  H   H811      1.0  0.70238  0.15571  0.99379  1.0000
  H   H812      1.0  0.54261  0.07388  0.99124  1.0000
  C   C684      1.0  0.62042  0.05629  0.98975  1.0000
  H   H813      1.0  0.64203  0.05117  0.98942  1.0000
  C   C685      1.0  0.56435  0.06897  0.99087  1.0000
  C   C686      1.0  0.69885  0.24438  0.99505  1.0000
  C   C687      1.0  0.84642  0.18404  0.66217  1.0000
  S   S188      1.0  0.54445  0.01424  0.11729  1.0000
  H   H814      1.0  0.60997  0.97713  0.22474  1.0000
  S   S189      1.0  0.58667  0.95363  0.12479  1.0000
  H   H815      1.0  0.58958  0.00020  0.25834  1.0000
  H   H816      1.0  0.56775  0.88230  0.13129  1.0000
  H   H817      1.0  0.60419  0.01275  0.21343  1.0000
  C   C688      1.0  0.54540  0.98146  0.28429  1.0000
  Fe  Fe93      1.0  0.59065  0.00611  0.12038  1.0000
  C   C689      1.0  0.59667  0.98511  0.20966  1.0000
  C   C690      1.0  0.54562  0.91598  0.13084  1.0000
  H   H818      1.0  0.56094  0.99826  0.30085  1.0000
  H   H819      1.0  0.56845  0.91765  0.99793  1.0000
  H   H820      1.0  0.60785  0.98459  0.18932  1.0000
  C   C691      1.0  0.54188  0.96128  0.23718  1.0000
  C   C692      1.0  0.56163  0.98228  0.25953  1.0000
  C   C693      1.0  0.56269  0.93525  0.03689  1.0000
  C   C694      1.0  0.54415  0.88390  0.13397  1.0000
  N   N47       1.0  0.55791  0.96184  0.21047  1.0000
  H   H821      1.0  0.53139  0.67507  0.26111  1.0000
  C   C695      1.0  0.53420  0.97066  0.01012  1.0000
  H   H822      1.0  0.55396  0.95621  0.07372  1.0000
  C   C696      1.0  0.55155  0.95475  0.05177  1.0000
  C   C697      1.0  0.55950  0.93317  0.00857  1.0000
  H   H823      1.0  0.57377  0.92164  0.04748  1.0000
  H   H824      1.0  0.56490  0.92627  0.18457  1.0000
  H   H825      1.0  0.55279  0.67474  0.22982  1.0000
  H   H826      1.0  0.55821  0.91465  0.21983  1.0000
  H   H827      1.0  0.54628  0.00006  0.19486  1.0000
  C   C698      1.0  0.53740  0.97242  0.03843  1.0000
  H   H828      1.0  0.55552  0.97673  0.16927  1.0000
  H   H829      1.0  0.52902  0.98781  0.05011  1.0000
  H   H830      1.0  0.53909  0.61442  0.24587  1.0000
  C   C699      1.0  0.54278  0.97414  0.18942  1.0000
  C   C700      1.0  0.55036  0.92622  0.20324  1.0000
  H   H831      1.0  0.52950  0.87879  0.30330  1.0000
  H   H832      1.0  0.54677  0.97496  0.42444  1.0000
  C   C701      1.0  0.53906  0.88154  0.64667  1.0000
  Fe  Fe94      1.0  0.59290  0.99702  0.61841  1.0000
  H   H833      1.0  0.54784  0.85120  0.52002  1.0000
  H   H834      1.0  0.57534  0.99755  0.45223  1.0000
  H   H835      1.0  0.55508  0.95311  0.37940  1.0000
  H   H836      1.0  0.56200  0.88030  0.65273  1.0000
  H   H837      1.0  0.54681  0.87326  0.56095  1.0000
  S   S190      1.0  0.58546  0.94335  0.62299  1.0000
  H   H838      1.0  0.56741  0.92456  0.47785  1.0000
  H   H839      1.0  0.57054  0.95719  0.44038  1.0000
  C   C702      1.0  0.55601  0.97125  0.44446  1.0000
  H   H840      1.0  0.54422  0.97967  0.55713  1.0000
  H   H841      1.0  0.57007  0.91061  0.39771  1.0000
  H   H842      1.0  0.53369  0.84637  0.47170  1.0000
  C   C703      1.0  0.54315  0.91054  0.63235  1.0000
  H   H843      1.0  0.58009  0.95145  0.56223  1.0000
  C   C704      1.0  0.53454  0.92671  0.38280  1.0000
  C   C705      1.0  0.56144  0.93643  0.49477  1.0000
  H   H844      1.0  0.59186  0.92451  0.52230  1.0000
  C   C706      1.0  0.56894  0.95136  0.54261  1.0000
  C   C707      1.0  0.57541  0.93610  0.52014  1.0000
  C   C708      1.0  0.54068  0.95236  0.49113  1.0000
  C   C709      1.0  0.54868  0.96717  0.53974  1.0000
  C   C710      1.0  0.53480  0.96790  0.51445  1.0000
  H   H845      1.0  0.55241  0.82122  0.55733  1.0000
  C   C711      1.0  0.54301  0.90254  0.39312  1.0000
  S   S191      1.0  0.54865  0.00831  0.61837  1.0000
  Fe  Fe95      1.0  0.53089  0.00343  0.36738  1.0000
  H   H846      1.0  0.53195  0.80483  0.58963  1.0000
  C   C712      1.0  0.57167  0.97996  0.77934  1.0000
  C   C713      1.0  0.56503  0.97694  0.75141  1.0000
  H   H847      1.0  0.56109  0.94719  0.87547  1.0000
  H   H848      1.0  0.57653  0.90382  0.89109  1.0000
  H   H849      1.0  0.59829  0.99617  0.78670  1.0000
  H   H850      1.0  0.54661  0.96648  0.67210  1.0000
  C   C714      1.0  0.54924  0.89633  0.88834  1.0000
  N   N48       1.0  0.54121  0.94736  0.96435  1.0000
  H   H851      1.0  0.56887  0.99890  0.69729  1.0000
  H   H852      1.0  0.57119  0.95926  0.69727  1.0000
  H   H853      1.0  0.58753  0.99135  0.73829  1.0000
  H   H854      1.0  0.54939  0.96603  0.81953  1.0000
  S   S192      1.0  0.53511  0.83150  0.90248  1.0000
  H   H855      1.0  0.54224  0.67002  0.73465  1.0000
  H   H856      1.0  0.53868  0.86996  0.80271  1.0000
  H   H857      1.0  0.58969  0.94704  0.95713  1.0000
  C   C715      1.0  0.54418  0.96319  0.79790  1.0000
  H   H858      1.0  0.59395  0.98941  0.95769  1.0000
  H   H859      1.0  0.57488  0.96121  0.92894  1.0000
  C   C716      1.0  0.57641  0.96178  0.95153  1.0000
  C   C717      1.0  0.55365  0.97026  0.69404  1.0000
  H   H860      1.0  0.53375  0.85746  0.83779  1.0000
  H   H861      1.0  0.53824  0.81210  0.79625  1.0000
  H   H862      1.0  0.53274  0.89488  0.96103  1.0000
  C   C718      1.0  0.54053  0.92096  0.87947  1.0000
  H   H863      1.0  0.54014  0.99457  0.95635  1.0000
  Fe  Fe96      1.0  0.53641  0.99804  0.86558  1.0000
  C   C719      1.0  0.54493  0.95064  0.99430  1.0000
  C   C720      1.0  0.53028  0.95671  0.74126  1.0000
  H   H864      1.0  0.52891  0.80351  0.83174  1.0000
