data_image0
_chemical_formula_structural       SFeS2FeS2FeSFeS3C4NFeS2CHSHC6H5C4H3C2FeH4CH3C6H4CFeHSH2NHC6HCH2CHCHCH3CH5CHCH2NH2CHCNHCH2CH5CSH2CNH3C3H3CH2C2HCHC3H5CH2C2H5CHFe2SNCSFeSFeS3FeCSHS2H2CH4SH4CNH4C2FeH2CHSHC6H4CSHSCH2SHCFeHC3HNC9H5CHCFeCH3C2SCHC2HCHCH5CH2FeH4CHCSC2HCH4C3HC2H2CSCHCHFeH2CH4C3HCHC3FeS2FeCHFeSFeCS2HSHCHFeSHSNFeSHFeS2FeSFeS3FeS2FeS2FeSFeS3FeS2C3SH2C6H4NC2H5CHCHCHC3H4SC6H4C7H4C2HC6H4NC5H11CHCHCH4CHC3H3C3NC9H15CHCHCNC9H13C3SH2SCH2CH3CH2CH4C3SC3H2SC2HC2HNH4NH3CH3SCH2CH3C2HC4NHC3HCHC2H2C9HFeSC2FeS2FeS2Fe2S3CS2FeS2FeS2FeSFeS3CHC3H2CH6CH2C6H4C6H5CH2C2H2CH6C3H2CH4C2H2NC8H2CH5FeH2FeHCHSCSHC2HCH2CH10C2NH3C2HCHNHCH2CHCHCH4C2H2SH2CNCSC2HCH2CH2NC6H2CH11C3HCHSCHFeC2H2C3H5C4H3C2HNCH4CH2NH7C4H5CHCHSH2Fe2S2H2SHC6H4CHS2CH2NHC3HC2H2FeH3CS2H2C3H4CH2CFeSFeS2HCS2CHCHFeCH2C6H2NH2CHCFeH2CHC4SH2CH2CH4C3H2C3H3CH4CFeCHCHSHFeS2FeS2FeSFeS3HS2CHSHCH3NCHCHSCH3C6H4C6H5C4H2C4H5C4H2C2H2CH2CHFeHCHCHNCH4CHCH2CHNC9HCH5CH6CNH2CHCH2CH5C4HCH2CNC2H4SCFeH2FeH2CSHC2H4CH2C2H2CSFeS2FeS2FeSFeS3H2CFeCHFeSHFeSHCHSH2C2H2C3HCH3C7H4C3H4C6H8CNH2CHC5HCHCH2C3H3CH2CSC2HCH2SC3HC2HCH2SH3NH2CHCNSH2CHCH2SC3HCHCHCH3CSFeSFeS2FeSFeS3FeHSHCSH2SH4CHCHSHCHCNHC2SCH2C4HSC2H2C2H4C6H4CH2CHFeC4HCHSHCH2CFeH3C2HNH3CHC4FeCH4C2H2CH2NSHCH2CHFeH3CSHCHCH3CHCH2SH2C3HFeHCNH3C2FeH2SHNHCHC2H2C2SHCH2CFeSCFeSHSFeS2FeS2FeSFeS3HC6H2C2HSH2C6H5CHSH3NC7H9CHCHNC2H2C3H3CFeH2C2NC4HC2H3CH8C2H2C2SHC2H4CH3SCFeCH4SCFeCHCFeSCHCHCHCHCH4CSCSHC4HC2H4CH2C3H3CH3C2HCHC2SCHCH3SH2NCHSH6CH2SCH2C2HC3NC2HCH5C2HC4HFeCHFeS3CFeHS3FeSHC2HSC2HCHC2SH2C2H4CH3C6H4FeH4FeC2H2CHC6H3CH3CHCH3C3HCNH2SHFeC2H6NHCHCNCSH2C2H2CHCHSC3HCHFeCSC2H2FeS2FeHFeHS2HSFeS2FeS2Fe2S3FeS2FeS2FeSFeS4FeSCFeHSFeH2S2H2C6H4C3H2CH3C2H4C6H4C7H4C3HC6H3CH2C2HCH2NC3H3C3HC2HCHC2NC9H6FeCH9CNHCHCHNH3C2SCHCH2FeSNSNCHC4HSH3CH2SH4CHCH2CH2NHSH2C3H3CHC2SHC3HC2H2C2H2CH2CH2C3HC3HCH4NC3HCSHC2HCH2CH2CH4C2NHC2H3CH8CH2C2HC2SH2CNSH3CHCHFeSC2HFeH3FeH3CHCSHC2HCH3CHCHCH2C5FeSCHSFeS2FeHSFeHFeS3FeHSFeS2FeS2FeS2FeSNS2FeS2FeS2FeSFeS3CHC5H2FeC6H4C5H2C6H5C6H4C3HC2NH3C6H6C5H2C2HFeNFeH2C2HCSH5C2HNC8H12CHC4H8CH2NC9H10CH2C2NHCHC2HSH6C2HC3H3CSH3SCHCNH2CHSHCS2HCH6C3H2CHCH5CNH3C4SHCHFeC3H5SCH2C3H2CHCH4CSC3H2C2HCH3CHFeS2FeS2FeSFeS3H2SH3CH2SC4SHCHCHCHC9H2SHC2H3SHC6H3FeC3H10FeHC2SHSHNHNC2FeHC2SCNC8H9C2H4CH4SC3NHCHSCFeS2FeS2FeSFeS3CSHC6H4C6H7CNCH2CHC4H2NHCHC2HCH2CH4C2NHC2HNH5C2H4C3HCH2CH6C2HC2HC3FeCFeHC2HC2HCH3CHCH5CHCHCH2C3H5CH2C2
_chemical_formula_sum              "S288 Fe144 C1080 N72 H1296"
_cell_length_a       71.9895
_cell_length_b       74.227
_cell_length_c       31.8984
_cell_angle_alpha    88.9895
_cell_angle_beta     91.2849
_cell_angle_gamma    112.133

_space_group_name_H-M_alt    "P 1"
_space_group_IT_number       1

loop_
  _space_group_symop_operation_xyz
  'x, y, z'

loop_
  _atom_site_type_symbol
  _atom_site_label
  _atom_site_symmetry_multiplicity
  _atom_site_fract_x
  _atom_site_fract_y
  _atom_site_fract_z
  _atom_site_occupancy
  S   S1        1.0  0.24811  0.03784  0.48278  1.0000
  Fe  Fe1       1.0  0.29703  0.07253  0.26470  1.0000
  S   S2        1.0  0.26588  0.06144  0.23643  1.0000
  S   S3        1.0  0.30502  0.08069  0.33287  1.0000
  Fe  Fe2       1.0  0.31665  0.07184  0.18021  1.0000
  S   S4        1.0  0.28707  0.06096  0.14652  1.0000
  S   S5        1.0  0.34598  0.08000  0.14595  1.0000
  Fe  Fe3       1.0  0.27981  0.08286  0.18382  1.0000
  S   S6        1.0  0.26475  0.10134  0.15005  1.0000
  Fe  Fe4       1.0  0.27646  0.04090  0.20204  1.0000
  S   S7        1.0  0.26208  0.00883  0.18835  1.0000
  S   S8        1.0  0.31025  0.09516  0.21437  1.0000
  S   S9        1.0  0.30672  0.05060  0.23373  1.0000
  C   C1        1.0  0.41495  0.04975  0.05963  1.0000
  C   C2        1.0  0.31510  0.09856  0.04550  1.0000
  C   C3        1.0  0.29367  0.99139  0.34168  1.0000
  C   C4        1.0  0.45967  0.02845  0.10115  1.0000
  N   N1        1.0  0.31494  0.01665  0.44582  1.0000
  Fe  Fe5       1.0  0.29029  0.21629  0.10420  1.0000
  S   S10       1.0  0.30237  0.19390  0.13041  1.0000
  S   S11       1.0  0.25965  0.21216  0.07792  1.0000
  C   C5        1.0  0.39028  0.01859  0.07730  1.0000
  H   H1        1.0  0.28326  0.00357  0.28849  1.0000
  S   S12       1.0  0.37212  0.02399  0.52964  1.0000
  H   H2        1.0  0.22424  0.14316  0.19545  1.0000
  C   C6        1.0  0.27537  0.12708  0.14472  1.0000
  C   C7        1.0  0.26532  0.13658  0.12005  1.0000
  C   C8        1.0  0.27329  0.15700  0.11515  1.0000
  C   C9        1.0  0.29144  0.16814  0.13503  1.0000
  C   C10       1.0  0.30154  0.15860  0.15939  1.0000
  C   C11       1.0  0.29353  0.13822  0.16442  1.0000
  H   H3        1.0  0.25128  0.12808  0.10459  1.0000
  H   H4        1.0  0.26551  0.16407  0.09569  1.0000
  H   H5        1.0  0.31556  0.16706  0.17495  1.0000
  H   H6        1.0  0.30126  0.13118  0.18410  1.0000
  H   H7        1.0  0.32416  0.12884  0.12876  1.0000
  C   C12       1.0  0.43650  0.99530  0.09380  1.0000
  C   C13       1.0  0.36732  0.07960  0.07728  1.0000
  C   C14       1.0  0.35048  0.06882  0.10069  1.0000
  C   C15       1.0  0.33859  0.04981  0.08806  1.0000
  H   H8        1.0  0.33475  0.02707  0.04270  1.0000
  H   H9        1.0  0.37663  0.09420  0.08678  1.0000
  H   H10       1.0  0.32557  0.04132  0.10603  1.0000
  C   C16       1.0  0.26084  0.09640  0.49424  1.0000
  C   C17       1.0  0.25384  0.15009  0.51147  1.0000
  Fe  Fe6       1.0  0.36079  0.99137  0.53119  1.0000
  H   H11       1.0  0.26592  0.19980  0.26141  1.0000
  H   H12       1.0  0.24183  0.03609  0.39354  1.0000
  H   H13       1.0  0.22691  0.07617  0.45241  1.0000
  H   H14       1.0  0.24145  0.19574  0.15804  1.0000
  C   C18       1.0  0.45553  0.00859  0.10444  1.0000
  H   H15       1.0  0.26094  0.08177  0.48774  1.0000
  H   H16       1.0  0.26302  0.11658  0.24663  1.0000
  H   H17       1.0  0.23916  0.01252  0.26004  1.0000
  C   C19       1.0  0.26396  0.05011  0.44144  1.0000
  C   C20       1.0  0.28336  0.06361  0.44926  1.0000
  C   C21       1.0  0.29559  0.07323  0.41565  1.0000
  C   C22       1.0  0.28866  0.06921  0.37401  1.0000
  C   C23       1.0  0.26924  0.05574  0.36622  1.0000
  C   C24       1.0  0.25691  0.04632  0.39987  1.0000
  H   H18       1.0  0.28898  0.06663  0.48116  1.0000
  H   H19       1.0  0.31063  0.08361  0.42183  1.0000
  H   H20       1.0  0.26375  0.05258  0.33427  1.0000
  H   H21       1.0  0.30483  0.10525  0.12329  1.0000
  C   C25       1.0  0.29351  0.02378  0.33935  1.0000
  Fe  Fe7       1.0  0.26019  0.23488  0.12452  1.0000
  H   H22       1.0  0.22980  0.99059  0.49002  1.0000
  S   S13       1.0  0.28955  0.23739  0.15327  1.0000
  H   H23       1.0  0.33171  0.04751  0.43565  1.0000
  H   H24       1.0  0.45773  0.99784  0.35727  1.0000
  N   N2        1.0  0.24764  0.18130  0.21265  1.0000
  H   H25       1.0  0.22538  0.19322  0.22682  1.0000
  C   C26       1.0  0.26358  0.19973  0.22682  1.0000
  C   C27       1.0  0.24527  0.18292  0.16664  1.0000
  C   C28       1.0  0.25208  0.16375  0.22282  1.0000
  C   C29       1.0  0.27019  0.16463  0.24324  1.0000
  C   C30       1.0  0.22871  0.17984  0.23267  1.0000
  C   C31       1.0  0.27382  0.14772  0.25234  1.0000
  H   H26       1.0  0.28940  0.11690  0.06632  1.0000
  C   C32       1.0  0.25979  0.12958  0.24106  1.0000
  H   H27       1.0  0.29764  0.03358  0.46359  1.0000
  H   H28       1.0  0.03536  0.22978  0.36274  1.0000
  C   C33       1.0  0.30171  0.02708  0.37997  1.0000
  H   H29       1.0  0.30816  0.14054  0.06773  1.0000
  C   C34       1.0  0.28946  0.00596  0.32021  1.0000
  H   H30       1.0  0.27809  0.20221  0.21126  1.0000
  C   C35       1.0  0.30449  0.12583  0.05420  1.0000
  H   H31       1.0  0.22954  0.17780  0.26722  1.0000
  H   H32       1.0  0.25939  0.18460  0.15055  1.0000
  H   H33       1.0  0.28202  0.17819  0.25168  1.0000
  C   C36       1.0  0.23812  0.14500  0.21184  1.0000
  H   H34       1.0  0.33057  0.10797  0.12186  1.0000
  H   H35       1.0  0.32665  0.00406  0.49639  1.0000
  H   H36       1.0  0.40259  0.05395  0.04679  1.0000
  H   H37       1.0  0.42831  0.05822  0.04082  1.0000
  H   H38       1.0  0.30475  0.04121  0.39317  1.0000
  C   C37       1.0  0.30180  0.99452  0.38249  1.0000
  H   H39       1.0  0.25969  0.21259  0.21876  1.0000
  C   C38       1.0  0.29590  0.08355  0.05011  1.0000
  H   H40       1.0  0.34476  0.03194  0.42290  1.0000
  H   H41       1.0  0.21241  0.08956  0.47076  1.0000
  N   N3        1.0  0.40987  0.02845  0.05657  1.0000
  H   H42       1.0  0.41754  0.05461  0.09280  1.0000
  H   H43       1.0  0.23837  0.00341  0.42319  1.0000
  C   C39       1.0  0.42169  0.00180  0.07884  1.0000
  H   H44       1.0  0.26051  0.00108  0.40391  1.0000
  C   C40       1.0  0.30077  0.02061  0.47385  1.0000
  N   N4        1.0  0.31983  0.11761  0.06584  1.0000
  H   H45       1.0  0.34153  0.03691  0.47650  1.0000
  C   C41       1.0  0.25191  0.13186  0.49650  1.0000
  H   H46       1.0  0.25908  0.13150  0.46733  1.0000
  H   H47       1.0  0.39168  0.02105  0.11173  1.0000
  C   C42       1.0  0.31954  0.00035  0.46474  1.0000
  H   H48       1.0  0.27675  0.05379  0.03784  1.0000
  H   H49       1.0  0.29056  0.03525  0.32237  1.0000
  H   H50       1.0  0.42109  0.99016  0.50718  1.0000
  H   H51       1.0  0.26268  0.16324  0.49460  1.0000
  H   H52       1.0  0.26720  0.10534  0.46592  1.0000
  C   C43       1.0  0.24709  0.99198  0.22512  1.0000
  S   S14       1.0  0.23372  0.23222  0.16496  1.0000
  H   H53       1.0  0.21551  0.16754  0.22030  1.0000
  H   H54       1.0  0.23317  0.17002  0.15307  1.0000
  C   C44       1.0  0.42534  0.02194  0.07525  1.0000
  N   N5        1.0  0.24038  0.09545  0.50383  1.0000
  H   H55       1.0  0.23420  0.10147  0.43966  1.0000
  H   H56       1.0  0.28443  0.08569  0.06839  1.0000
  H   H57       1.0  0.30680  0.02348  0.50662  1.0000
  C   C45       1.0  0.31983  0.11482  0.11189  1.0000
  C   C46       1.0  0.22793  0.09047  0.46495  1.0000
  C   C47       1.0  0.45255  0.99497  0.50165  1.0000
  H   H58       1.0  0.33032  0.99668  0.44552  1.0000
  H   H59       1.0  0.28613  0.00808  0.47500  1.0000
  H   H60       1.0  0.46725  0.00347  0.11409  1.0000
  C   C48       1.0  0.24386  0.99425  0.40358  1.0000
  H   H61       1.0  0.03788  0.22245  0.31052  1.0000
  H   H62       1.0  0.37868  0.02398  0.06481  1.0000
  C   C49       1.0  0.30616  0.01261  0.40288  1.0000
  C   C50       1.0  0.23692  0.99738  0.25637  1.0000
  H   H63       1.0  0.23154  0.11410  0.21057  1.0000
  C   C51       1.0  0.24202  0.12823  0.22070  1.0000
  H   H64       1.0  0.28791  0.14870  0.26695  1.0000
  C   C52       1.0  0.44485  0.03515  0.08697  1.0000
  C   C53       1.0  0.33399  0.03398  0.44505  1.0000
  C   C54       1.0  0.37221  0.07180  0.04151  1.0000
  H   H65       1.0  0.38386  0.00265  0.07195  1.0000
  H   H66       1.0  0.40765  0.99085  0.06827  1.0000
  H   H67       1.0  0.23183  0.06527  0.52284  1.0000
  H   H68       1.0  0.44923  0.05070  0.08443  1.0000
  H   H69       1.0  0.27141  0.10258  0.52093  1.0000
  C   C55       1.0  0.33974  0.13232  0.05446  1.0000
  H   H70       1.0  0.10485  0.23416  0.30621  1.0000
  H   H71       1.0  0.07111  0.23253  0.28790  1.0000
  C   C56       1.0  0.03531  0.23383  0.32897  1.0000
  C   C57       1.0  0.34385  0.04171  0.05233  1.0000
  H   H72       1.0  0.34248  0.14668  0.06893  1.0000
  H   H73       1.0  0.45767  0.00995  0.51157  1.0000
  H   H74       1.0  0.35216  0.12793  0.06609  1.0000
  H   H75       1.0  0.20931  0.99256  0.16472  1.0000
  H   H76       1.0  0.01991  0.23307  0.32039  1.0000
  C   C58       1.0  0.24133  0.11450  0.51926  1.0000
  H   H77       1.0  0.23854  0.99527  0.37087  1.0000
  Fe  Fe8       1.0  0.27612  0.23750  0.03523  1.0000
  Fe  Fe9       1.0  0.25239  0.02366  0.63706  1.0000
  S   S15       1.0  0.27218  0.05118  0.66957  1.0000
  N   N6        1.0  0.40715  0.02295  0.63969  1.0000
  C   C59       1.0  0.30575  0.06113  0.01062  1.0000
  S   S16       1.0  0.27892  0.07287  0.57585  1.0000
  Fe  Fe10      1.0  0.29256  0.05550  0.61511  1.0000
  S   S17       1.0  0.32594  0.06782  0.62517  1.0000
  Fe  Fe11      1.0  0.25712  0.06682  0.62814  1.0000
  S   S18       1.0  0.24815  0.09093  0.65341  1.0000
  S   S19       1.0  0.27432  0.02725  0.58500  1.0000
  S   S20       1.0  0.23530  0.03881  0.60019  1.0000
  Fe  Fe12      1.0  0.28905  0.20650  0.65384  1.0000
  C   C60       1.0  0.43443  0.99878  0.96830  1.0000
  S   S21       1.0  0.29206  0.18201  0.61568  1.0000
  H   H78       1.0  0.21663  0.00268  0.72195  1.0000
  S   S22       1.0  0.26667  0.20134  0.70504  1.0000
  S   S23       1.0  0.28279  0.23149  0.62347  1.0000
  H   H79       1.0  0.38975  0.99307  0.69626  1.0000
  H   H80       1.0  0.99284  0.22577  0.86251  1.0000
  C   C61       1.0  0.42229  0.99885  0.61596  1.0000
  H   H81       1.0  0.24753  0.98981  0.79425  1.0000
  H   H82       1.0  0.33388  0.17537  0.74846  1.0000
  H   H83       1.0  0.07019  0.22473  0.79317  1.0000
  H   H84       1.0  0.27272  0.13590  0.75489  1.0000
  S   S24       1.0  0.31519  0.22685  0.69169  1.0000
  H   H85       1.0  0.41254  0.04760  0.59770  1.0000
  H   H86       1.0  0.29872  0.16860  0.76663  1.0000
  H   H87       1.0  0.34352  0.15032  0.71903  1.0000
  H   H88       1.0  0.28121  0.11022  0.72422  1.0000
  C   C62       1.0  0.27289  0.00199  0.75597  1.0000
  N   N7        1.0  0.00518  0.22378  0.80244  1.0000
  H   H89       1.0  0.31795  0.09664  0.75765  1.0000
  H   H90       1.0  0.46338  0.02219  0.96327  1.0000
  H   H91       1.0  0.31514  0.08207  0.71154  1.0000
  H   H92       1.0  0.29459  0.08751  0.72880  1.0000
  C   C63       1.0  0.33836  0.05505  0.59939  1.0000
  C   C64       1.0  0.35747  0.06534  0.58364  1.0000
  Fe  Fe13      1.0  0.26244  0.22777  0.67793  1.0000
  H   H93       1.0  0.22363  0.10423  0.57643  1.0000
  H   H94       1.0  0.38514  0.08056  0.02358  1.0000
  C   C65       1.0  0.32962  0.03484  0.59475  1.0000
  H   H95       1.0  0.36429  0.08096  0.58727  1.0000
  S   S25       1.0  0.24150  0.99232  0.66203  1.0000
  H   H96       1.0  0.31505  0.02675  0.60779  1.0000
  C   C66       1.0  0.26052  0.11622  0.64253  1.0000
  C   C67       1.0  0.25578  0.12974  0.66591  1.0000
  C   C68       1.0  0.26550  0.14992  0.65861  1.0000
  C   C69       1.0  0.27990  0.15680  0.62735  1.0000
  C   C70       1.0  0.28445  0.14324  0.60362  1.0000
  C   C71       1.0  0.27484  0.12310  0.61114  1.0000
  H   H97       1.0  0.24461  0.12461  0.69004  1.0000
  H   H98       1.0  0.26172  0.16013  0.67695  1.0000
  H   H99       1.0  0.29540  0.14839  0.57908  1.0000
  H   H100      1.0  0.27849  0.11293  0.59257  1.0000
  C   C72       1.0  0.34920  0.98917  0.72082  1.0000
  S   S26       1.0  0.33388  0.99992  0.91295  1.0000
  H   H101      1.0  0.99970  0.20504  0.85679  1.0000
  S   S27       1.0  0.38210  0.00894  0.91403  1.0000
  C   C73       1.0  0.23189  0.11648  0.55667  1.0000
  H   H102      1.0  0.30238  0.04673  0.99814  1.0000
  H   H103      1.0  0.40208  0.00742  0.00681  1.0000
  S   S28       1.0  0.30197  0.21814  0.80740  1.0000
  H   H104      1.0  0.24012  0.08236  0.56478  1.0000
  C   C74       1.0  0.29113  0.22374  0.85198  1.0000
  Fe  Fe14      1.0  0.29230  0.22296  0.74138  1.0000
  H   H105      1.0  0.34952  0.00375  0.71601  1.0000
  C   C75       1.0  0.34006  0.02498  0.57437  1.0000
  C   C76       1.0  0.26247  0.99024  0.78919  1.0000
  C   C77       1.0  0.40951  0.00397  0.64273  1.0000
  H   H106      1.0  0.34869  0.12063  0.72214  1.0000
  N   N8        1.0  0.31815  0.11177  0.69935  1.0000
  C   C78       1.0  0.30774  0.10742  0.65804  1.0000
  C   C79       1.0  0.33990  0.11704  0.69220  1.0000
  C   C80       1.0  0.31116  0.09379  0.72556  1.0000
  C   C81       1.0  0.31336  0.12731  0.71949  1.0000
  C   C82       1.0  0.29330  0.12401  0.73030  1.0000
  C   C83       1.0  0.32796  0.14627  0.72682  1.0000
  C   C84       1.0  0.28822  0.13869  0.74762  1.0000
  C   C85       1.0  0.32264  0.16089  0.74382  1.0000
  C   C86       1.0  0.30282  0.15712  0.75413  1.0000
  H   H107      1.0  0.29119  0.10084  0.66121  1.0000
  H   H108      1.0  0.31145  0.12085  0.63847  1.0000
  H   H109      1.0  0.31194  0.09688  0.64013  1.0000
  H   H110      1.0  0.34588  0.12949  0.66984  1.0000
  H   H111      1.0  0.34291  0.10479  0.67794  1.0000
  C   C87       1.0  0.23369  0.13478  0.57097  1.0000
  H   H112      1.0  0.01862  0.22880  0.86471  1.0000
  C   C88       1.0  0.45529  0.00770  0.97547  1.0000
  Fe  Fe15      1.0  0.35999  0.01425  0.95644  1.0000
  C   C89       1.0  0.29200  0.00297  0.74615  1.0000
  H   H113      1.0  0.43115  0.00854  0.59200  1.0000
  H   H114      1.0  0.33341  0.00938  0.57169  1.0000
  H   H115      1.0  0.40931  0.02534  0.57243  1.0000
  C   C90       1.0  0.00408  0.22071  0.84854  1.0000
  C   C91       1.0  0.36070  0.05283  0.02887  1.0000
  S   S29       1.0  0.36830  0.04462  0.98287  1.0000
  C   C92       1.0  0.30078  0.99218  0.76953  1.0000
  H   H116      1.0  0.24322  0.23243  0.75334  1.0000
  C   C93       1.0  0.36761  0.05559  0.56228  1.0000
  C   C94       1.0  0.41725  0.03485  0.67639  1.0000
  H   H117      1.0  0.29829  0.22708  0.95843  1.0000
  C   C95       1.0  0.46579  0.99796  0.99792  1.0000
  H   H118      1.0  0.04560  0.23648  0.82069  1.0000
  C   C96       1.0  0.01464  0.20109  0.75585  1.0000
  H   H119      1.0  0.24186  0.98880  0.56151  1.0000
  H   H120      1.0  0.42663  0.00623  0.95006  1.0000
  H   H121      1.0  0.99949  0.19390  0.74403  1.0000
  H   H122      1.0  0.34093  0.13469  0.01992  1.0000
  H   H123      1.0  0.38221  0.06374  0.54937  1.0000
  C   C97       1.0  0.26746  0.23517  0.88450  1.0000
  H   H124      1.0  0.43242  0.03884  0.60063  1.0000
  H   H125      1.0  0.37857  0.01500  0.67054  1.0000
  Fe  Fe16      1.0  0.25855  0.04402  0.55054  1.0000
  H   H126      1.0  0.38315  0.03382  0.63287  1.0000
  H   H127      1.0  0.42195  0.03020  0.99499  1.0000
  H   H128      1.0  0.22705  0.13603  0.60043  1.0000
  H   H129      1.0  0.37687  0.00934  0.61578  1.0000
  C   C98       1.0  0.98453  0.21411  0.78483  1.0000
  H   H130      1.0  0.41595  0.04934  0.67536  1.0000
  C   C99       1.0  0.41582  0.03412  0.60097  1.0000
  S   S30       1.0  0.35535  0.99917  0.80360  1.0000
  C   C100      1.0  0.38557  0.02010  0.63977  1.0000
  C   C101      1.0  0.32470  0.07552  0.00533  1.0000
  H   H131      1.0  0.41058  0.02768  0.70644  1.0000
  C   C102      1.0  0.02903  0.19453  0.74057  1.0000
  H   H132      1.0  0.21561  0.07647  0.54070  1.0000
  H   H133      1.0  0.98400  0.21643  0.75030  1.0000
  H   H134      1.0  0.43347  0.03721  0.67779  1.0000
  H   H135      1.0  0.02469  0.18278  0.71812  1.0000
  C   C103      1.0  0.01993  0.21645  0.78535  1.0000
  C   C104      1.0  0.04898  0.20300  0.75399  1.0000
  C   C105      1.0  0.29180  0.22793  0.92790  1.0000
  H   H136      1.0  0.31183  0.21789  0.89479  1.0000
  C   C106      1.0  0.29944  0.22273  0.89180  1.0000
  C   C107      1.0  0.27577  0.23416  0.92436  1.0000
  H   H137      1.0  0.26589  0.01006  0.73707  1.0000
  H   H138      1.0  0.06007  0.19787  0.74204  1.0000
  C   C108      1.0  0.40749  0.02340  0.01160  1.0000
  S   S31       1.0  0.23378  0.23250  0.66490  1.0000
  C   C109      1.0  0.04040  0.22472  0.79837  1.0000
  H   H139      1.0  0.24699  0.16574  0.56115  1.0000
  C   C110      1.0  0.05465  0.21809  0.78280  1.0000
  H   H140      1.0  0.26855  0.23077  0.81789  1.0000
  Fe  Fe17      1.0  0.35529  0.99216  0.87346  1.0000
  H   H141      1.0  0.33598  0.07216  0.98873  1.0000
  H   H142      1.0  0.29988  0.01189  0.72000  1.0000
  C   C111      1.0  0.24488  0.15155  0.54881  1.0000
  H   H143      1.0  0.34467  0.10407  0.01862  1.0000
  H   H144      1.0  0.97389  0.22001  0.79852  1.0000
  H   H145      1.0  0.97831  0.19824  0.79197  1.0000
  H   H146      1.0  0.39648  0.02846  0.99560  1.0000
  C   C112      1.0  0.27512  0.23002  0.84839  1.0000
  C   C113      1.0  0.35896  0.03542  0.55758  1.0000
  C   C114      1.0  0.32947  0.09394  0.02268  1.0000
  H   H147      1.0  0.30308  0.12701  0.01955  1.0000
  C   C115      1.0  0.21578  0.98810  0.72913  1.0000
  H   H148      1.0  0.31561  0.99286  0.76177  1.0000
  C   C116      1.0  0.29136  0.06514  0.03290  1.0000
  C   C117      1.0  0.39911  0.99004  0.67365  1.0000
  C   C118      1.0  0.23161  0.07927  0.53445  1.0000
  Fe  Fe18      1.0  0.37269  0.38841  0.38824  1.0000
  S   S32       1.0  0.37527  0.41686  0.41634  1.0000
  S   S33       1.0  0.38032  0.38186  0.32295  1.0000
  Fe  Fe19      1.0  0.35926  0.36516  0.47095  1.0000
  C   C119      1.0  0.10146  0.26625  0.37698  1.0000
  H   H149      1.0  0.97648  0.34623  0.05325  1.0000
  Fe  Fe20      1.0  0.34643  0.39897  0.44845  1.0000
  S   S34       1.0  0.32109  0.40943  0.45524  1.0000
  Fe  Fe21      1.0  0.39004  0.40801  0.47152  1.0000
  C   C120      1.0  0.00532  0.47880  0.05471  1.0000
  S   S35       1.0  0.34273  0.37158  0.41574  1.0000
  S   S36       1.0  0.38929  0.38042  0.44127  1.0000
  H   H150      1.0  0.27240  0.28024  0.26998  1.0000
  S   S37       1.0  0.34499  0.38400  0.06016  1.0000
  H   H151      1.0  0.06220  0.27217  0.26743  1.0000
  C   C121      1.0  0.08240  0.26596  0.36636  1.0000
  H   H152      1.0  0.41697  0.45661  0.06454  1.0000
  Fe  Fe22      1.0  0.36598  0.41175  0.08901  1.0000
  S   S38       1.0  0.36468  0.42192  0.15520  1.0000
  H   H153      1.0  0.01016  0.42994  0.52029  1.0000
  S   S39       1.0  0.39355  0.41221  0.05624  1.0000
  N   N9        1.0  0.25409  0.35151  0.52599  1.0000
  Fe  Fe23      1.0  0.01008  0.28689  0.28343  1.0000
  S   S40       1.0  0.99768  0.30802  0.25683  1.0000
  H   H154      1.0  0.01367  0.43611  0.46638  1.0000
  Fe  Fe24      1.0  0.04868  0.31844  0.31486  1.0000
  S   S41       1.0  0.03888  0.34252  0.29143  1.0000
  S   S42       1.0  0.07747  0.32390  0.35326  1.0000
  Fe  Fe25      1.0  0.00854  0.32440  0.31700  1.0000
  S   S43       1.0  0.98384  0.33212  0.34541  1.0000
  Fe  Fe26      1.0  0.02869  0.32427  0.23333  1.0000
  S   S44       1.0  0.03271  0.33823  0.16868  1.0000
  S   S45       1.0  0.01895  0.30184  0.34523  1.0000
  S   S46       1.0  0.04054  0.30160  0.25496  1.0000
  Fe  Fe27      1.0  0.17961  0.30422  0.35054  1.0000
  S   S47       1.0  0.19075  0.28083  0.37253  1.0000
  S   S48       1.0  0.15036  0.29798  0.31328  1.0000
  Fe  Fe28      1.0  0.21799  0.33656  0.37980  1.0000
  S   S49       1.0  0.23178  0.31610  0.40440  1.0000
  S   S50       1.0  0.23234  0.36913  0.38414  1.0000
  Fe  Fe29      1.0  0.22036  0.29963  0.34450  1.0000
  S   S51       1.0  0.24470  0.29283  0.31132  1.0000
  Fe  Fe30      1.0  0.20137  0.29926  0.43048  1.0000
  S   S52       1.0  0.20014  0.28654  0.49620  1.0000
  S   S53       1.0  0.20855  0.32158  0.31818  1.0000
  S   S54       1.0  0.18822  0.32116  0.41035  1.0000
  Fe  Fe31      1.0  0.30334  0.26071  0.10522  1.0000
  S   S55       1.0  0.32501  0.28925  0.13023  1.0000
  S   S56       1.0  0.27380  0.25971  0.07981  1.0000
  C   C122      1.0  0.24096  0.27541  0.27154  1.0000
  C   C123      1.0  0.22202  0.26494  0.25412  1.0000
  C   C124      1.0  0.97777  0.43442  0.48662  1.0000
  S   S57       1.0  0.30696  0.24023  0.05802  1.0000
  H   H155      1.0  0.20897  0.26702  0.26574  1.0000
  H   H156      1.0  0.02952  0.26708  0.33299  1.0000
  C   C125      1.0  0.13033  0.30544  0.32489  1.0000
  C   C126      1.0  0.12977  0.31465  0.36245  1.0000
  C   C127      1.0  0.11350  0.32022  0.37057  1.0000
  C   C128      1.0  0.09757  0.31656  0.34141  1.0000
  C   C129      1.0  0.09810  0.30730  0.30390  1.0000
  C   C130      1.0  0.11439  0.30177  0.29574  1.0000
  H   H157      1.0  0.14166  0.31712  0.38553  1.0000
  H   H158      1.0  0.11320  0.32733  0.39972  1.0000
  H   H159      1.0  0.08614  0.30469  0.28094  1.0000
  H   H160      1.0  0.11465  0.29459  0.26667  1.0000
  N   N10       1.0  0.05060  0.25350  0.32079  1.0000
  C   C131      1.0  0.00568  0.37175  0.43926  1.0000
  C   C132      1.0  0.00469  0.35928  0.40569  1.0000
  H   H161      1.0  0.20524  0.24354  0.20837  1.0000
  H   H162      1.0  0.22784  0.33172  0.49330  1.0000
  H   H163      1.0  0.07210  0.32661  0.09689  1.0000
  H   H164      1.0  0.02014  0.38112  0.45166  1.0000
  H   H165      1.0  0.01832  0.35913  0.39239  1.0000
  C   C133      1.0  0.46500  0.45686  0.37830  1.0000
  H   H166      1.0  0.33354  0.28944  0.04126  1.0000
  C   C134      1.0  0.42489  0.42357  0.38355  1.0000
  H   H167      1.0  0.42991  0.39070  0.40427  1.0000
  C   C135      1.0  0.34042  0.30411  0.05299  1.0000
  H   H168      1.0  0.11036  0.27586  0.40134  1.0000
  C   C136      1.0  0.33852  0.30785  0.09514  1.0000
  C   C137      1.0  0.34754  0.32688  0.11010  1.0000
  C   C138      1.0  0.35831  0.34219  0.08310  1.0000
  H   H169      1.0  0.07642  0.29875  0.06573  1.0000
  H   H170      1.0  0.27629  0.29947  0.10720  1.0000
  H   H171      1.0  0.34627  0.32980  0.14269  1.0000
  H   H172      1.0  0.36538  0.35680  0.09503  1.0000
  S   S58       1.0  0.35860  0.43012  0.03980  1.0000
  C   C139      1.0  0.45473  0.48026  0.09363  1.0000
  C   C140      1.0  0.07071  0.25400  0.33348  1.0000
  C   C141      1.0  0.02518  0.29138  0.09670  1.0000
  C   C142      1.0  0.02691  0.30332  0.13140  1.0000
  C   C143      1.0  0.03009  0.32294  0.12541  1.0000
  C   C144      1.0  0.03120  0.33048  0.08439  1.0000
  H   H173      1.0  0.99058  0.32907  0.09530  1.0000
  H   H174      1.0  0.02286  0.27623  0.10166  1.0000
  H   H175      1.0  0.02583  0.29732  0.16279  1.0000
  H   H176      1.0  0.03366  0.34567  0.07958  1.0000
  C   C145      1.0  0.29457  0.36489  0.21925  1.0000
  C   C146      1.0  0.29734  0.39789  0.43123  1.0000
  C   C147      1.0  0.28432  0.40790  0.43014  1.0000
  C   C148      1.0  0.26471  0.39903  0.41442  1.0000
  C   C149      1.0  0.25772  0.37989  0.40022  1.0000
  C   C150      1.0  0.27073  0.36975  0.40074  1.0000
  C   C151      1.0  0.29062  0.37882  0.41602  1.0000
  H   H177      1.0  0.45133  0.46626  0.07932  1.0000
  H   H178      1.0  0.25481  0.40697  0.41410  1.0000
  H   H179      1.0  0.26547  0.35497  0.38965  1.0000
  H   H180      1.0  0.30053  0.37092  0.41709  1.0000
  C   C152      1.0  0.43393  0.45314  0.49543  1.0000
  C   C153      1.0  0.43062  0.46355  0.46094  1.0000
  H   H181      1.0  0.41803  0.45669  0.43993  1.0000
  C   C154      1.0  0.37557  0.39296  0.27665  1.0000
  C   C155      1.0  0.36779  0.40758  0.27785  1.0000
  C   C156      1.0  0.36452  0.41628  0.24030  1.0000
  C   C157      1.0  0.36875  0.41029  0.20133  1.0000
  C   C158      1.0  0.37630  0.39550  0.20008  1.0000
  C   C159      1.0  0.37978  0.38695  0.23767  1.0000
  H   H182      1.0  0.36447  0.41232  0.30767  1.0000
  H   H183      1.0  0.35866  0.42771  0.24150  1.0000
  H   H184      1.0  0.37964  0.39077  0.17026  1.0000
  H   H185      1.0  0.38585  0.37566  0.23655  1.0000
  N   N11       1.0  0.28375  0.31648  0.16407  1.0000
  C   C160      1.0  0.28551  0.31441  0.11814  1.0000
  C   C161      1.0  0.29414  0.30529  0.18651  1.0000
  C   C162      1.0  0.26207  0.30755  0.17413  1.0000
  C   C163      1.0  0.29332  0.33711  0.17675  1.0000
  C   C164      1.0  0.31241  0.34907  0.16117  1.0000
  H   H186      1.0  0.30104  0.31664  0.10892  1.0000
  H   H187      1.0  0.43058  0.44397  0.12300  1.0000
  H   H188      1.0  0.31558  0.34919  0.48615  1.0000
  H   H189      1.0  0.31052  0.31141  0.18057  1.0000
  H   H190      1.0  0.28840  0.28982  0.17639  1.0000
  H   H191      1.0  0.29234  0.30551  0.22094  1.0000
  H   H192      1.0  0.25363  0.31601  0.15981  1.0000
  H   H193      1.0  0.25502  0.29233  0.16245  1.0000
  H   H194      1.0  0.25949  0.30623  0.20850  1.0000
  H   H195      1.0  0.32020  0.34364  0.13926  1.0000
  H   H196      1.0  0.99546  0.44760  0.05250  1.0000
  C   C165      1.0  0.10957  0.25496  0.35509  1.0000
  H   H197      1.0  0.27060  0.33747  0.22136  1.0000
  C   C166      1.0  0.32198  0.36839  0.17367  1.0000
  H   H198      1.0  0.02786  0.45348  0.50605  1.0000
  C   C167      1.0  0.28481  0.34552  0.20690  1.0000
  H   H199      1.0  0.35203  0.30524  0.20396  1.0000
  H   H200      1.0  0.46485  0.41495  0.34817  1.0000
  H   H201      1.0  0.99029  0.31253  0.16192  1.0000
  H   H202      1.0  0.45035  0.42699  0.32188  1.0000
  C   C168      1.0  0.40834  0.47388  0.15673  1.0000
  H   H203      1.0  0.24269  0.35242  0.46356  1.0000
  C   C169      1.0  0.40953  0.46287  0.08707  1.0000
  C   C170      1.0  0.01296  0.44228  0.49762  1.0000
  C   C171      1.0  0.29982  0.34129  0.49229  1.0000
  H   H204      1.0  0.27048  0.37942  0.49746  1.0000
  H   H205      1.0  0.32061  0.39136  0.21192  1.0000
  H   H206      1.0  0.42023  0.42726  0.41418  1.0000
  C   C172      1.0  0.42354  0.45074  0.14525  1.0000
  C   C173      1.0  0.44067  0.48381  0.11939  1.0000
  C   C174      1.0  0.09841  0.24286  0.32322  1.0000
  N   N12       1.0  0.17582  0.36862  0.33802  1.0000
  C   C175      1.0  0.19047  0.38859  0.32984  1.0000
  C   C176      1.0  0.17603  0.36442  0.38368  1.0000
  C   C177      1.0  0.18290  0.35491  0.31628  1.0000
  C   C178      1.0  0.15550  0.36713  0.32424  1.0000
  C   C179      1.0  0.14610  0.37841  0.34393  1.0000
  C   C180      1.0  0.14452  0.35469  0.29133  1.0000
  C   C181      1.0  0.12670  0.37685  0.33237  1.0000
  C   C182      1.0  0.12528  0.35355  0.27955  1.0000
  C   C183      1.0  0.11628  0.36437  0.30038  1.0000
  H   H207      1.0  0.18709  0.39972  0.34756  1.0000
  H   H208      1.0  0.20603  0.39010  0.33923  1.0000
  H   H209      1.0  0.19057  0.39242  0.29591  1.0000
  H   H210      1.0  0.17329  0.37542  0.40301  1.0000
  H   H211      1.0  0.19079  0.36429  0.39456  1.0000
  H   H212      1.0  0.16438  0.34997  0.39144  1.0000
  H   H213      1.0  0.17279  0.33951  0.32197  1.0000
  H   H214      1.0  0.18409  0.35772  0.28189  1.0000
  H   H215      1.0  0.19813  0.35632  0.32751  1.0000
  H   H216      1.0  0.15357  0.38835  0.36881  1.0000
  H   H217      1.0  0.15017  0.34529  0.27483  1.0000
  H   H218      1.0  0.11952  0.38513  0.34864  1.0000
  H   H219      1.0  0.11696  0.34364  0.25509  1.0000
  H   H220      1.0  0.10102  0.36277  0.29225  1.0000
  H   H221      1.0  0.40889  0.43910  0.15346  1.0000
  C   C184      1.0  0.99379  0.45990  0.06749  1.0000
  H   H222      1.0  0.03555  0.25874  0.26521  1.0000
  C   C185      1.0  0.97827  0.31540  0.10089  1.0000
  H   H223      1.0  0.39376  0.46166  0.16263  1.0000
  C   C186      1.0  0.44141  0.40438  0.41676  1.0000
  N   N13       1.0  0.31626  0.32995  0.32535  1.0000
  C   C187      1.0  0.29419  0.31910  0.32448  1.0000
  C   C188      1.0  0.32446  0.32619  0.36617  1.0000
  C   C189      1.0  0.31978  0.35100  0.32263  1.0000
  C   C190      1.0  0.32583  0.32345  0.29120  1.0000
  C   C191      1.0  0.32154  0.30333  0.28535  1.0000
  C   C192      1.0  0.34034  0.33671  0.26441  1.0000
  C   C193      1.0  0.33076  0.29691  0.25393  1.0000
  C   C194      1.0  0.34966  0.33012  0.23351  1.0000
  C   C195      1.0  0.34484  0.31029  0.22817  1.0000
  H   H224      1.0  0.28977  0.30345  0.33267  1.0000
  H   H225      1.0  0.28643  0.32475  0.34772  1.0000
  H   H226      1.0  0.28758  0.32010  0.29308  1.0000
  H   H227      1.0  0.32171  0.31053  0.37104  1.0000
  H   H228      1.0  0.31762  0.33066  0.39309  1.0000
  H   H229      1.0  0.34101  0.33431  0.36844  1.0000
  H   H230      1.0  0.31473  0.35482  0.29172  1.0000
  H   H231      1.0  0.31157  0.35535  0.34720  1.0000
  H   H232      1.0  0.33591  0.36029  0.32742  1.0000
  H   H233      1.0  0.31124  0.29239  0.30541  1.0000
  H   H234      1.0  0.34511  0.35228  0.26710  1.0000
  H   H235      1.0  0.40443  0.48606  0.14386  1.0000
  H   H236      1.0  0.36086  0.34051  0.21380  1.0000
  C   C196      1.0  0.29163  0.32114  0.48827  1.0000
  C   C197      1.0  0.23716  0.34745  0.49558  1.0000
  C   C198      1.0  0.00028  0.46714  0.47024  1.0000
  S   S59       1.0  0.34537  0.33251  0.48518  1.0000
  H   H237      1.0  0.97424  0.47275  0.49051  1.0000
  H   H238      1.0  0.99208  0.36645  0.14048  1.0000
  S   S60       1.0  0.41889  0.42806  0.50472  1.0000
  C   C199      1.0  0.25776  0.27249  0.25618  1.0000
  H   H239      1.0  0.42536  0.43526  0.36093  1.0000
  H   H240      1.0  0.45741  0.45699  0.34880  1.0000
  C   C200      1.0  0.98809  0.37214  0.45685  1.0000
  H   H241      1.0  0.28059  0.32481  0.09994  1.0000
  H   H242      1.0  0.32714  0.28148  0.24958  1.0000
  H   H243      1.0  0.24372  0.31222  0.51434  1.0000
  C   C201      1.0  0.98606  0.34737  0.38894  1.0000
  H   H244      1.0  0.97520  0.42104  0.50567  1.0000
  H   H245      1.0  0.28939  0.42260  0.44187  1.0000
  C   C202      1.0  0.45020  0.46265  0.52281  1.0000
  H   H246      1.0  0.09854  0.28567  0.04389  1.0000
  H   H247      1.0  0.02713  0.46701  0.43893  1.0000
  H   H248      1.0  0.43873  0.40192  0.33519  1.0000
  H   H249      1.0  0.41277  0.41001  0.37232  1.0000
  C   C203      1.0  0.02644  0.29889  0.05575  1.0000
  C   C204      1.0  0.44381  0.48291  0.45325  1.0000
  C   C205      1.0  0.27140  0.31093  0.49633  1.0000
  S   S61       1.0  0.36112  0.39190  0.50596  1.0000
  C   C206      1.0  0.31308  0.37631  0.20256  1.0000
  C   C207      1.0  0.07919  0.24219  0.31275  1.0000
  C   C208      1.0  0.97967  0.45679  0.09869  1.0000
  H   H250      1.0  0.32417  0.29203  0.50272  1.0000
  H   H251      1.0  0.05213  0.24674  0.25532  1.0000
  S   S62       1.0  0.98991  0.38852  0.49795  1.0000
  C   C209      1.0  0.21996  0.25168  0.22155  1.0000
  C   C210      1.0  0.44987  0.41609  0.34655  1.0000
  H   H252      1.0  0.45549  0.40166  0.42152  1.0000
  C   C211      1.0  0.02931  0.31846  0.04956  1.0000
  C   C212      1.0  0.23682  0.24905  0.20569  1.0000
  H   H253      1.0  0.33638  0.37733  0.16069  1.0000
  N   N14       1.0  0.99688  0.45025  0.49869  1.0000
  H   H254      1.0  0.30101  0.31346  0.47891  1.0000
  H   H255      1.0  0.41597  0.47802  0.18782  1.0000
  H   H256      1.0  0.43302  0.45439  0.17428  1.0000
  H   H257      1.0  0.22693  0.35488  0.50406  1.0000
  N   N15       1.0  0.44437  0.42118  0.38802  1.0000
  H   H258      1.0  0.26495  0.29526  0.49262  1.0000
  H   H259      1.0  0.43596  0.40669  0.44793  1.0000
  H   H260      1.0  0.07747  0.27567  0.38368  1.0000
  C   C213      1.0  0.25936  0.32083  0.50868  1.0000
  H   H261      1.0  0.07784  0.35657  0.05550  1.0000
  H   H262      1.0  0.05524  0.28288  0.33799  1.0000
  H   H263      1.0  0.26877  0.25737  0.21174  1.0000
  S   S63       1.0  0.99403  0.25437  0.28121  1.0000
  C   C214      1.0  0.98044  0.35635  0.15980  1.0000
  H   H264      1.0  0.19043  0.32079  0.50800  1.0000
  H   H265      1.0  0.28771  0.37114  0.24184  1.0000
  C   C215      1.0  0.98695  0.47717  0.47005  1.0000
  H   H266      1.0  0.97777  0.43037  0.45317  1.0000
  H   H267      1.0  0.12470  0.25590  0.36236  1.0000
  H   H268      1.0  0.00095  0.35598  0.20949  1.0000
  C   C216      1.0  0.97721  0.47258  0.11763  1.0000
  C   C217      1.0  0.25574  0.25953  0.22316  1.0000
  H   H269      1.0  0.40800  0.47575  0.07124  1.0000
  C   C218      1.0  0.46319  0.48214  0.51553  1.0000
  C   C219      1.0  0.36054  0.33846  0.04111  1.0000
  C   C220      1.0  0.04457  0.26768  0.34351  1.0000
  C   C221      1.0  0.05017  0.25796  0.27529  1.0000
  N   N16       1.0  0.42087  0.46822  0.12726  1.0000
  H   H270      1.0  0.39418  0.45179  0.09183  1.0000
  C   C222      1.0  0.28791  0.35137  0.50436  1.0000
  C   C223      1.0  0.98539  0.35049  0.19877  1.0000
  C   C224      1.0  0.45996  0.43960  0.40297  1.0000
  H   H271      1.0  0.04354  0.26471  0.37786  1.0000
  C   C225      1.0  0.01638  0.47386  0.44156  1.0000
  H   H272      1.0  0.29533  0.36700  0.50636  1.0000
  C   C226      1.0  0.97826  0.30601  0.13925  1.0000
  C   C227      1.0  0.26722  0.34140  0.51296  1.0000
  H   H273      1.0  0.97532  0.33423  0.25444  1.0000
  H   H274      1.0  0.46694  0.42909  0.46398  1.0000
  C   C228      1.0  0.26447  0.37298  0.52844  1.0000
  C   C229      1.0  0.07724  0.32762  0.06488  1.0000
  C   C230      1.0  0.47029  0.44112  0.44212  1.0000
  C   C231      1.0  0.07978  0.31173  0.04668  1.0000
  C   C232      1.0  0.08039  0.34450  0.04152  1.0000
  C   C233      1.0  0.34052  0.31927  0.53336  1.0000
  C   C234      1.0  0.32942  0.29909  0.53248  1.0000
  C   C235      1.0  0.15373  0.33156  0.72712  1.0000
  C   C236      1.0  0.10369  0.29041  0.01151  1.0000
  H   H275      1.0  0.30001  0.31279  0.58298  1.0000
  Fe  Fe32      1.0  0.30681  0.25133  0.66595  1.0000
  S   S64       1.0  0.32770  0.28311  0.65621  1.0000
  C   C237      1.0  0.09575  0.29862  0.94227  1.0000
  C   C238      1.0  0.01159  0.24490  0.79327  1.0000
  Fe  Fe33      1.0  0.02176  0.31626  0.87103  1.0000
  S   S65       1.0  0.99825  0.29622  0.91319  1.0000
  S   S66       1.0  0.01728  0.34291  0.84738  1.0000
  Fe  Fe34      1.0  0.04401  0.28934  0.86253  1.0000
  S   S67       1.0  0.02178  0.26679  0.90318  1.0000
  S   S68       1.0  0.06829  0.28046  0.83553  1.0000
  Fe  Fe35      1.0  0.99767  0.27327  0.86798  1.0000
  Fe  Fe36      1.0  0.02404  0.29145  0.94525  1.0000
  S   S69       1.0  0.02514  0.28337  0.01365  1.0000
  S   S70       1.0  0.01952  0.29362  0.82331  1.0000
  S   S71       1.0  0.04803  0.31375  0.90706  1.0000
  C   C239      1.0  0.21081  0.26358  0.73527  1.0000
  S   S72       1.0  0.30758  0.39614  0.98816  1.0000
  S   S73       1.0  0.36561  0.40269  0.96891  1.0000
  Fe  Fe37      1.0  0.20806  0.30053  0.79654  1.0000
  S   S74       1.0  0.23037  0.32089  0.75281  1.0000
  S   S75       1.0  0.21280  0.27368  0.81787  1.0000
  Fe  Fe38      1.0  0.18654  0.32780  0.81065  1.0000
  S   S76       1.0  0.20834  0.35098  0.77002  1.0000
  S   S77       1.0  0.16124  0.33480  0.83907  1.0000
  Fe  Fe39      1.0  0.20420  0.32666  0.72526  1.0000
  S   S78       1.0  0.19874  0.33443  0.65806  1.0000
  Fe  Fe40      1.0  0.23276  0.34331  0.80126  1.0000
  S   S79       1.0  0.26545  0.36247  0.81392  1.0000
  S   S80       1.0  0.18134  0.30380  0.76452  1.0000
  S   S81       1.0  0.21152  0.32255  0.84635  1.0000
  C   C240      1.0  0.08922  0.32994  0.98159  1.0000
  H   H276      1.0  0.46578  0.48776  0.78534  1.0000
  C   C241      1.0  0.19789  0.32004  0.61414  1.0000
  C   C242      1.0  0.20168  0.30293  0.61746  1.0000
  C   C243      1.0  0.20168  0.29242  0.58111  1.0000
  H   H277      1.0  0.14137  0.35072  0.66865  1.0000
  H   H278      1.0  0.26941  0.40688  0.82732  1.0000
  C   C244      1.0  0.19361  0.32627  0.57457  1.0000
  H   H279      1.0  0.20460  0.29781  0.64794  1.0000
  H   H280      1.0  0.20469  0.27920  0.58372  1.0000
  H   H281      1.0  0.35946  0.29332  0.95021  1.0000
  H   H282      1.0  0.19048  0.33941  0.57187  1.0000
  H   H283      1.0  0.43822  0.44773  0.99555  1.0000
  H   H284      1.0  0.37848  0.33989  0.86010  1.0000
  C   C245      1.0  0.43039  0.47198  0.97672  1.0000
  H   H285      1.0  0.15618  0.28316  0.59880  1.0000
  H   H286      1.0  0.30803  0.25956  0.79686  1.0000
  C   C246      1.0  0.29604  0.38469  0.94094  1.0000
  C   C247      1.0  0.30731  0.38361  0.90661  1.0000
  C   C248      1.0  0.29765  0.37626  0.86820  1.0000
  C   C249      1.0  0.27665  0.36947  0.86403  1.0000
  C   C250      1.0  0.26531  0.36963  0.89893  1.0000
  C   C251      1.0  0.27501  0.37741  0.93709  1.0000
  H   H287      1.0  0.32348  0.38893  0.90919  1.0000
  H   H288      1.0  0.30651  0.37616  0.84133  1.0000
  H   H289      1.0  0.24914  0.36455  0.89604  1.0000
  H   H290      1.0  0.26618  0.37817  0.96353  1.0000
  C   C252      1.0  0.09400  0.29602  0.83454  1.0000
  C   C253      1.0  0.10840  0.28822  0.82490  1.0000
  C   C254      1.0  0.12903  0.29992  0.82586  1.0000
  C   C255      1.0  0.13545  0.31958  0.83639  1.0000
  C   C256      1.0  0.12103  0.32743  0.84543  1.0000
  C   C257      1.0  0.10040  0.31577  0.84421  1.0000
  H   H291      1.0  0.10362  0.27295  0.81744  1.0000
  H   H292      1.0  0.14000  0.29365  0.81933  1.0000
  H   H293      1.0  0.12586  0.34264  0.85346  1.0000
  H   H294      1.0  0.08949  0.32204  0.85127  1.0000
  H   H295      1.0  0.31175  0.28306  0.81773  1.0000
  C   C258      1.0  0.25750  0.31363  0.87837  1.0000
  H   H296      1.0  0.32371  0.43805  0.98113  1.0000
  H   H297      1.0  0.31871  0.34748  0.57985  1.0000
  C   C259      1.0  0.35979  0.29843  0.91804  1.0000
  C   C260      1.0  0.21797  0.26169  0.77557  1.0000
  H   H298      1.0  0.24358  0.27518  0.94598  1.0000
  H   H299      1.0  0.20895  0.25489  0.67071  1.0000
  C   C261      1.0  0.14324  0.33727  0.65822  1.0000
  H   H300      1.0  0.11632  0.33201  0.71529  1.0000
  H   H301      1.0  0.23036  0.28074  0.90315  1.0000
  H   H302      1.0  0.29472  0.43243  0.94394  1.0000
  H   H303      1.0  0.99287  0.36583  0.84988  1.0000
  H   H304      1.0  0.25829  0.34676  0.59151  1.0000
  H   H305      1.0  0.01596  0.48112  0.02971  1.0000
  C   C262      1.0  0.33240  0.29664  0.60835  1.0000
  C   C263      1.0  0.34337  0.31685  0.60930  1.0000
  C   C264      1.0  0.34738  0.32813  0.57205  1.0000
  H   H306      1.0  0.32163  0.46060  0.96385  1.0000
  H   H307      1.0  0.31045  0.36982  0.62579  1.0000
  C   C265      1.0  0.32533  0.28783  0.56969  1.0000
  H   H308      1.0  0.34891  0.32383  0.63901  1.0000
  H   H309      1.0  0.35602  0.34361  0.57325  1.0000
  H   H310      1.0  0.13284  0.33151  0.63104  1.0000
  H   H311      1.0  0.31699  0.27230  0.56838  1.0000
  C   C266      1.0  0.01112  0.35473  0.88876  1.0000
  C   C267      1.0  0.99855  0.36500  0.88123  1.0000
  H   H312      1.0  0.01983  0.36319  0.99337  1.0000
  H   H313      1.0  0.02615  0.25363  0.80866  1.0000
  N   N17       1.0  0.26161  0.29970  0.90765  1.0000
  C   C268      1.0  0.98827  0.31202  0.75477  1.0000
  C   C269      1.0  0.26859  0.28696  0.88232  1.0000
  C   C270      1.0  0.24236  0.28750  0.92722  1.0000
  C   C271      1.0  0.27677  0.30927  0.94072  1.0000
  C   C272      1.0  0.28662  0.32983  0.94362  1.0000
  C   C273      1.0  0.28219  0.29792  0.97131  1.0000
  C   C274      1.0  0.30109  0.33830  0.97494  1.0000
  C   C275      1.0  0.13947  0.27135  0.69798  1.0000
  H   H314      1.0  0.98318  0.35430  0.72812  1.0000
  H   H315      1.0  0.36134  0.26488  0.81128  1.0000
  C   C276      1.0  0.14807  0.30178  0.63964  1.0000
  H   H316      1.0  0.20177  0.27224  0.73020  1.0000
  H   H317      1.0  0.28327  0.29541  0.86781  1.0000
  H   H318      1.0  0.25761  0.27973  0.85672  1.0000
  H   H319      1.0  0.27044  0.27505  0.90143  1.0000
  H   H320      1.0  0.23700  0.29627  0.94821  1.0000
  Fe  Fe41      1.0  0.33992  0.40229  0.00791  1.0000
  H   H321      1.0  0.06323  0.27434  0.01812  1.0000
  H   H322      1.0  0.28351  0.33974  0.92204  1.0000
  Fe  Fe42      1.0  0.37171  0.38575  0.02302  1.0000
  H   H323      1.0  0.27707  0.37722  0.55179  1.0000
  C   C277      1.0  0.37050  0.32459  0.86721  1.0000
  H   H324      1.0  0.27281  0.28407  0.57416  1.0000
  S   S82       1.0  0.37449  0.35746  0.00724  1.0000
  C   C278      1.0  0.34996  0.29152  0.84394  1.0000
  S   S83       1.0  0.40385  0.45899  0.97630  1.0000
  H   H325      1.0  0.28244  0.35671  0.67568  1.0000
  C   C279      1.0  0.29666  0.30653  0.00245  1.0000
  C   C280      1.0  0.28048  0.41994  0.88713  1.0000
  H   H326      1.0  0.35297  0.31657  0.99356  1.0000
  C   C281      1.0  0.44387  0.46303  0.98725  1.0000
  H   H327      1.0  0.27117  0.32289  0.86127  1.0000
  H   H328      1.0  0.13657  0.25967  0.72088  1.0000
  C   C282      1.0  0.31845  0.43259  0.85195  1.0000
  H   H329      1.0  0.01320  0.24791  0.75896  1.0000
  H   H330      1.0  0.98375  0.32494  0.97562  1.0000
  H   H331      1.0  0.25146  0.32325  0.89506  1.0000
  H   H332      1.0  0.33699  0.47570  0.89522  1.0000
  H   H333      1.0  0.31323  0.26400  0.85128  1.0000
  H   H334      1.0  0.00055  0.31925  0.77782  1.0000
  H   H335      1.0  0.00183  0.35036  0.76015  1.0000
  H   H336      1.0  0.08461  0.30147  0.92123  1.0000
  H   H337      1.0  0.36015  0.47566  0.91796  1.0000
  H   H338      1.0  0.29008  0.28217  0.61463  1.0000
  C   C283      1.0  0.37008  0.31803  0.90851  1.0000
  C   C284      1.0  0.99088  0.34401  0.73395  1.0000
  N   N18       1.0  0.97642  0.32416  0.74451  1.0000
  H   H339      1.0  0.30292  0.41812  0.79597  1.0000
  H   H340      1.0  0.15261  0.34522  0.73842  1.0000
  H   H341      1.0  0.05779  0.28174  0.96735  1.0000
  C   C285      1.0  0.28591  0.34694  0.65515  1.0000
  C   C286      1.0  0.34206  0.28549  0.76792  1.0000
  H   H342      1.0  0.15902  0.34199  0.64738  1.0000
  C   C287      1.0  0.14634  0.26944  0.65848  1.0000
  H   H343      1.0  0.99641  0.32952  0.02503  1.0000
  N   N19       1.0  0.13925  0.32259  0.69260  1.0000
  H   H344      1.0  0.34529  0.46003  0.98099  1.0000
  C   C288      1.0  0.06936  0.27845  0.98614  1.0000
  H   H345      1.0  0.10718  0.31039  0.68379  1.0000
  H   H346      1.0  0.37765  0.32820  0.93326  1.0000
  C   C289      1.0  0.29739  0.43041  0.91152  1.0000
  H   H347      1.0  0.36203  0.44378  0.94164  1.0000
  C   C290      1.0  0.30630  0.34173  0.60132  1.0000
  H   H348      1.0  0.33639  0.29742  0.76308  1.0000
  C   C291      1.0  0.24599  0.34434  0.56802  1.0000
  H   H349      1.0  0.97070  0.33956  0.66561  1.0000
  H   H350      1.0  0.23671  0.32854  0.56821  1.0000
  H   H351      1.0  0.33945  0.25112  0.84116  1.0000
  H   H352      1.0  0.10689  0.27827  0.99744  1.0000
  C   C292      1.0  0.27431  0.28046  0.60771  1.0000
  C   C293      1.0  0.11866  0.31843  0.70773  1.0000
  H   H353      1.0  0.07072  0.26533  0.97241  1.0000
  H   H354      1.0  0.35819  0.29090  0.75961  1.0000
  S   S84       1.0  0.28596  0.24885  0.71900  1.0000
  H   H355      1.0  0.33283  0.43682  0.83710  1.0000
  H   H356      1.0  0.26271  0.32186  0.67957  1.0000
  C   C294      1.0  0.14126  0.30430  0.67985  1.0000
  N   N20       1.0  0.33531  0.44793  0.91949  1.0000
  C   C295      1.0  0.34656  0.46697  0.89916  1.0000
  S   S85       1.0  0.99413  0.38474  0.99644  1.0000
  C   C296      1.0  0.34832  0.43651  0.92194  1.0000
  C   C297      1.0  0.30166  0.35433  0.62717  1.0000
  H   H357      1.0  0.35360  0.43422  0.89077  1.0000
  C   C298      1.0  0.28249  0.41568  0.84556  1.0000
  H   H358      1.0  0.30853  0.35401  0.97646  1.0000
  H   H359      1.0  0.97859  0.26389  0.76941  1.0000
  C   C299      1.0  0.33120  0.45183  0.96318  1.0000
  H   H360      1.0  0.45293  0.45481  0.54962  1.0000
  H   H361      1.0  0.15131  0.32178  0.75479  1.0000
  N   N21       1.0  0.26771  0.29248  0.63607  1.0000
  C   C300      1.0  0.22949  0.25029  0.78212  1.0000
  C   C301      1.0  0.26997  0.28627  0.67969  1.0000
  C   C302      1.0  0.24617  0.28808  0.62679  1.0000
  C   C303      1.0  0.27922  0.31365  0.63171  1.0000
  C   C304      1.0  0.29532  0.32168  0.60341  1.0000
  C   C305      1.0  0.08597  0.31241  0.00451  1.0000
  H   H362      1.0  0.09772  0.28563  0.92923  1.0000
  H   H363      1.0  0.98190  0.45916  0.54800  1.0000
  C   C306      1.0  0.34972  0.28537  0.88643  1.0000
  H   H364      1.0  0.27536  0.28221  0.97120  1.0000
  H   H365      1.0  0.99976  0.34394  0.70589  1.0000
  H   H366      1.0  0.97906  0.29782  0.76922  1.0000
  H   H367      1.0  0.28611  0.29025  0.68840  1.0000
  H   H368      1.0  0.26252  0.27028  0.68360  1.0000
  H   H369      1.0  0.26308  0.29267  0.70307  1.0000
  H   H370      1.0  0.24402  0.29368  0.59521  1.0000
  H   H371      1.0  0.23731  0.27209  0.62710  1.0000
  H   H372      1.0  0.23919  0.29436  0.65023  1.0000
  H   H373      1.0  0.24611  0.30597  0.85389  1.0000
  H   H374      1.0  0.16942  0.33513  0.71705  1.0000
  C   C307      1.0  0.46475  0.47381  0.98641  1.0000
  C   C308      1.0  0.27473  0.32693  0.65723  1.0000
  C   C309      1.0  0.22686  0.24280  0.70799  1.0000
  H   H375      1.0  0.33386  0.27427  0.74424  1.0000
  C   C310      1.0  0.30616  0.32669  0.00416  1.0000
  H   H376      1.0  0.36152  0.31769  0.80397  1.0000
  S   S86       1.0  0.26612  0.24141  0.96868  1.0000
  C   C311      1.0  0.13686  0.28844  0.70853  1.0000
  H   H377      1.0  0.30065  0.29744  0.02506  1.0000
  Fe  Fe43      1.0  0.38513  0.42926  0.00512  1.0000
  C   C312      1.0  0.34476  0.26032  0.81263  1.0000
  C   C313      1.0  0.31697  0.43713  0.89453  1.0000
  H   H378      1.0  0.13196  0.28937  0.73988  1.0000
  H   H379      1.0  0.15224  0.31308  0.61593  1.0000
  C   C314      1.0  0.21490  0.25379  0.70165  1.0000
  C   C315      1.0  0.19807  0.29903  0.54136  1.0000
  C   C316      1.0  0.99315  0.37409  0.91439  1.0000
  H   H380      1.0  0.23621  0.35177  0.57938  1.0000
  H   H381      1.0  0.34154  0.27040  0.89565  1.0000
  H   H382      1.0  0.11542  0.30963  0.73720  1.0000
  H   H383      1.0  0.26574  0.41441  0.90102  1.0000
  H   H384      1.0  0.26518  0.26462  0.61170  1.0000
  C   C317      1.0  0.00089  0.37351  0.95479  1.0000
  C   C318      1.0  0.01855  0.35381  0.92933  1.0000
  C   C319      1.0  0.31703  0.27079  0.81965  1.0000
  C   C320      1.0  0.36063  0.31161  0.83520  1.0000
  H   H385      1.0  0.35205  0.46536  0.86771  1.0000
  H   H386      1.0  0.99526  0.30911  0.72622  1.0000
  H   H387      1.0  0.08852  0.35875  0.98176  1.0000
  C   C321      1.0  0.01376  0.36355  0.96217  1.0000
  C   C322      1.0  0.30144  0.42198  0.82800  1.0000
  H   H388      1.0  0.02833  0.34597  0.93522  1.0000
  N   N22       1.0  0.33877  0.27742  0.81133  1.0000
  C   C323      1.0  0.15049  0.28456  0.62931  1.0000
  H   H389      1.0  0.25485  0.23970  0.88156  1.0000
  H   H390      1.0  0.03053  0.32442  0.01808  1.0000
  H   H391      1.0  0.14874  0.25633  0.65061  1.0000
  H   H392      1.0  0.34005  0.42191  0.93587  1.0000
  C   C324      1.0  0.08633  0.34565  0.99998  1.0000
  H   H393      1.0  0.23487  0.24864  0.81333  1.0000
  H   H394      1.0  0.33812  0.25033  0.78587  1.0000
  N   N23       1.0  0.08871  0.29538  0.98618  1.0000
  H   H395      1.0  0.11049  0.31096  0.93962  1.0000
  H   H396      1.0  0.98125  0.48393  0.97397  1.0000
  H   H397      1.0  0.31761  0.33335  0.02792  1.0000
  H   H398      1.0  0.25414  0.38012  0.53797  1.0000
  H   H399      1.0  0.97616  0.33327  0.80830  1.0000
  H   H400      1.0  0.00884  0.46894  0.55169  1.0000
  H   H401      1.0  0.09375  0.33185  0.94924  1.0000
  C   C325      1.0  0.35156  0.31941  0.02611  1.0000
  C   C326      1.0  0.23421  0.24111  0.74821  1.0000
  C   C327      1.0  0.99552  0.45589  0.54266  1.0000
  C   C328      1.0  0.19362  0.31579  0.53834  1.0000
  H   H402      1.0  0.00056  0.25075  0.80483  1.0000
  H   H403      1.0  0.99453  0.44400  0.56531  1.0000
  H   H404      1.0  0.11814  0.30317  0.01393  1.0000
  H   H405      1.0  0.98336  0.38194  0.90850  1.0000
  H   H406      1.0  0.98508  0.30496  0.00686  1.0000
  C   C329      1.0  0.98310  0.31913  0.00824  1.0000
  H   H407      1.0  0.98601  0.69415  0.27259  1.0000
  C   C330      1.0  0.46026  0.49233  0.48026  1.0000
  H   H408      1.0  0.99527  0.52921  0.07452  1.0000
  S   S87       1.0  0.04856  0.72131  0.41744  1.0000
  H   H409      1.0  0.97764  0.63893  0.06850  1.0000
  H   H410      1.0  0.98583  0.65994  0.10036  1.0000
  Fe  Fe44      1.0  0.00705  0.72701  0.34342  1.0000
  Fe  Fe45      1.0  0.02679  0.69954  0.37409  1.0000
  S   S88       1.0  0.99964  0.70455  0.39482  1.0000
  S   S89       1.0  0.02498  0.66923  0.36072  1.0000
  H   H411      1.0  0.99552  0.53989  0.12426  1.0000
  H   H412      1.0  0.98064  0.66316  0.36655  1.0000
  S   S90       1.0  0.98367  0.73071  0.29851  1.0000
  H   H413      1.0  0.98856  0.52104  0.18718  1.0000
  C   C331      1.0  0.01454  0.65116  0.39913  1.0000
  C   C332      1.0  0.00802  0.65549  0.43730  1.0000
  C   C333      1.0  0.99913  0.64056  0.46677  1.0000
  C   C334      1.0  0.99646  0.62129  0.45794  1.0000
  C   C335      1.0  0.00278  0.61697  0.41962  1.0000
  C   C336      1.0  0.01203  0.63192  0.39052  1.0000
  H   H414      1.0  0.00989  0.67031  0.44407  1.0000
  H   H415      1.0  0.00083  0.60214  0.41265  1.0000
  H   H416      1.0  0.01704  0.62853  0.36101  1.0000
  H   H417      1.0  0.04249  0.71493  0.51426  1.0000
  C   C337      1.0  0.98962  0.49304  0.44332  1.0000
  H   H418      1.0  0.01460  0.53082  0.11334  1.0000
  S   S91       1.0  0.98551  0.60279  0.49524  1.0000
  S   S92       1.0  0.03280  0.72047  0.31985  1.0000
  C   C338      1.0  0.00564  0.49940  0.41593  1.0000
  H   H419      1.0  0.00566  0.50916  0.17696  1.0000
  H   H420      1.0  0.98261  0.65742  0.31339  1.0000
  N   N24       1.0  0.98556  0.50850  0.12565  1.0000
  H   H421      1.0  0.99400  0.64389  0.49605  1.0000
  C   C339      1.0  0.99837  0.52788  0.10862  1.0000
  C   C340      1.0  0.44636  0.50294  0.13559  1.0000
  C   C341      1.0  0.97251  0.68139  0.51289  1.0000
  H   H422      1.0  0.03138  0.49479  0.39345  1.0000
  C   C342      1.0  0.97601  0.65309  0.07295  1.0000
  C   C343      1.0  0.99006  0.50838  0.17123  1.0000
  H   H423      1.0  0.97722  0.62554  0.33563  1.0000
  H   H424      1.0  0.98315  0.69080  0.49067  1.0000
  Fe  Fe46      1.0  0.02166  0.72791  0.43480  1.0000
  H   H425      1.0  0.98228  0.66218  0.04466  1.0000
  H   H426      1.0  0.97972  0.49511  0.18727  1.0000
  H   H427      1.0  0.43667  0.50714  0.15515  1.0000
  C   C344      1.0  0.46496  0.51745  0.12631  1.0000
  S   S93       1.0  0.98638  0.56691  0.05417  1.0000
  S   S94       1.0  0.01196  0.73163  0.50034  1.0000
  H   H428      1.0  0.97911  0.50039  0.44375  1.0000
  H   H429      1.0  0.00763  0.51174  0.39530  1.0000
  C   C345      1.0  0.00275  0.49470  0.07295  1.0000
  C   C346      1.0  0.97225  0.69486  0.25978  1.0000
  C   C347      1.0  0.98862  0.49205  0.10525  1.0000
  H   H430      1.0  0.01175  0.50887  0.06055  1.0000
  H   H431      1.0  0.44134  0.49063  0.42596  1.0000
  H   H432      1.0  0.46236  0.59881  0.50249  1.0000
  H   H433      1.0  0.97119  0.62805  0.38913  1.0000
  C   C348      1.0  0.97172  0.65796  0.33717  1.0000
  H   H434      1.0  0.43679  0.57511  0.53080  1.0000
  H   H435      1.0  0.46897  0.53199  0.13855  1.0000
  C   C349      1.0  0.01897  0.48983  0.41500  1.0000
  Fe  Fe47      1.0  0.03928  0.71591  0.73031  1.0000
  S   S95       1.0  0.04877  0.70925  0.66705  1.0000
  Fe  Fe48      1.0  0.01927  0.69618  0.81209  1.0000
  S   S96       1.0  0.02147  0.72476  0.83929  1.0000
  S   S97       1.0  0.00053  0.66499  0.83322  1.0000
  H   H436      1.0  0.97845  0.70996  0.62603  1.0000
  C   C350      1.0  0.00142  0.64878  0.64176  1.0000
  S   S98       1.0  0.00727  0.70209  0.74952  1.0000
  S   S99       1.0  0.05141  0.70817  0.79087  1.0000
  C   C351      1.0  0.45905  0.50270  0.96517  1.0000
  H   H437      1.0  0.97251  0.67661  0.65395  1.0000
  C   C352      1.0  0.98281  0.62179  0.92157  1.0000
  H   H438      1.0  0.44635  0.60729  0.56147  1.0000
  Fe  Fe49      1.0  0.97214  0.58605  0.02220  1.0000
  C   C353      1.0  0.00760  0.63362  0.57925  1.0000
  H   H439      1.0  0.02661  0.66507  0.68385  1.0000
  H   H440      1.0  0.45753  0.61024  0.61299  1.0000
  C   C354      1.0  0.99808  0.65232  0.88191  1.0000
  C   C355      1.0  0.00757  0.66147  0.91879  1.0000
  C   C356      1.0  0.00481  0.65078  0.95675  1.0000
  C   C357      1.0  0.99256  0.63086  0.95834  1.0000
  C   C358      1.0  0.43815  0.49185  0.96545  1.0000
  C   C359      1.0  0.98558  0.63247  0.88362  1.0000
  H   H441      1.0  0.01719  0.67672  0.91803  1.0000
  H   H442      1.0  0.01246  0.65794  0.98497  1.0000
  N   N25       1.0  0.01259  0.65219  0.60206  1.0000
  H   H443      1.0  0.97707  0.70456  0.55440  1.0000
  H   H444      1.0  0.03991  0.65124  0.62933  1.0000
  C   C360      1.0  0.46015  0.57876  0.57856  1.0000
  H   H445      1.0  0.04272  0.66220  0.57800  1.0000
  C   C361      1.0  0.03751  0.71769  0.54435  1.0000
  Fe  Fe50      1.0  0.01190  0.73123  0.77532  1.0000
  H   H446      1.0  0.03998  0.67540  0.62147  1.0000
  H   H447      1.0  0.46954  0.62720  0.57163  1.0000
  C   C362      1.0  0.03920  0.71643  0.62096  1.0000
  H   H448      1.0  0.01020  0.62239  0.59945  1.0000
  C   C363      1.0  0.04564  0.71305  0.58164  1.0000
  C   C364      1.0  0.44222  0.56829  0.55580  1.0000
  C   C365      1.0  0.01080  0.65626  0.68084  1.0000
  C   C366      1.0  0.02475  0.72476  0.62275  1.0000
  S   S100      1.0  0.98993  0.61811  0.00698  1.0000
  H   H449      1.0  0.97197  0.63293  0.61312  1.0000
  H   H450      1.0  0.41777  0.54078  0.54576  1.0000
  C   C367      1.0  0.03473  0.66055  0.60819  1.0000
  H   H451      1.0  0.00961  0.67970  0.59237  1.0000
  H   H452      1.0  0.01677  0.63546  0.55062  1.0000
  C   C368      1.0  0.43720  0.53900  0.59634  1.0000
  H   H453      1.0  0.05697  0.70680  0.57997  1.0000
  H   H454      1.0  0.99179  0.62745  0.56785  1.0000
  H   H455      1.0  0.46909  0.50453  0.84609  1.0000
  H   H456      1.0  0.01979  0.72755  0.65285  1.0000
  C   C369      1.0  0.99983  0.65265  0.71776  1.0000
  C   C370      1.0  0.97927  0.64187  0.71696  1.0000
  C   C371      1.0  0.98030  0.63836  0.64184  1.0000
  H   H457      1.0  0.97335  0.60649  0.92228  1.0000
  H   H458      1.0  0.42881  0.52367  0.60231  1.0000
  C   C372      1.0  0.43107  0.54866  0.56439  1.0000
  C   C373      1.0  0.45424  0.54904  0.62038  1.0000
  C   C374      1.0  0.00685  0.66589  0.57551  1.0000
  H   H459      1.0  0.00740  0.65832  0.74729  1.0000
  H   H460      1.0  0.46470  0.51802  0.95705  1.0000
  H   H461      1.0  0.99072  0.65972  0.56652  1.0000
  C   C375      1.0  0.02308  0.72604  0.54616  1.0000
  H   H462      1.0  0.00594  0.73641  0.58704  1.0000
  H   H463      1.0  0.97812  0.62523  0.85531  1.0000
  H   H464      1.0  0.01555  0.66974  0.54599  1.0000
  H   H465      1.0  0.42792  0.49896  0.95720  1.0000
  C   C376      1.0  0.46550  0.56866  0.61209  1.0000
  Fe  Fe51      1.0  0.05288  0.73753  0.81328  1.0000
  C   C377      1.0  0.01685  0.72965  0.58547  1.0000
  H   H466      1.0  0.45915  0.54146  0.64499  1.0000
  C   C378      1.0  0.46090  0.61155  0.57890  1.0000
  H   H467      1.0  0.46577  0.48970  0.70870  1.0000
  S   S101      1.0  0.97271  0.51772  0.99241  1.0000
  H   H468      1.0  0.97098  0.63909  0.74588  1.0000
  Fe  Fe52      1.0  0.19726  0.88358  0.22978  1.0000
  S   S102      1.0  0.17262  0.89365  0.24687  1.0000
  S   S103      1.0  0.20559  0.87932  0.16314  1.0000
  Fe  Fe53      1.0  0.21102  0.88299  0.32172  1.0000
  S   S104      1.0  0.18714  0.89269  0.34434  1.0000
  S   S105      1.0  0.23142  0.87765  0.37196  1.0000
  Fe  Fe54      1.0  0.16624  0.87117  0.29904  1.0000
  S   S106      1.0  0.13451  0.85371  0.32234  1.0000
  Fe  Fe55      1.0  0.19582  0.91391  0.29061  1.0000
  S   S107      1.0  0.20065  0.94523  0.30441  1.0000
  S   S108      1.0  0.18966  0.85989  0.27952  1.0000
  S   S109      1.0  0.22096  0.90536  0.27040  1.0000
  H   H469      1.0  0.24829  0.92975  0.10258  1.0000
  S   S110      1.0  0.30603  0.94950  0.44305  1.0000
  S   S111      1.0  0.35982  0.97592  0.47122  1.0000
  C   C379      1.0  0.21675  0.95258  0.12805  1.0000
  H   H470      1.0  0.27131  0.90159  0.29126  1.0000
  S   S112      1.0  0.08331  0.76230  0.33951  1.0000
  H   H471      1.0  0.01547  0.76405  0.22065  1.0000
  C   C380      1.0  0.28766  0.88971  0.33314  1.0000
  H   H472      1.0  0.20840  0.97459  0.43788  1.0000
  H   H473      1.0  0.27625  0.87513  0.33176  1.0000
  H   H474      1.0  0.25643  0.97202  0.10955  1.0000
  N   N26       1.0  0.23684  0.97382  0.41886  1.0000
  C   C381      1.0  0.24494  0.97328  0.46181  1.0000
  H   H475      1.0  0.17761  0.93249  0.19575  1.0000
  C   C382      1.0  0.21916  0.96318  0.27495  1.0000
  H   H476      1.0  0.18321  0.82840  0.37873  1.0000
  S   S113      1.0  0.39886  0.95024  0.47945  1.0000
  C   C383      1.0  0.23003  0.95799  0.24499  1.0000
  H   H477      1.0  0.21080  0.94578  0.04547  1.0000
  H   H478      1.0  0.23665  0.96307  0.35622  1.0000
  H   H479      1.0  0.22713  0.94288  0.23947  1.0000
  C   C384      1.0  0.12035  0.82823  0.32574  1.0000
  C   C385      1.0  0.10150  0.82166  0.34495  1.0000
  C   C386      1.0  0.08992  0.80160  0.34947  1.0000
  C   C387      1.0  0.09707  0.78783  0.33468  1.0000
  C   C388      1.0  0.11594  0.79440  0.31551  1.0000
  C   C389      1.0  0.12751  0.81445  0.31094  1.0000
  H   H480      1.0  0.09584  0.83217  0.35662  1.0000
  H   H481      1.0  0.07557  0.79685  0.36470  1.0000
  H   H482      1.0  0.12164  0.78388  0.30399  1.0000
  H   H483      1.0  0.14190  0.81921  0.29587  1.0000
  C   C390      1.0  0.25157  0.89777  0.39320  1.0000
  C   C391      1.0  0.26308  0.89493  0.42706  1.0000
  C   C392      1.0  0.27961  0.91060  0.44349  1.0000
  C   C393      1.0  0.28499  0.92917  0.42553  1.0000
  C   C394      1.0  0.27339  0.93198  0.39190  1.0000
  C   C395      1.0  0.25664  0.91646  0.37614  1.0000
  H   H484      1.0  0.25920  0.88054  0.44061  1.0000
  H   H485      1.0  0.28814  0.90825  0.46988  1.0000
  H   H486      1.0  0.27758  0.94619  0.37741  1.0000
  H   H487      1.0  0.24800  0.91885  0.34999  1.0000
  H   H488      1.0  0.24533  0.93980  0.15181  1.0000
  C   C396      1.0  0.12759  0.79111  0.43643  1.0000
  C   C397      1.0  0.24304  0.96246  0.38808  1.0000
  C   C398      1.0  0.46674  0.98700  0.49115  1.0000
  C   C399      1.0  0.34950  0.90565  0.37312  1.0000
  H   H489      1.0  0.20802  0.96502  0.38692  1.0000
  H   H490      1.0  0.18654  0.85338  0.37115  1.0000
  C   C400      1.0  0.20066  0.88129  0.07760  1.0000
  C   C401      1.0  0.19279  0.88241  0.11703  1.0000
  C   C402      1.0  0.17553  0.88674  0.11879  1.0000
  C   C403      1.0  0.16653  0.89036  0.08159  1.0000
  H   H491      1.0  0.21401  0.87794  0.07590  1.0000
  H   H492      1.0  0.16925  0.88758  0.14883  1.0000
  H   H493      1.0  0.15339  0.89405  0.08333  1.0000
  H   H494      1.0  0.25954  0.96822  0.38462  1.0000
  H   H495      1.0  0.43347  0.97985  0.09522  1.0000
  C   C404      1.0  0.19193  0.96306  0.18271  1.0000
  C   C405      1.0  0.15956  0.85311  0.43032  1.0000
  C   C406      1.0  0.42492  0.96451  0.48557  1.0000
  C   C407      1.0  0.25839  0.96378  0.47182  1.0000
  H   H496      1.0  0.22566  0.91905  0.12999  1.0000
  H   H497      1.0  0.20872  0.95064  0.43230  1.0000
  C   C408      1.0  0.13956  0.80991  0.42339  1.0000
  C   C409      1.0  0.26563  0.96351  0.51282  1.0000
  H   H498      1.0  0.16254  0.83487  0.36177  1.0000
  H   H499      1.0  0.03390  0.74476  0.24207  1.0000
  C   C410      1.0  0.35087  0.93726  0.39200  1.0000
  H   H500      1.0  0.29657  0.93511  0.29544  1.0000
  H   H501      1.0  0.34115  0.88964  0.37399  1.0000
  C   C411      1.0  0.13398  0.78220  0.46937  1.0000
  H   H502      1.0  0.24204  0.97305  0.06290  1.0000
  Fe  Fe56      1.0  0.05237  0.74319  0.36474  1.0000
  H   H503      1.0  0.30575  0.98707  0.46886  1.0000
  C   C412      1.0  0.22291  0.98295  0.28120  1.0000
  H   H504      1.0  0.15452  0.85347  0.46291  1.0000
  C   C413      1.0  0.31950  0.91270  0.36238  1.0000
  H   H505      1.0  0.18749  0.85098  0.48485  1.0000
  N   N27       1.0  0.33754  0.91637  0.38949  1.0000
  C   C414      1.0  0.31612  0.92762  0.33860  1.0000
  H   H506      1.0  0.19902  0.86417  0.43878  1.0000
  H   H507      1.0  0.36394  0.93962  0.41375  1.0000
  H   H508      1.0  0.16875  0.86829  0.42056  1.0000
  H   H509      1.0  0.12461  0.76762  0.47940  1.0000
  C   C415      1.0  0.21898  0.97231  0.13302  1.0000
  H   H510      1.0  0.35378  0.90992  0.34000  1.0000
  C   C416      1.0  0.15844  0.82037  0.44268  1.0000
  H   H511      1.0  0.11329  0.78339  0.42070  1.0000
  H   H512      1.0  0.43396  0.94157  0.46496  1.0000
  C   C417      1.0  0.45987  0.96758  0.47846  1.0000
  H   H513      1.0  0.14601  0.84852  0.40948  1.0000
  N   N28       1.0  0.04560  0.77613  0.24640  1.0000
  C   C418      1.0  0.02952  0.77727  0.21782  1.0000
  C   C419      1.0  0.04815  0.75759  0.23774  1.0000
  C   C420      1.0  0.03876  0.77503  0.29018  1.0000
  C   C421      1.0  0.06415  0.79362  0.24088  1.0000
  C   C422      1.0  0.08262  0.79264  0.22848  1.0000
  C   C423      1.0  0.06414  0.81243  0.24828  1.0000
  C   C424      1.0  0.09981  0.80951  0.22355  1.0000
  C   C425      1.0  0.08150  0.82916  0.24379  1.0000
  C   C426      1.0  0.09929  0.82770  0.23138  1.0000
  H   H514      1.0  0.03428  0.77868  0.18456  1.0000
  C   C427      1.0  0.18905  0.94359  0.17785  1.0000
  H   H515      1.0  0.02534  0.78984  0.22482  1.0000
  H   H516      1.0  0.05284  0.75711  0.20493  1.0000
  H   H517      1.0  0.25186  0.96817  0.19625  1.0000
  H   H518      1.0  0.05941  0.75534  0.25965  1.0000
  H   H519      1.0  0.03493  0.78763  0.29874  1.0000
  C   C428      1.0  0.19010  0.84931  0.45114  1.0000
  H   H520      1.0  0.05060  0.77451  0.31266  1.0000
  H   H521      1.0  0.08437  0.77904  0.22337  1.0000
  H   H522      1.0  0.05077  0.81434  0.25828  1.0000
  H   H523      1.0  0.11386  0.80845  0.21498  1.0000
  H   H524      1.0  0.08134  0.84335  0.25072  1.0000
  H   H525      1.0  0.11286  0.84066  0.22902  1.0000
  C   C429      1.0  0.15240  0.79205  0.48928  1.0000
  N   N29       1.0  0.22945  0.94665  0.09978  1.0000
  H   H526      1.0  0.46678  0.96947  0.36330  1.0000
  H   H527      1.0  0.17868  0.81757  0.49282  1.0000
  C   C430      1.0  0.21458  0.96572  0.41918  1.0000
  H   H528      1.0  0.23771  0.94677  0.39707  1.0000
  C   C431      1.0  0.29905  0.92352  0.31284  1.0000
  H   H529      1.0  0.19993  0.84087  0.44828  1.0000
  H   H530      1.0  0.35720  0.94323  0.36096  1.0000
  C   C432      1.0  0.17595  0.83909  0.38290  1.0000
  H   H531      1.0  0.34269  0.94611  0.40421  1.0000
  H   H532      1.0  0.20404  0.92333  0.07357  1.0000
  H   H533      1.0  0.36360  0.90863  0.39189  1.0000
  H   H534      1.0  0.13392  0.81620  0.39786  1.0000
  H   H535      1.0  0.26344  0.95627  0.44874  1.0000
  C   C433      1.0  0.20115  0.93837  0.15079  1.0000
  C   C434      1.0  0.24399  0.97234  0.22033  1.0000
  C   C435      1.0  0.16457  0.81085  0.47622  1.0000
  C   C436      1.0  0.28482  0.90463  0.31026  1.0000
  H   H536      1.0  0.19826  0.92308  0.14812  1.0000
  C   C437      1.0  0.33151  0.90953  0.43290  1.0000
  H   H537      1.0  0.27574  0.95602  0.51977  1.0000
  H   H538      1.0  0.32625  0.94264  0.33978  1.0000
  C   C438      1.0  0.30479  0.89357  0.35850  1.0000
  N   N30       1.0  0.17090  0.84012  0.42738  1.0000
  C   C439      1.0  0.17456  0.88954  0.04221  1.0000
  C   C440      1.0  0.23751  0.93332  0.12206  1.0000
  H   H539      1.0  0.32249  0.89370  0.43496  1.0000
  H   H540      1.0  0.34481  0.91218  0.45400  1.0000
  H   H541      1.0  0.32241  0.91724  0.44617  1.0000
  H   H542      1.0  0.30629  0.88144  0.37537  1.0000
  S   S114      1.0  0.02679  0.75128  0.38518  1.0000
  C   C441      1.0  0.43909  0.95650  0.47523  1.0000
  Fe  Fe57      1.0  0.33030  0.95430  0.49384  1.0000
  H   H543      1.0  0.02500  0.76182  0.29562  1.0000
  H   H544      1.0  0.18291  0.96708  0.20466  1.0000
  Fe  Fe58      1.0  0.37460  0.95880  0.50774  1.0000
  H   H545      1.0  0.15729  0.78502  0.51492  1.0000
  H   H546      1.0  0.25666  0.95835  0.06380  1.0000
  C   C442      1.0  0.24688  0.96328  0.08342  1.0000
  S   S115      1.0  0.34498  0.93578  0.52650  1.0000
  H   H547      1.0  0.45736  0.97813  0.30055  1.0000
  C   C443      1.0  0.21705  0.93631  0.06348  1.0000
  C   C444      1.0  0.19159  0.88479  0.04032  1.0000
  H   H548      1.0  0.23050  0.98425  0.11755  1.0000
  H   H549      1.0  0.29067  0.97760  0.32645  1.0000
  H   H550      1.0  0.22574  0.93110  0.04156  1.0000
  H   H551      1.0  0.21447  0.98706  0.30424  1.0000
  C   C445      1.0  0.23957  0.98266  0.49522  1.0000
  H   H552      1.0  0.30469  0.98261  0.39719  1.0000
  H   H553      1.0  0.45811  0.97520  0.22444  1.0000
  C   C446      1.0  0.20675  0.97737  0.16012  1.0000
  C   C447      1.0  0.43179  0.98378  0.49921  1.0000
  H   H554      1.0  0.47054  0.96108  0.47103  1.0000
  H   H555      1.0  0.28643  0.96565  0.88356  1.0000
  C   C448      1.0  0.19180  0.84276  0.81979  1.0000
  S   S116      1.0  0.07793  0.75907  0.85398  1.0000
  Fe  Fe59      1.0  0.17376  0.89432  0.93025  1.0000
  S   S117      1.0  0.17859  0.86821  0.90620  1.0000
  S   S118      1.0  0.16357  0.89573  0.99672  1.0000
  Fe  Fe60      1.0  0.18341  0.91620  0.84506  1.0000
  S   S119      1.0  0.18863  0.89143  0.81507  1.0000
  S   S120      1.0  0.18720  0.94569  0.81504  1.0000
  Fe  Fe61      1.0  0.16117  0.87113  0.84884  1.0000
  S   S121      1.0  0.13871  0.84584  0.81093  1.0000
  Fe  Fe62      1.0  0.20531  0.89038  0.87477  1.0000
  S   S122      1.0  0.23564  0.88832  0.87012  1.0000
  S   S123      1.0  0.15452  0.89615  0.87460  1.0000
  S   S124      1.0  0.20185  0.91633  0.90303  1.0000
  H   H556      1.0  0.17025  0.80734  0.79064  1.0000
  H   H557      1.0  0.26841  0.94226  0.83040  1.0000
  C   C449      1.0  0.41736  0.95238  0.88829  1.0000
  Fe  Fe63      1.0  0.37523  0.98097  0.94999  1.0000
  C   C450      1.0  0.18906  0.82678  0.88743  1.0000
  H   H558      1.0  0.20490  0.81447  0.79604  1.0000
  Fe  Fe64      1.0  0.34763  0.95466  0.58294  1.0000
  S   S125      1.0  0.34308  0.94233  0.64914  1.0000
  H   H559      1.0  0.00881  0.78985  0.79473  1.0000
  Fe  Fe65      1.0  0.33026  0.97259  0.94897  1.0000
  S   S126      1.0  0.29980  0.95527  0.97571  1.0000
  H   H560      1.0  0.26523  0.96172  0.91464  1.0000
  C   C451      1.0  0.20703  0.84304  0.95115  1.0000
  H   H561      1.0  0.20461  0.80463  0.84820  1.0000
  S   S127      1.0  0.34970  0.96354  0.90651  1.0000
  H   H562      1.0  0.05129  0.77737  0.82939  1.0000
  H   H563      1.0  0.39125  0.96091  0.69808  1.0000
  C   C452      1.0  0.08050  0.85025  0.80384  1.0000
  C   C453      1.0  0.25495  0.94575  0.83614  1.0000
  H   H564      1.0  0.24565  0.94253  0.80678  1.0000
  H   H565      1.0  0.10466  0.86266  0.84856  1.0000
  C   C454      1.0  0.34593  0.95798  0.69213  1.0000
  C   C455      1.0  0.34758  0.95135  0.73309  1.0000
  C   C456      1.0  0.35028  0.96366  0.76778  1.0000
  H   H566      1.0  0.45724  0.92045  0.97034  1.0000
  C   C457      1.0  0.06959  0.81659  0.85351  1.0000
  H   H567      1.0  0.26501  0.97202  0.57694  1.0000
  H   H568      1.0  0.34689  0.93665  0.73798  1.0000
  H   H569      1.0  0.35170  0.95846  0.79912  1.0000
  C   C458      1.0  0.42342  0.98045  0.61844  1.0000
  C   C459      1.0  0.25395  0.90564  0.90139  1.0000
  C   C460      1.0  0.24847  0.91251  0.93775  1.0000
  C   C461      1.0  0.26288  0.92728  0.96101  1.0000
  C   C462      1.0  0.28278  0.93551  0.94772  1.0000
  C   C463      1.0  0.28837  0.92850  0.91162  1.0000
  C   C464      1.0  0.27400  0.91341  0.88876  1.0000
  H   H570      1.0  0.23312  0.90636  0.94810  1.0000
  H   H571      1.0  0.42629  0.95570  0.01798  1.0000
  H   H572      1.0  0.30371  0.93477  0.90121  1.0000
  H   H573      1.0  0.27830  0.90815  0.86061  1.0000
  C   C465      1.0  0.20226  0.95831  0.77211  1.0000
  C   C466      1.0  0.21314  0.95012  0.74838  1.0000
  C   C467      1.0  0.22503  0.96076  0.71495  1.0000
  H   H574      1.0  0.23426  0.95938  0.88761  1.0000
  H   H575      1.0  0.21223  0.93551  0.75548  1.0000
  H   H576      1.0  0.43270  0.97658  0.59673  1.0000
  H   H577      1.0  0.23323  0.95419  0.69663  1.0000
  C   C468      1.0  0.09480  0.78316  0.84138  1.0000
  C   C469      1.0  0.09593  0.79101  0.80089  1.0000
  C   C470      1.0  0.10935  0.81019  0.79236  1.0000
  C   C471      1.0  0.12184  0.82185  0.82407  1.0000
  C   C472      1.0  0.12079  0.81398  0.86459  1.0000
  C   C473      1.0  0.10737  0.79477  0.87310  1.0000
  H   H578      1.0  0.08666  0.78222  0.77599  1.0000
  H   H579      1.0  0.11009  0.81605  0.76087  1.0000
  H   H580      1.0  0.13019  0.82275  0.88940  1.0000
  H   H581      1.0  0.10665  0.78888  0.90457  1.0000
  H   H582      1.0  0.41262  0.95235  0.64875  1.0000
  H   H583      1.0  0.22019  0.84735  0.89109  1.0000
  H   H584      1.0  0.09467  0.83321  0.89318  1.0000
  H   H585      1.0  0.05584  0.83471  0.76393  1.0000
  C   C474      1.0  0.16983  0.80931  0.82508  1.0000
  N   N31       1.0  0.26036  0.96624  0.84875  1.0000
  H   H586      1.0  0.43442  0.91752  0.91905  1.0000
  H   H587      1.0  0.19795  0.88416  0.01022  1.0000
  C   C475      1.0  0.27341  0.97005  0.88695  1.0000
  H   H588      1.0  0.34503  0.98207  0.65488  1.0000
  C   C476      1.0  0.43436  0.97023  0.00597  1.0000
  C   C477      1.0  0.17241  0.82132  0.95562  1.0000
  C   C478      1.0  0.08585  0.83335  0.86523  1.0000
  C   C479      1.0  0.34663  0.97693  0.68617  1.0000
  C   C480      1.0  0.20376  0.97739  0.76237  1.0000
  H   H589      1.0  0.16651  0.79484  0.84029  1.0000
  C   C481      1.0  0.43516  0.93203  0.91166  1.0000
  H   H590      1.0  0.40348  0.92147  0.89658  1.0000
  C   C482      1.0  0.40017  0.97162  0.67551  1.0000
  H   H591      1.0  0.46274  0.94339  0.99535  1.0000
  H   H592      1.0  0.17957  0.84783  0.82737  1.0000
  C   C483      1.0  0.17188  0.81767  0.91260  1.0000
  C   C484      1.0  0.41740  0.93408  0.89842  1.0000
  C   C485      1.0  0.27109  0.97916  0.81392  1.0000
  H   H593      1.0  0.20622  0.85455  0.82887  1.0000
  H   H594      1.0  0.29785  0.97189  0.81906  1.0000
  H   H595      1.0  0.24613  0.93542  0.86067  1.0000
  C   C486      1.0  0.09149  0.85002  0.84017  1.0000
  H   H596      1.0  0.15696  0.81384  0.82982  1.0000
  H   H597      1.0  0.46598  0.91919  0.89728  1.0000
  C   C487      1.0  0.20668  0.83947  0.90819  1.0000
  S   S128      1.0  0.33046  0.97122  0.55193  1.0000
  C   C488      1.0  0.20541  0.81784  0.83002  1.0000
  C   C489      1.0  0.42381  0.98006  0.98398  1.0000
  H   H598      1.0  0.23020  0.96423  0.83455  1.0000
  C   C490      1.0  0.06394  0.83373  0.79222  1.0000
  H   H599      1.0  0.15770  0.80798  0.89974  1.0000
  H   H600      1.0  0.05799  0.79137  0.75646  1.0000
  S   S129      1.0  0.04314  0.74584  0.75108  1.0000
  C   C491      1.0  0.22639  0.97978  0.70496  1.0000
  C   C492      1.0  0.41217  0.96678  0.64775  1.0000
  C   C493      1.0  0.04367  0.79372  0.75911  1.0000
  H   H601      1.0  0.02505  0.76838  0.81795  1.0000
  C   C494      1.0  0.05818  0.81624  0.81628  1.0000
  C   C495      1.0  0.45342  0.94841  0.91594  1.0000
  H   H602      1.0  0.03122  0.78019  0.74865  1.0000
  C   C496      1.0  0.18991  0.83404  0.97481  1.0000
  H   H603      1.0  0.04396  0.80512  0.73591  1.0000
  H   H604      1.0  0.40346  0.95402  0.87923  1.0000
  S   S130      1.0  0.39746  0.96832  0.97691  1.0000
  H   H605      1.0  0.22045  0.82934  0.83600  1.0000
  H   H606      1.0  0.02268  0.81485  0.78216  1.0000
  H   H607      1.0  0.15903  0.81457  0.97406  1.0000
  N   N32       1.0  0.18888  0.82407  0.84147  1.0000
  H   H608      1.0  0.06665  0.80401  0.87367  1.0000
  H   H609      1.0  0.19010  0.83722  0.00792  1.0000
  C   C497      1.0  0.03786  0.78134  0.82940  1.0000
  H   H610      1.0  0.01975  0.80707  0.83606  1.0000
  C   C498      1.0  0.02224  0.80286  0.80396  1.0000
  N   N33       1.0  0.04086  0.79879  0.80270  1.0000
  S   S131      1.0  0.37806  0.97613  0.56604  1.0000
  H   H611      1.0  0.22052  0.85332  0.96583  1.0000
  H   H612      1.0  0.03446  0.78353  0.86231  1.0000
  C   C499      1.0  0.35123  0.98269  0.76169  1.0000
  H   H613      1.0  0.19174  0.84146  0.78509  1.0000
  C   C500      1.0  0.29050  0.98031  0.80268  1.0000
  H   H614      1.0  0.08507  0.86326  0.78436  1.0000
  H   H615      1.0  0.25851  0.93260  0.98899  1.0000
  S   S132      1.0  0.99071  0.74684  0.76674  1.0000
  C   C501      1.0  0.24160  0.96873  0.86032  1.0000
  C   C502      1.0  0.45290  0.96687  0.90483  1.0000
  C   C503      1.0  0.25966  0.97249  0.54499  1.0000
  H   H616      1.0  0.19548  0.98392  0.78060  1.0000
  C   C504      1.0  0.46831  0.93562  0.97231  1.0000
  H   H617      1.0  0.46307  0.97166  0.03105  1.0000
  C   C505      1.0  0.45522  0.97916  0.01314  1.0000
  H   H618      1.0  0.27940  0.98575  0.89504  1.0000
  C   C506      1.0  0.43511  0.96868  0.89095  1.0000
  H   H619      1.0  0.24447  0.98405  0.86863  1.0000
  H   H620      1.0  0.43488  0.98292  0.88375  1.0000
  H   H621      1.0  0.46587  0.98025  0.90764  1.0000
  C   C507      1.0  0.24661  0.98199  0.53620  1.0000
  S   S133      1.0  0.35511  0.98752  0.99524  1.0000
  Fe  Fe66      1.0  0.71551  0.06767  0.10865  1.0000
  S   S134      1.0  0.70973  0.09075  0.14466  1.0000
  Fe  Fe67      1.0  0.70304  0.03789  0.18161  1.0000
  S   S135      1.0  0.69725  0.05908  0.22343  1.0000
  S   S136      1.0  0.69404  0.00528  0.19309  1.0000
  Fe  Fe68      1.0  0.68211  0.06605  0.16674  1.0000
  S   S137      1.0  0.65132  0.06627  0.17736  1.0000
  Fe  Fe69      1.0  0.72558  0.08208  0.19794  1.0000
  S   S138      1.0  0.74832  0.10432  0.24129  1.0000
  S   S139      1.0  0.68648  0.04383  0.12586  1.0000
  S   S140      1.0  0.73286  0.06003  0.16099  1.0000
  Fe  Fe70      1.0  0.83313  0.21421  0.23097  1.0000
  H   H622      1.0  0.62963  0.02447  0.28101  1.0000
  S   S141      1.0  0.80463  0.19262  0.19940  1.0000
  H   H623      1.0  0.60443  0.01951  0.26267  1.0000
  C   C508      1.0  0.84782  0.15568  0.11460  1.0000
  S   S142      1.0  0.85144  0.20755  0.28272  1.0000
  H   H624      1.0  0.48894  0.99346  0.18535  1.0000
  H   H625      1.0  0.85095  0.14287  0.12638  1.0000
  S   S143      1.0  0.85965  0.22912  0.18899  1.0000
  H   H626      1.0  0.84948  0.17497  0.18517  1.0000
  H   H627      1.0  0.51968  0.00547  0.36517  1.0000
  H   H628      1.0  0.56643  0.01484  0.25670  1.0000
  H   H629      1.0  0.69680  0.01657  0.28109  1.0000
  C   C509      1.0  0.80468  0.13363  0.08808  1.0000
  H   H630      1.0  0.84013  0.14943  0.19606  1.0000
  C   C510      1.0  0.81251  0.13903  0.12929  1.0000
  H   H631      1.0  0.82547  0.17393  0.08366  1.0000
  S   S144      1.0  0.54739  0.01765  0.45298  1.0000
  H   H632      1.0  0.83826  0.18815  0.12756  1.0000
  C   C511      1.0  0.80237  0.12638  0.16258  1.0000
  H   H633      1.0  0.91721  0.19933  0.36625  1.0000
  C   C512      1.0  0.78769  0.11680  0.08076  1.0000
  N   N34       1.0  0.83038  0.15711  0.13610  1.0000
  H   H634      1.0  0.84538  0.15410  0.08012  1.0000
  C   C513      1.0  0.83616  0.16117  0.18102  1.0000
  C   C514      1.0  0.48853  0.99532  0.21893  1.0000
  S   S145      1.0  0.90176  0.21214  0.23339  1.0000
  C   C515      1.0  0.77810  0.10477  0.11406  1.0000
  H   H635      1.0  0.81193  0.17405  0.12990  1.0000
  H   H636      1.0  0.63210  0.00634  0.51951  1.0000
  C   C516      1.0  0.85329  0.20732  0.48828  1.0000
  C   C517      1.0  0.84739  0.19928  0.44830  1.0000
  C   C518      1.0  0.84889  0.21138  0.41302  1.0000
  C   C519      1.0  0.78548  0.10949  0.15479  1.0000
  H   H637      1.0  0.84121  0.18364  0.44483  1.0000
  S   S146      1.0  0.49269  0.00217  0.49280  1.0000
  C   C520      1.0  0.63383  0.05380  0.13807  1.0000
  C   C521      1.0  0.71636  0.14572  0.13704  1.0000
  H   H638      1.0  0.68046  0.09389  0.23850  1.0000
  H   H639      1.0  0.93154  0.21951  0.33451  1.0000
  C   C522      1.0  0.59927  0.03552  0.11552  1.0000
  C   C523      1.0  0.61322  0.04611  0.14640  1.0000
  H   H640      1.0  0.72727  0.98867  0.29203  1.0000
  H   H641      1.0  0.66830  0.10822  0.18583  1.0000
  H   H642      1.0  0.58341  0.02948  0.12212  1.0000
  H   H643      1.0  0.60801  0.04818  0.17680  1.0000
  C   C524      1.0  0.76395  0.12878  0.22883  1.0000
  C   C525      1.0  0.76209  0.13765  0.19075  1.0000
  C   C526      1.0  0.77445  0.15723  0.18263  1.0000
  C   C527      1.0  0.78899  0.16816  0.21218  1.0000
  C   C528      1.0  0.79093  0.15925  0.25015  1.0000
  C   C529      1.0  0.77840  0.13973  0.25846  1.0000
  H   H644      1.0  0.75117  0.12941  0.16749  1.0000
  H   H645      1.0  0.77285  0.16390  0.15306  1.0000
  H   H646      1.0  0.80199  0.16742  0.27325  1.0000
  H   H647      1.0  0.77995  0.13305  0.28808  1.0000
  C   C530      1.0  0.62646  0.04123  0.06738  1.0000
  H   H648      1.0  0.80685  0.12935  0.19507  1.0000
  H   H649      1.0  0.82393  0.16296  0.19894  1.0000
  C   C531      1.0  0.82640  0.17398  0.11844  1.0000
  H   H650      1.0  0.86165  0.16890  0.11977  1.0000
  Fe  Fe71      1.0  0.87794  0.22437  0.24290  1.0000
  C   C532      1.0  0.50784  0.01105  0.37310  1.0000
  C   C533      1.0  0.69857  0.12902  0.20001  1.0000
  C   C534      1.0  0.68256  0.12213  0.13008  1.0000
  C   C535      1.0  0.92579  0.21534  0.36681  1.0000
  H   H651      1.0  0.72931  0.15097  0.19789  1.0000
  C   C536      1.0  0.68189  0.11899  0.17344  1.0000
  H   H652      1.0  0.72946  0.13403  0.25847  1.0000
  S   S147      1.0  0.53378  0.00760  0.08838  1.0000
  H   H653      1.0  0.65132  0.01077  0.24155  1.0000
  C   C537      1.0  0.68055  0.12828  0.26384  1.0000
  H   H654      1.0  0.78173  0.11299  0.04917  1.0000
  H   H655      1.0  0.68000  0.12610  0.29850  1.0000
  C   C538      1.0  0.71614  0.13677  0.26918  1.0000
  Fe  Fe72      1.0  0.51990  0.99424  0.48037  1.0000
  H   H656      1.0  0.63454  0.01132  0.44591  1.0000
  H   H657      1.0  0.93415  0.19955  0.23930  1.0000
  H   H658      1.0  0.80860  0.22470  0.45727  1.0000
  C   C539      1.0  0.63942  0.00640  0.21663  1.0000
  C   C540      1.0  0.94007  0.21490  0.24656  1.0000
  H   H659      1.0  0.51277  0.02655  0.36304  1.0000
  N   N35       1.0  0.61920  0.00229  0.23404  1.0000
  H   H660      1.0  0.50721  0.01101  0.40797  1.0000
  H   H661      1.0  0.65616  0.05766  0.09136  1.0000
  H   H662      1.0  0.60969  0.00002  0.46665  1.0000
  C   C541      1.0  0.64038  0.05137  0.09845  1.0000
  H   H663      1.0  0.84378  0.20507  0.38255  1.0000
  C   C542      1.0  0.96037  0.22416  0.25738  1.0000
  C   C543      1.0  0.61954  0.02055  0.25289  1.0000
  C   C544      1.0  0.92733  0.22521  0.24556  1.0000
  C   C545      1.0  0.68295  0.98966  0.31594  1.0000
  Fe  Fe73      1.0  0.56575  0.00715  0.49822  1.0000
  C   C546      1.0  0.69475  0.10408  0.25263  1.0000
  H   H664      1.0  0.68676  0.99662  0.34616  1.0000
  H   H665      1.0  0.47302  0.00785  0.40235  1.0000
  H   H666      1.0  0.88505  0.22763  0.35776  1.0000
  H   H667      1.0  0.65265  0.99028  0.42207  1.0000
  C   C547      1.0  0.68861  0.00102  0.27910  1.0000
  C   C548      1.0  0.60591  0.03311  0.07587  1.0000
  H   H668      1.0  0.69453  0.10028  0.28657  1.0000
  H   H669      1.0  0.71920  0.15258  0.26586  1.0000
  C   C549      1.0  0.62036  0.99827  0.44395  1.0000
  H   H670      1.0  0.72983  0.15596  0.12278  1.0000
  H   H671      1.0  0.71500  0.13325  0.30334  1.0000
  N   N36       1.0  0.69767  0.12477  0.24565  1.0000
  S   S148      1.0  0.59775  0.02366  0.52243  1.0000
  H   H672      1.0  0.70715  0.10090  0.23850  1.0000
  C   C550      1.0  0.71585  0.14267  0.18048  1.0000
  H   H673      1.0  0.68161  0.14339  0.25703  1.0000
  H   H674      1.0  0.66584  0.11818  0.25128  1.0000
  C   C551      1.0  0.50553  0.00767  0.24015  1.0000
  H   H675      1.0  0.81156  0.14250  0.06121  1.0000
  Fe  Fe74      1.0  0.85545  0.23694  0.30805  1.0000
  H   H676      1.0  0.64010  0.99362  0.19993  1.0000
  H   H677      1.0  0.86604  0.23384  0.52312  1.0000
  H   H678      1.0  0.61357  0.99844  0.41227  1.0000
  C   C552      1.0  0.54411  0.99279  0.21975  1.0000
  S   S149      1.0  0.55831  0.00413  0.34291  1.0000
  H   H679      1.0  0.62497  0.03302  0.23035  1.0000
  C   C553      1.0  0.85638  0.23158  0.41768  1.0000
  H   H680      1.0  0.76482  0.09183  0.10822  1.0000
  C   C554      1.0  0.60454  0.99703  0.19850  1.0000
  H   H681      1.0  0.70036  0.13761  0.07818  1.0000
  H   H682      1.0  0.51967  0.01841  0.29816  1.0000
  H   H683      1.0  0.64366  0.01860  0.19327  1.0000
  C   C555      1.0  0.86136  0.22750  0.49256  1.0000
  H   H684      1.0  0.66976  0.11385  0.11051  1.0000
  C   C556      1.0  0.90493  0.21850  0.42146  1.0000
  H   H685      1.0  0.91705  0.22253  0.44590  1.0000
  H   H686      1.0  0.54990  0.99956  0.18999  1.0000
  S   S150      1.0  0.72988  0.07339  0.04472  1.0000
  H   H687      1.0  0.88780  0.20540  0.34591  1.0000
  H   H688      1.0  0.58436  0.98866  0.27907  1.0000
  C   C557      1.0  0.50565  0.00920  0.28380  1.0000
  C   C558      1.0  0.89617  0.22136  0.34889  1.0000
  C   C559      1.0  0.69979  0.13544  0.11189  1.0000
  H   H689      1.0  0.77776  0.10019  0.18069  1.0000
  Fe  Fe75      1.0  0.54751  0.99437  0.40910  1.0000
  H   H690      1.0  0.89719  0.20238  0.42188  1.0000
  C   C560      1.0  0.54592  0.99280  0.29641  1.0000
  N   N37       1.0  0.91307  0.22603  0.37951  1.0000
  H   H691      1.0  0.60911  0.00809  0.17278  1.0000
  H   H692      1.0  0.89355  0.22421  0.43165  1.0000
  H   H693      1.0  0.51903  0.01548  0.22275  1.0000
  C   C561      1.0  0.55342  0.00140  0.25756  1.0000
  C   C562      1.0  0.63593  0.99373  0.52490  1.0000
  Fe  Fe76      1.0  0.55692  0.00173  0.05044  1.0000
  H   H694      1.0  0.93874  0.21802  0.38884  1.0000
  H   H695      1.0  0.58930  0.99575  0.20797  1.0000
  S   S151      1.0  0.58911  0.02047  0.03572  1.0000
  H   H696      1.0  0.63170  0.03971  0.03668  1.0000
  N   N38       1.0  0.48816  0.99898  0.35393  1.0000
  H   H697      1.0  0.47466  0.03871  0.10859  1.0000
  C   C563      1.0  0.48840  0.99846  0.30754  1.0000
  H   H698      1.0  0.96994  0.21587  0.25835  1.0000
  C   C564      1.0  0.68467  0.99210  0.23992  1.0000
  C   C565      1.0  0.47325  0.00699  0.36744  1.0000
  H   H699      1.0  0.90165  0.22718  0.31723  1.0000
  H   H700      1.0  0.47675  0.02190  0.35446  1.0000
  C   C566      1.0  0.81713  0.23738  0.47570  1.0000
  C   C567      1.0  0.81992  0.23525  0.51859  1.0000
  S   S152      1.0  0.85042  0.19188  0.53226  1.0000
  H   H701      1.0  0.81348  0.22103  0.53346  1.0000
  C   C568      1.0  0.70312  0.99607  0.76268  1.0000
  H   H702      1.0  0.74107  0.05973  0.71116  1.0000
  H   H703      1.0  0.64635  0.03433  0.91055  1.0000
  C   C569      1.0  0.60721  0.02852  0.57458  1.0000
  Fe  Fe77      1.0  0.85530  0.20535  0.59683  1.0000
  S   S153      1.0  0.83027  0.20940  0.63153  1.0000
  C   C570      1.0  0.68157  0.02086  0.92175  1.0000
  Fe  Fe78      1.0  0.84039  0.19565  0.68621  1.0000
  S   S154      1.0  0.81971  0.17265  0.73120  1.0000
  H   H704      1.0  0.90659  0.22020  0.76806  1.0000
  S   S155      1.0  0.86432  0.19002  0.65029  1.0000
  Fe  Fe79      1.0  0.68797  0.06719  0.81501  1.0000
  S   S156      1.0  0.71820  0.07079  0.79010  1.0000
  S   S157      1.0  0.67912  0.07347  0.87935  1.0000
  Fe  Fe80      1.0  0.66620  0.05355  0.73069  1.0000
  S   S158      1.0  0.69467  0.05637  0.69855  1.0000
  S   S159      1.0  0.63348  0.04135  0.70880  1.0000
  Fe  Fe81      1.0  0.70140  0.04259  0.75712  1.0000
  S   S160      1.0  0.71645  0.02114  0.75334  1.0000
  Fe  Fe82      1.0  0.70950  0.08454  0.73365  1.0000
  S   S161      1.0  0.73009  0.11166  0.69879  1.0000
  S   S162      1.0  0.67214  0.03771  0.78709  1.0000
  S   S163      1.0  0.68024  0.08294  0.76072  1.0000
  H   H705      1.0  0.80803  0.12263  0.57775  1.0000
  C   C571      1.0  0.62799  0.98952  0.67354  1.0000
  C   C572      1.0  0.80878  0.12168  0.68398  1.0000
  C   C573      1.0  0.62030  0.00348  0.80437  1.0000
  C   C574      1.0  0.62327  0.01465  0.84065  1.0000
  C   C575      1.0  0.62385  0.03694  0.65667  1.0000
  C   C576      1.0  0.63642  0.04036  0.62219  1.0000
  H   H706      1.0  0.58269  0.01007  0.92675  1.0000
  H   H707      1.0  0.74264  0.09030  0.64197  1.0000
  C   C577      1.0  0.59462  0.02491  0.60908  1.0000
  C   C578      1.0  0.60293  0.02920  0.64990  1.0000
  H   H708      1.0  0.65251  0.04633  0.62693  1.0000
  S   S164      1.0  0.86240  0.22444  0.71078  1.0000
  H   H709      1.0  0.57852  0.01908  0.60429  1.0000
  H   H710      1.0  0.59309  0.02649  0.67641  1.0000
  C   C579      1.0  0.79493  0.15557  0.72117  1.0000
  C   C580      1.0  0.78539  0.14147  0.75201  1.0000
  C   C581      1.0  0.76581  0.12756  0.74533  1.0000
  C   C582      1.0  0.75536  0.12781  0.70792  1.0000
  C   C583      1.0  0.76494  0.14182  0.67703  1.0000
  C   C584      1.0  0.78462  0.15554  0.68345  1.0000
  H   H711      1.0  0.79324  0.14133  0.78125  1.0000
  H   H712      1.0  0.75878  0.11688  0.76935  1.0000
  H   H713      1.0  0.75705  0.14216  0.64794  1.0000
  H   H714      1.0  0.79176  0.16618  0.65932  1.0000
  H   H715      1.0  0.73337  0.13014  0.89999  1.0000
  C   C585      1.0  0.76651  0.05875  0.65139  1.0000
  H   H716      1.0  0.67369  0.99716  0.76483  1.0000
  S   S165      1.0  0.87816  0.23462  0.61344  1.0000
  H   H717      1.0  0.67789  0.00349  0.86764  1.0000
  H   H718      1.0  0.63444  0.04469  0.94637  1.0000
  H   H719      1.0  0.60571  0.99365  0.63482  1.0000
  N   N39       1.0  0.76203  0.07584  0.66352  1.0000
  C   C586      1.0  0.67855  0.02137  0.96461  1.0000
  C   C587      1.0  0.71569  0.07381  0.99913  1.0000
  C   C588      1.0  0.72385  0.07357  0.95964  1.0000
  C   C589      1.0  0.71284  0.07355  0.92264  1.0000
  C   C590      1.0  0.69362  0.07391  0.92494  1.0000
  C   C591      1.0  0.68559  0.07453  0.96438  1.0000
  C   C592      1.0  0.69654  0.07438  0.00141  1.0000
  H   H720      1.0  0.73866  0.07311  0.95774  1.0000
  H   H721      1.0  0.71917  0.07306  0.89245  1.0000
  H   H722      1.0  0.67076  0.07491  0.96639  1.0000
  H   H723      1.0  0.68422  0.03508  0.98101  1.0000
  H   H724      1.0  0.62884  0.00130  0.94821  1.0000
  H   H725      1.0  0.63437  0.02928  0.83895  1.0000
  H   H726      1.0  0.82713  0.14168  0.63812  1.0000
  H   H727      1.0  0.78390  0.19210  0.77435  1.0000
  H   H728      1.0  0.78196  0.18656  0.85102  1.0000
  C   C593      1.0  0.75344  0.16236  0.84813  1.0000
  H   H729      1.0  0.77929  0.05781  0.67040  1.0000
  C   C594      1.0  0.59648  0.02328  0.92190  1.0000
  H   H730      1.0  0.73072  0.06428  0.64430  1.0000
  N   N40       1.0  0.61444  0.01843  0.91618  1.0000
  C   C595      1.0  0.77089  0.18077  0.78775  1.0000
  C   C596      1.0  0.78009  0.09377  0.65722  1.0000
  H   H731      1.0  0.71855  0.14526  0.89791  1.0000
  H   H732      1.0  0.73020  0.99020  0.76247  1.0000
  C   C597      1.0  0.75516  0.07282  0.70764  1.0000
  C   C598      1.0  0.78677  0.10039  0.61610  1.0000
  C   C599      1.0  0.61184  0.00708  0.87723  1.0000
  H   H733      1.0  0.63457  0.00475  0.68195  1.0000
  H   H734      1.0  0.63101  0.04734  0.89165  1.0000
  H   H735      1.0  0.63798  0.03932  0.55486  1.0000
  C   C600      1.0  0.63234  0.03693  0.91598  1.0000
  Fe  Fe83      1.0  0.88531  0.21990  0.67026  1.0000
  H   H736      1.0  0.81729  0.13020  0.71023  1.0000
  H   H737      1.0  0.75201  0.08548  0.71890  1.0000
  C   C601      1.0  0.80351  0.11750  0.60939  1.0000
  C   C602      1.0  0.79188  0.10477  0.69111  1.0000
  N   N41       1.0  0.72099  0.13276  0.83877  1.0000
  C   C603      1.0  0.72001  0.13198  0.88532  1.0000
  C   C604      1.0  0.70132  0.13228  0.82238  1.0000
  C   C605      1.0  0.72374  0.11503  0.82495  1.0000
  C   C606      1.0  0.73762  0.14995  0.82217  1.0000
  H   H738      1.0  0.77062  0.05942  0.61784  1.0000
  C   C607      1.0  0.73919  0.15381  0.77834  1.0000
  C   C608      1.0  0.75551  0.16908  0.76159  1.0000
  H   H739      1.0  0.75664  0.17137  0.72790  1.0000
  H   H740      1.0  0.76627  0.07023  0.72920  1.0000
  H   H741      1.0  0.70686  0.11922  0.89652  1.0000
  C   C609      1.0  0.74503  0.07652  0.63705  1.0000
  H   H742      1.0  0.69930  0.14607  0.82928  1.0000
  H   H743      1.0  0.68856  0.12001  0.83635  1.0000
  H   H744      1.0  0.69950  0.12995  0.78795  1.0000
  H   H745      1.0  0.73848  0.11488  0.83591  1.0000
  H   H746      1.0  0.71185  0.10168  0.83742  1.0000
  H   H747      1.0  0.72318  0.11387  0.79017  1.0000
  H   H748      1.0  0.72830  0.14454  0.75627  1.0000
  H   H749      1.0  0.75337  0.04490  0.65632  1.0000
  C   C610      1.0  0.92220  0.22990  0.76834  1.0000
  C   C611      1.0  0.66852  0.00418  0.98658  1.0000
  H   H750      1.0  0.59812  0.03252  0.94999  1.0000
  H   H751      1.0  0.77904  0.09250  0.58874  1.0000
  C   C612      1.0  0.76981  0.17750  0.83092  1.0000
  C   C613      1.0  0.81439  0.12821  0.64329  1.0000
  S   S166      1.0  0.53672  0.99257  0.99362  1.0000
  H   H752      1.0  0.74732  0.07546  0.60306  1.0000
  C   C614      1.0  0.62811  0.03629  0.58138  1.0000
  C   C615      1.0  0.64406  0.99224  0.56448  1.0000
  H   H753      1.0  0.78819  0.10092  0.72348  1.0000
  H   H754      1.0  0.62882  0.00969  0.77645  1.0000
  H   H755      1.0  0.75376  0.16046  0.88170  1.0000
  H   H756      1.0  0.66637  0.00471  0.02006  1.0000
  C   C616      1.0  0.61665  0.00679  0.95298  1.0000
  H   H757      1.0  0.68948  0.03425  0.90472  1.0000
  H   H758      1.0  0.92607  0.22749  0.83519  1.0000
  H   H759      1.0  0.62014  0.01544  0.98230  1.0000
  S   S167      1.0  0.49207  0.00975  0.00593  1.0000
  C   C617      1.0  0.93329  0.23405  0.80629  1.0000
  Fe  Fe84      1.0  0.85424  0.23760  0.65278  1.0000
  C   C618      1.0  0.67478  0.00313  0.90076  1.0000
  H   H760      1.0  0.64630  0.00349  0.58752  1.0000
  H   H761      1.0  0.60264  0.99414  0.95988  1.0000
  H   H762      1.0  0.59373  0.03130  0.89416  1.0000
  H   H763      1.0  0.69016  0.07463  0.03170  1.0000
  S   S168      1.0  0.91909  0.23107  0.68170  1.0000
  C   C619      1.0  0.93163  0.23753  0.73062  1.0000
  Fe  Fe85      1.0  0.51261  0.99534  0.03353  1.0000
  C   C620      1.0  0.84047  0.26953  0.52284  1.0000
  H   H764      1.0  0.91202  0.28643  0.22975  1.0000
  C   C621      1.0  0.83810  0.27226  0.47918  1.0000
  Fe  Fe86      1.0  0.86321  0.25692  0.22156  1.0000
  S   S169      1.0  0.87199  0.28834  0.19887  1.0000
  C   C622      1.0  0.93229  0.46559  0.46817  1.0000
  H   H765      1.0  0.82620  0.30203  0.48230  1.0000
  C   C623      1.0  0.94751  0.27995  0.11927  1.0000
  H   H766      1.0  0.94947  0.33549  0.05015  1.0000
  C   C624      1.0  0.87032  0.29732  0.46297  1.0000
  H   H767      1.0  0.89683  0.28767  0.05606  1.0000
  C   C625      1.0  0.94729  0.28929  0.08082  1.0000
  H   H768      1.0  0.96605  0.46935  0.14164  1.0000
  C   C626      1.0  0.84306  0.29241  0.41434  1.0000
  H   H769      1.0  0.93563  0.26613  0.12649  1.0000
  H   H770      1.0  0.97028  0.44203  0.10758  1.0000
  H   H771      1.0  0.87496  0.47023  0.52798  1.0000
  H   H772      1.0  0.95664  0.35414  0.11587  1.0000
  C   C627      1.0  0.92394  0.27969  0.39685  1.0000
  S   S170      1.0  0.92774  0.42786  0.03862  1.0000
  C   C628      1.0  0.47953  0.47445  0.39183  1.0000
  S   S171      1.0  0.85758  0.24738  0.37501  1.0000
  H   H773      1.0  0.96184  0.26987  0.27266  1.0000
  C   C629      1.0  0.94397  0.28840  0.38574  1.0000
  C   C630      1.0  0.88168  0.29847  0.14950  1.0000
  C   C631      1.0  0.88590  0.28752  0.11857  1.0000
  C   C632      1.0  0.89402  0.29634  0.08016  1.0000
  H   H774      1.0  0.94722  0.32443  0.29704  1.0000
  C   C633      1.0  0.89434  0.32724  0.10372  1.0000
  C   C634      1.0  0.88596  0.31835  0.14186  1.0000
  H   H775      1.0  0.88269  0.27222  0.12405  1.0000
  H   H776      1.0  0.89734  0.34249  0.09807  1.0000
  H   H777      1.0  0.88260  0.32692  0.16547  1.0000
  H   H778      1.0  0.96964  0.28402  0.36237  1.0000
  C   C635      1.0  0.91402  0.25953  0.39439  1.0000
  H   H779      1.0  0.92804  0.46161  0.43586  1.0000
  H   H780      1.0  0.95402  0.33882  0.39352  1.0000
  C   C636      1.0  0.93766  0.48508  0.48022  1.0000
  C   C637      1.0  0.48494  0.45876  0.45509  1.0000
  C   C638      1.0  0.93519  0.24514  0.25500  1.0000
  H   H781      1.0  0.49223  0.45977  0.48556  1.0000
  H   H782      1.0  0.84925  0.32099  0.46599  1.0000
  H   H783      1.0  0.89846  0.25349  0.40312  1.0000
  C   C639      1.0  0.48954  0.47537  0.43005  1.0000
  H   H784      1.0  0.91721  0.46102  0.05015  1.0000
  H   H785      1.0  0.90713  0.46745  0.12138  1.0000
  H   H786      1.0  0.93609  0.29026  0.20834  1.0000
  C   C640      1.0  0.94086  0.31115  0.27744  1.0000
  C   C641      1.0  0.92493  0.29707  0.21275  1.0000
  H   H787      1.0  0.92436  0.33774  0.25900  1.0000
  C   C642      1.0  0.82604  0.25555  0.45606  1.0000
  H   H788      1.0  0.87530  0.28731  0.44494  1.0000
  C   C643      1.0  0.86299  0.23956  0.45736  1.0000
  C   C644      1.0  0.93243  0.45118  0.49748  1.0000
  S   S172      1.0  0.94469  0.38181  0.04122  1.0000
  C   C645      1.0  0.89821  0.31621  0.07250  1.0000
  H   H789      1.0  0.82380  0.25592  0.42252  1.0000
  C   C646      1.0  0.91807  0.32340  0.24316  1.0000
  H   H790      1.0  0.96355  0.28069  0.17746  1.0000
  H   H791      1.0  0.89639  0.48647  0.06838  1.0000
  H   H792      1.0  0.90584  0.31330  0.26286  1.0000
  S   S173      1.0  0.88343  0.25295  0.27237  1.0000
  H   H793      1.0  0.91898  0.29899  0.18129  1.0000
  H   H794      1.0  0.91299  0.47832  0.19509  1.0000
  N   N42       1.0  0.93392  0.31563  0.23573  1.0000
  C   C647      1.0  0.96054  0.34927  0.14582  1.0000
  H   H795      1.0  0.93044  0.33059  0.15766  1.0000
  S   S174      1.0  0.93508  0.38937  0.51377  1.0000
  H   H796      1.0  0.92814  0.43624  0.48776  1.0000
  H   H797      1.0  0.95310  0.24896  0.35768  1.0000
  H   H798      1.0  0.86907  0.25510  0.46124  1.0000
  H   H799      1.0  0.91055  0.32534  0.21367  1.0000
  H   H800      1.0  0.95246  0.30471  0.27462  1.0000
  H   H801      1.0  0.91605  0.28858  0.40764  1.0000
  C   C648      1.0  0.95581  0.25458  0.26517  1.0000
  H   H802      1.0  0.92546  0.25322  0.25437  1.0000
  H   H803      1.0  0.87851  0.31237  0.45095  1.0000
  S   S175      1.0  0.83523  0.24267  0.25931  1.0000
  C   C649      1.0  0.92394  0.24740  0.38099  1.0000
  H   H804      1.0  0.87552  0.29715  0.49597  1.0000
  H   H805      1.0  0.95584  0.36023  0.45362  1.0000
  C   C650      1.0  0.95408  0.27704  0.37146  1.0000
  C   C651      1.0  0.94559  0.33595  0.17033  1.0000
  H   H806      1.0  0.84863  0.30876  0.51422  1.0000
  C   C652      1.0  0.84277  0.30641  0.48139  1.0000
  C   C653      1.0  0.96313  0.28816  0.14814  1.0000
  C   C654      1.0  0.96299  0.30718  0.07011  1.0000
  N   N43       1.0  0.84827  0.29167  0.45952  1.0000
  C   C655      1.0  0.94432  0.25682  0.36907  1.0000
  C   C656      1.0  0.90487  0.48047  0.13054  1.0000
  H   H807      1.0  0.92836  0.30041  0.29546  1.0000
  C   C657      1.0  0.95007  0.32975  0.21039  1.0000
  H   H808      1.0  0.84795  0.28252  0.39547  1.0000
  H   H809      1.0  0.85064  0.30723  0.40067  1.0000
  H   H810      1.0  0.82663  0.28833  0.40944  1.0000
  H   H811      1.0  0.95169  0.30399  0.38828  1.0000
  H   H812      1.0  0.96458  0.43844  0.49113  1.0000
  C   C658      1.0  0.96840  0.24398  0.26657  1.0000
  C   C659      1.0  0.96849  0.34783  0.40645  1.0000
  H   H813      1.0  0.93479  0.28207  0.05990  1.0000
  C   C660      1.0  0.90817  0.48662  0.17201  1.0000
  C   C661      1.0  0.96947  0.35999  0.44052  1.0000
  C   C662      1.0  0.96349  0.33649  0.03450  1.0000
  C   C663      1.0  0.97046  0.33765  0.22414  1.0000
  H   H814      1.0  0.48268  0.48764  0.37335  1.0000
  Fe  Fe87      1.0  0.92135  0.35838  0.00399  1.0000
  C   C664      1.0  0.94735  0.30613  0.99952  1.0000
  H   H815      1.0  0.49826  0.47299  0.84451  1.0000
  Fe  Fe88      1.0  0.93019  0.38388  0.92333  1.0000
  S   S176      1.0  0.95490  0.40877  0.95418  1.0000
  S   S177      1.0  0.91870  0.38698  0.85793  1.0000
  S   S178      1.0  0.96773  0.40515  0.59172  1.0000
  C   C665      1.0  0.86647  0.31859  0.60112  1.0000
  Fe  Fe89      1.0  0.93376  0.40315  0.00777  1.0000
  H   H816      1.0  0.84952  0.28145  0.54236  1.0000
  S   S179      1.0  0.94104  0.36120  0.94848  1.0000
  S   S180      1.0  0.90832  0.37919  0.97554  1.0000
  S   S181      1.0  0.84970  0.26601  0.65842  1.0000
  Fe  Fe90      1.0  0.94865  0.37915  0.62891  1.0000
  S   S182      1.0  0.91999  0.38311  0.61227  1.0000
  H   H817      1.0  0.95597  0.31122  0.79498  1.0000
  C   C666      1.0  0.93438  0.28623  0.68258  1.0000
  C   C667      1.0  0.96291  0.25452  0.76942  1.0000
  H   H818      1.0  0.91224  0.41286  0.91583  1.0000
  S   S183      1.0  0.94639  0.35862  0.57638  1.0000
  C   C668      1.0  0.86330  0.28665  0.62789  1.0000
  C   C669      1.0  0.88007  0.28786  0.60482  1.0000
  H   H819      1.0  0.89412  0.33496  0.79356  1.0000
  C   C670      1.0  0.93425  0.29596  0.64501  1.0000
  H   H820      1.0  0.89759  0.34767  0.74456  1.0000
  C   C671      1.0  0.91141  0.27391  0.80508  1.0000
  C   C672      1.0  0.85685  0.30226  0.62658  1.0000
  S   S184      1.0  0.90770  0.32635  0.02307  1.0000
  H   H821      1.0  0.95934  0.25582  0.70218  1.0000
  H   H822      1.0  0.86890  0.32136  0.71639  1.0000
  C   C673      1.0  0.93821  0.45620  0.53915  1.0000
  C   C674      1.0  0.87370  0.31062  0.73362  1.0000
  H   H823      1.0  0.94769  0.45328  0.85800  1.0000
  H   H824      1.0  0.90078  0.30932  0.67831  1.0000
  H   H825      1.0  0.96818  0.37008  0.78057  1.0000
  H   H826      1.0  0.47499  0.46667  0.99447  1.0000
  C   C675      1.0  0.95745  0.45904  0.00003  1.0000
  H   H827      1.0  0.86073  0.33012  0.59889  1.0000
  H   H828      1.0  0.95581  0.33401  0.77534  1.0000
  H   H829      1.0  0.86804  0.29712  0.71487  1.0000
  C   C676      1.0  0.93094  0.38409  0.81278  1.0000
  C   C677      1.0  0.92385  0.38750  0.77327  1.0000
  C   C678      1.0  0.93252  0.38442  0.73639  1.0000
  C   C679      1.0  0.94830  0.37780  0.73880  1.0000
  C   C680      1.0  0.95573  0.37483  0.77837  1.0000
  C   C681      1.0  0.94706  0.37794  0.81530  1.0000
  H   H830      1.0  0.91142  0.39231  0.77111  1.0000
  H   H831      1.0  0.92674  0.38683  0.70614  1.0000
  H   H832      1.0  0.83380  0.24960  0.57548  1.0000
  H   H833      1.0  0.95275  0.37544  0.84564  1.0000
  Fe  Fe91      1.0  0.91892  0.36417  0.55726  1.0000
  H   H834      1.0  0.88240  0.47002  0.58186  1.0000
  H   H835      1.0  0.89193  0.43212  0.85307  1.0000
  H   H836      1.0  0.86575  0.30713  0.76402  1.0000
  H   H837      1.0  0.94736  0.29151  0.99237  1.0000
  Fe  Fe92      1.0  0.93891  0.40807  0.57079  1.0000
  C   C682      1.0  0.90817  0.43510  0.85013  1.0000
  C   C683      1.0  0.91590  0.29195  0.82367  1.0000
  H   H838      1.0  0.88915  0.28077  0.71504  1.0000
  H   H839      1.0  0.91521  0.26272  0.82112  1.0000
  C   C684      1.0  0.89758  0.47862  0.92377  1.0000
  H   H840      1.0  0.48933  0.48065  0.89061  1.0000
  C   C685      1.0  0.96101  0.32464  0.67183  1.0000
  C   C686      1.0  0.96716  0.47897  0.99029  1.0000
  C   C687      1.0  0.90132  0.30313  0.76295  1.0000
  C   C688      1.0  0.89676  0.28450  0.74520  1.0000
  C   C689      1.0  0.91104  0.30644  0.80306  1.0000
  C   C690      1.0  0.48937  0.48138  0.85560  1.0000
  H   H841      1.0  0.94846  0.31402  0.96905  1.0000
  H   H842      1.0  0.88562  0.44840  0.91028  1.0000
  H   H843      1.0  0.95012  0.47908  0.89872  1.0000
  C   C691      1.0  0.93509  0.47816  0.90480  1.0000
  H   H844      1.0  0.90060  0.47520  0.54046  1.0000
  H   H845      1.0  0.94729  0.32265  0.61039  1.0000
  H   H846      1.0  0.94816  0.47971  0.58334  1.0000
  C   C692      1.0  0.90167  0.33672  0.76281  1.0000
  H   H847      1.0  0.90203  0.33365  0.68100  1.0000
  C   C693      1.0  0.94030  0.44308  0.88399  1.0000
  H   H848      1.0  0.92224  0.32766  0.70246  1.0000
  H   H849      1.0  0.96414  0.44885  0.99140  1.0000
  H   H850      1.0  0.92393  0.28859  0.61989  1.0000
  C   C694      1.0  0.90561  0.32227  0.69882  1.0000
  C   C695      1.0  0.94073  0.48587  0.02319  1.0000
  C   C696      1.0  0.88988  0.30437  0.57954  1.0000
  H   H851      1.0  0.91490  0.32003  0.81942  1.0000
  C   C697      1.0  0.93966  0.45253  0.02263  1.0000
  N   N44       1.0  0.96405  0.31692  0.02878  1.0000
  H   H852      1.0  0.88520  0.27593  0.60569  1.0000
  H   H853      1.0  0.89415  0.42297  0.92646  1.0000
  S   S185      1.0  0.93936  0.43892  0.57730  1.0000
  H   H854      1.0  0.94952  0.44776  0.91321  1.0000
  Fe  Fe93      1.0  0.96364  0.38548  0.98455  1.0000
  C   C698      1.0  0.88286  0.31964  0.57712  1.0000
  C   C699      1.0  0.90184  0.27019  0.76598  1.0000
  H   H855      1.0  0.92312  0.29467  0.85441  1.0000
  H   H856      1.0  0.91413  0.44619  0.82483  1.0000
  H   H857      1.0  0.91816  0.34329  0.76822  1.0000
  H   H858      1.0  0.89829  0.25610  0.75164  1.0000
  H   H859      1.0  0.91778  0.43167  0.95391  1.0000
  H   H860      1.0  0.94078  0.42875  0.87553  1.0000
  N   N45       1.0  0.89575  0.31801  0.74022  1.0000
  H   H861      1.0  0.93254  0.30447  0.01241  1.0000
  C   C700      1.0  0.91048  0.42674  0.92292  1.0000
  H   H862      1.0  0.92412  0.27126  0.68643  1.0000
  C   C701      1.0  0.94350  0.47567  0.55124  1.0000
  N   N46       1.0  0.91941  0.44177  0.89010  1.0000
  C   C702      1.0  0.95198  0.24991  0.73136  1.0000
  S   S186      1.0  0.95792  0.37158  0.69326  1.0000
  H   H863      1.0  0.90926  0.42132  0.83935  1.0000
  H   H864      1.0  0.88307  0.47888  0.93137  1.0000
  C   C703      1.0  0.94779  0.29556  0.71496  1.0000
  C   C704      1.0  0.89923  0.46124  0.91186  1.0000
  H   H865      1.0  0.84387  0.30142  0.64422  1.0000
  H   H866      1.0  0.96406  0.34413  0.00394  1.0000
  C   C705      1.0  0.91809  0.46040  0.90243  1.0000
  H   H867      1.0  0.91562  0.48477  0.60459  1.0000
  C   C706      1.0  0.88710  0.47763  0.55124  1.0000
  H   H868      1.0  0.90236  0.30494  0.56054  1.0000
  S   S187      1.0  0.96741  0.24938  0.85472  1.0000
  C   C707      1.0  0.96557  0.32570  0.78239  1.0000
  C   C708      1.0  0.95367  0.24629  0.80698  1.0000
  C   C709      1.0  0.83151  0.25132  0.54213  1.0000
  H   H869      1.0  0.94724  0.28734  0.74353  1.0000
  C   C710      1.0  0.94746  0.31514  0.63973  1.0000
  H   H870      1.0  0.47358  0.47365  0.84501  1.0000
  Fe  Fe94      1.0  0.96278  0.38496  0.53723  1.0000
  C   C711      1.0  0.96178  0.31497  0.71036  1.0000
  S   S188      1.0  0.89164  0.33798  0.53835  1.0000
  C   C712      1.0  0.93122  0.46601  0.03362  1.0000
  C   C713      1.0  0.94986  0.71204  0.24987  1.0000
  H   H871      1.0  0.79318  0.56382  0.17919  1.0000
  H   H872      1.0  0.93960  0.66897  0.10057  1.0000
  Fe  Fe95      1.0  0.58422  0.69606  0.33857  1.0000
  S   S189      1.0  0.60644  0.71722  0.38220  1.0000
  S   S190      1.0  0.56696  0.66343  0.34603  1.0000
  Fe  Fe96      1.0  0.59896  0.72385  0.26265  1.0000
  H   H873      1.0  0.91033  0.56347  0.15097  1.0000
  Fe  Fe97      1.0  0.62830  0.72124  0.33055  1.0000
  H   H874      1.0  0.62146  0.68873  0.49364  1.0000
  S   S191      1.0  0.60660  0.69927  0.28839  1.0000
  S   S192      1.0  0.47736  0.51621  0.46682  1.0000
  H   H875      1.0  0.96555  0.65574  0.47551  1.0000
  S   S193      1.0  0.52884  0.56204  0.47552  1.0000
  Fe  Fe98      1.0  0.86216  0.61940  0.12030  1.0000
  S   S194      1.0  0.89113  0.63943  0.09320  1.0000
  S   S195      1.0  0.84946  0.58669  0.11927  1.0000
  Fe  Fe99      1.0  0.85114  0.65213  0.15325  1.0000
  S   S196      1.0  0.87988  0.67523  0.12986  1.0000
  S   S197      1.0  0.82735  0.65705  0.19261  1.0000
  Fe  Fe100     1.0  0.87342  0.65709  0.07113  1.0000
  Fe  Fe101     1.0  0.89557  0.65579  0.15401  1.0000
  S   S198      1.0  0.92592  0.66078  0.18597  1.0000
  S   S199      1.0  0.84386  0.63559  0.09306  1.0000
  S   S200      1.0  0.86745  0.63426  0.18227  1.0000
  Fe  Fe102     1.0  0.69041  0.65350  0.21525  1.0000
  S   S201      1.0  0.66729  0.63138  0.25442  1.0000
  S   S202      1.0  0.68903  0.68249  0.19966  1.0000
  Fe  Fe103     1.0  0.70963  0.62577  0.18938  1.0000
  S   S203      1.0  0.68727  0.60068  0.22484  1.0000
  S   S204      1.0  0.73383  0.62411  0.14685  1.0000
  Fe  Fe104     1.0  0.66369  0.61145  0.20011  1.0000
  S   S205      1.0  0.63079  0.59435  0.18495  1.0000
  Fe  Fe105     1.0  0.69236  0.62251  0.27624  1.0000
  S   S206      1.0  0.69473  0.61215  0.34248  1.0000
  S   S207      1.0  0.68539  0.63427  0.15962  1.0000
  S   S208      1.0  0.71626  0.64692  0.24234  1.0000
  S   S209      1.0  0.68724  0.66087  0.49752  1.0000
  Fe  Fe106     1.0  0.91603  0.55791  0.47868  1.0000
  S   S210      1.0  0.94180  0.55143  0.50646  1.0000
  C   C714      1.0  0.77944  0.71436  0.11073  1.0000
  Fe  Fe107     1.0  0.93347  0.56458  0.39009  1.0000
  H   H876      1.0  0.60213  0.67788  0.42706  1.0000
  S   S211      1.0  0.92741  0.57450  0.32526  1.0000
  Fe  Fe108     1.0  0.93935  0.53378  0.44832  1.0000
  H   H877      1.0  0.63433  0.57627  0.38748  1.0000
  H   H878      1.0  0.82619  0.71285  0.11062  1.0000
  S   S212      1.0  0.91193  0.53841  0.42325  1.0000
  S   S213      1.0  0.93498  0.58444  0.44338  1.0000
  H   H879      1.0  0.78808  0.60644  0.27274  1.0000
  H   H880      1.0  0.53376  0.60297  0.42494  1.0000
  C   C715      1.0  0.69346  0.62620  0.38532  1.0000
  C   C716      1.0  0.69176  0.64422  0.37940  1.0000
  C   C717      1.0  0.69009  0.65480  0.41423  1.0000
  C   C718      1.0  0.69004  0.64740  0.45505  1.0000
  C   C719      1.0  0.69191  0.62946  0.46104  1.0000
  C   C720      1.0  0.69364  0.61890  0.42619  1.0000
  H   H881      1.0  0.69171  0.64998  0.34801  1.0000
  H   H882      1.0  0.68881  0.66876  0.40945  1.0000
  H   H883      1.0  0.69179  0.62361  0.49239  1.0000
  H   H884      1.0  0.69491  0.60493  0.43083  1.0000
  C   C721      1.0  0.62096  0.59099  0.13311  1.0000
  C   C722      1.0  0.60016  0.58153  0.12655  1.0000
  C   C723      1.0  0.59176  0.57898  0.08571  1.0000
  H   H885      1.0  0.86420  0.51895  0.16998  1.0000
  H   H886      1.0  0.95352  0.49262  0.13223  1.0000
  C   C724      1.0  0.63332  0.59804  0.09855  1.0000
  H   H887      1.0  0.59051  0.57606  0.15317  1.0000
  H   H888      1.0  0.57576  0.57154  0.08096  1.0000
  H   H889      1.0  0.64934  0.60530  0.10319  1.0000
  C   C725      1.0  0.89870  0.49110  0.10081  1.0000
  C   C726      1.0  0.94150  0.68044  0.21735  1.0000
  H   H890      1.0  0.73279  0.69574  0.21121  1.0000
  H   H891      1.0  0.59637  0.62524  0.21550  1.0000
  H   H892      1.0  0.72874  0.59155  0.22375  1.0000
  H   H893      1.0  0.64783  0.66779  0.12302  1.0000
  C   C727      1.0  0.80142  0.64825  0.17902  1.0000
  C   C728      1.0  0.78751  0.64789  0.20958  1.0000
  C   C729      1.0  0.76678  0.64075  0.20012  1.0000
  C   C730      1.0  0.75978  0.63378  0.15999  1.0000
  C   C731      1.0  0.77370  0.63436  0.12933  1.0000
  C   C732      1.0  0.79441  0.64171  0.13864  1.0000
  H   H894      1.0  0.79278  0.65300  0.24085  1.0000
  H   H895      1.0  0.75623  0.64029  0.22409  1.0000
  H   H896      1.0  0.76842  0.62911  0.09815  1.0000
  H   H897      1.0  0.80495  0.64223  0.11457  1.0000
  C   C733      1.0  0.66479  0.70625  0.30741  1.0000
  C   C734      1.0  0.66159  0.71093  0.26593  1.0000
  C   C735      1.0  0.66936  0.70384  0.23291  1.0000
  C   C736      1.0  0.67963  0.69144  0.24125  1.0000
  C   C737      1.0  0.68228  0.68623  0.28265  1.0000
  C   C738      1.0  0.67519  0.69393  0.31577  1.0000
  C   C739      1.0  0.94179  0.65603  0.39621  1.0000
  H   H898      1.0  0.66747  0.70807  0.20096  1.0000
  H   H899      1.0  0.69029  0.67672  0.28922  1.0000
  H   H900      1.0  0.60976  0.66389  0.39037  1.0000
  H   H901      1.0  0.64255  0.65458  0.51081  1.0000
  C   C740      1.0  0.96441  0.50655  0.11985  1.0000
  C   C741      1.0  0.79883  0.65920  0.48478  1.0000
  C   C742      1.0  0.62494  0.59539  0.05777  1.0000
  H   H902      1.0  0.80630  0.65824  0.45623  1.0000
  C   C743      1.0  0.55602  0.65028  0.39177  1.0000
  C   C744      1.0  0.55491  0.65951  0.42892  1.0000
  C   C745      1.0  0.54588  0.64833  0.46441  1.0000
  C   C746      1.0  0.53829  0.62789  0.46325  1.0000
  C   C747      1.0  0.53974  0.61869  0.42632  1.0000
  C   C748      1.0  0.54838  0.62985  0.39066  1.0000
  H   H903      1.0  0.56066  0.67523  0.43008  1.0000
  H   H904      1.0  0.54476  0.65555  0.49285  1.0000
  H   H905      1.0  0.54891  0.62256  0.36191  1.0000
  C   C749      1.0  0.89693  0.50748  0.51210  1.0000
  H   H906      1.0  0.77107  0.57846  0.15137  1.0000
  H   H907      1.0  0.64540  0.68653  0.50063  1.0000
  C   C750      1.0  0.86327  0.57629  0.09047  1.0000
  C   C751      1.0  0.88398  0.58576  0.08529  1.0000
  H   H908      1.0  0.88864  0.52574  0.23056  1.0000
  C   C752      1.0  0.93683  0.69674  0.22499  1.0000
  H   H909      1.0  0.90820  0.54789  0.10782  1.0000
  H   H910      1.0  0.89179  0.59995  0.09872  1.0000
  N   N47       1.0  0.74932  0.69530  0.15571  1.0000
  C   C753      1.0  0.94932  0.57509  0.20890  1.0000
  C   C754      1.0  0.94003  0.57920  0.24384  1.0000
  C   C755      1.0  0.94030  0.57011  0.28275  1.0000
  H   H911      1.0  0.94741  0.62220  0.10750  1.0000
  H   H912      1.0  0.53900  0.67191  0.04671  1.0000
  H   H913      1.0  0.93254  0.58936  0.24069  1.0000
  C   C756      1.0  0.59703  0.61799  0.51656  1.0000
  C   C757      1.0  0.95931  0.67964  0.23475  1.0000
  C   C758      1.0  0.94648  0.63651  0.11384  1.0000
  H   H914      1.0  0.64988  0.64679  0.17671  1.0000
  C   C759      1.0  0.89942  0.53739  0.21097  1.0000
  C   C760      1.0  0.60295  0.72700  0.15290  1.0000
  H   H915      1.0  0.56197  0.65867  0.24882  1.0000
  C   C761      1.0  0.96487  0.62488  0.35677  1.0000
  H   H916      1.0  0.67779  0.69037  0.34782  1.0000
  C   C762      1.0  0.77760  0.59981  0.24756  1.0000
  C   C763      1.0  0.74864  0.58410  0.18460  1.0000
  N   N48       1.0  0.62406  0.59989  0.39543  1.0000
  C   C764      1.0  0.63869  0.60956  0.42925  1.0000
  C   C765      1.0  0.60578  0.58585  0.41563  1.0000
  C   C766      1.0  0.63260  0.58855  0.36946  1.0000
  C   C767      1.0  0.62025  0.61485  0.36913  1.0000
  C   C768      1.0  0.60125  0.61665  0.36653  1.0000
  C   C769      1.0  0.63599  0.62852  0.34565  1.0000
  C   C770      1.0  0.59833  0.63106  0.34144  1.0000
  C   C771      1.0  0.63293  0.64300  0.32108  1.0000
  C   C772      1.0  0.61412  0.64424  0.31892  1.0000
  H   H917      1.0  0.63283  0.61806  0.44985  1.0000
  H   H918      1.0  0.64233  0.59886  0.44934  1.0000
  H   H919      1.0  0.65313  0.61975  0.41664  1.0000
  H   H920      1.0  0.59926  0.59310  0.43808  1.0000
  H   H921      1.0  0.64786  0.59743  0.35796  1.0000
  H   H922      1.0  0.59407  0.57793  0.39198  1.0000
  Fe  Fe109     1.0  0.96068  0.57702  0.46711  1.0000
  C   C773      1.0  0.57806  0.64035  0.23427  1.0000
  H   H923      1.0  0.62940  0.63308  0.20846  1.0000
  H   H924      1.0  0.58840  0.60714  0.38359  1.0000
  H   H925      1.0  0.65090  0.62822  0.34640  1.0000
  H   H926      1.0  0.58378  0.63228  0.33990  1.0000
  H   H927      1.0  0.64525  0.65340  0.30385  1.0000
  H   H928      1.0  0.61182  0.65563  0.30026  1.0000
  H   H929      1.0  0.95421  0.60954  0.35674  1.0000
  H   H930      1.0  0.48300  0.59117  0.51147  1.0000
  H   H931      1.0  0.96087  0.50751  0.08612  1.0000
  C   C774      1.0  0.80660  0.65606  0.52342  1.0000
  N   N49       1.0  0.56886  0.67150  0.04433  1.0000
  H   H932      1.0  0.75768  0.71412  0.20924  1.0000
  C   C775      1.0  0.61464  0.63565  0.13253  1.0000
  H   H933      1.0  0.92647  0.54994  0.14798  1.0000
  C   C776      1.0  0.73880  0.70643  0.13291  1.0000
  H   H934      1.0  0.96318  0.66720  0.22873  1.0000
  N   N50       1.0  0.62278  0.65187  0.16259  1.0000
  H   H935      1.0  0.83729  0.55049  0.07731  1.0000
  H   H936      1.0  0.94129  0.63428  0.52612  1.0000
  H   H937      1.0  0.58197  0.68536  0.20163  1.0000
  C   C777      1.0  0.57387  0.65717  0.23061  1.0000
  C   C778      1.0  0.95011  0.55711  0.28667  1.0000
  S   S214      1.0  0.57484  0.71927  0.30963  1.0000
  C   C779      1.0  0.78144  0.66342  0.48270  1.0000
  H   H938      1.0  0.65369  0.72055  0.25939  1.0000
  C   C780      1.0  0.76802  0.58440  0.17988  1.0000
  H   H939      1.0  0.56626  0.68866  0.09622  1.0000
  H   H940      1.0  0.94917  0.58223  0.17910  1.0000
  Fe  Fe110     1.0  0.96221  0.56048  0.10184  1.0000
  S   S215      1.0  0.88975  0.55764  0.51664  1.0000
  N   N51       1.0  0.75265  0.66863  0.51902  1.0000
  S   S216      1.0  0.93807  0.50267  0.44145  1.0000
  N   N52       1.0  0.62772  0.67118  0.44729  1.0000
  C   C781      1.0  0.61528  0.67559  0.41396  1.0000
  H   H941      1.0  0.60957  0.68152  0.03800  1.0000
  C   C782      1.0  0.64564  0.67015  0.42702  1.0000
  C   C783      1.0  0.61698  0.65284  0.47049  1.0000
  C   C784      1.0  0.62697  0.64637  0.50278  1.0000
  C   C785      1.0  0.59652  0.64099  0.46226  1.0000
  H   H942      1.0  0.72305  0.70222  0.14361  1.0000
  S   S217      1.0  0.63641  0.72126  0.03694  1.0000
  H   H943      1.0  0.64165  0.68235  0.15977  1.0000
  H   H944      1.0  0.77678  0.68097  0.18785  1.0000
  H   H945      1.0  0.62402  0.68904  0.39622  1.0000
  C   C786      1.0  0.95868  0.56167  0.21264  1.0000
  H   H946      1.0  0.73777  0.70359  0.09862  1.0000
  H   H947      1.0  0.77614  0.66548  0.45176  1.0000
  S   S218      1.0  0.57911  0.56157  0.51325  1.0000
  H   H948      1.0  0.65354  0.68340  0.40769  1.0000
  H   H949      1.0  0.65696  0.66912  0.45016  1.0000
  H   H950      1.0  0.64145  0.65738  0.40615  1.0000
  H   H951      1.0  0.93337  0.61737  0.30416  1.0000
  C   C787      1.0  0.74621  0.67256  0.47635  1.0000
  H   H952      1.0  0.95546  0.63247  0.27781  1.0000
  C   C788      1.0  0.94075  0.63883  0.37548  1.0000
  H   H953      1.0  0.81999  0.65266  0.52497  1.0000
  H   H954      1.0  0.87334  0.54497  0.16213  1.0000
  C   C789      1.0  0.89889  0.51458  0.15446  1.0000
  H   H955      1.0  0.48380  0.49186  0.06480  1.0000
  H   H956      1.0  0.75787  0.68539  0.46145  1.0000
  N   N53       1.0  0.95487  0.65080  0.07941  1.0000
  H   H957      1.0  0.80593  0.72911  0.07433  1.0000
  S   S219      1.0  0.96085  0.55904  0.41111  1.0000
  H   H958      1.0  0.89742  0.55118  0.21832  1.0000
  H   H959      1.0  0.91494  0.53956  0.22158  1.0000
  C   C790      1.0  0.94289  0.64362  0.04053  1.0000
  C   C791      1.0  0.85329  0.55784  0.07344  1.0000
  C   C792      1.0  0.78320  0.59249  0.21099  1.0000
  H   H960      1.0  0.75383  0.68921  0.22108  1.0000
  H   H961      1.0  0.81145  0.68903  0.16733  1.0000
  H   H962      1.0  0.62133  0.58409  0.51204  1.0000
  C   C793      1.0  0.62034  0.72293  0.15717  1.0000
  H   H963      1.0  0.91180  0.50739  0.50355  1.0000
  C   C794      1.0  0.92496  0.62126  0.38706  1.0000
  C   C795      1.0  0.80291  0.57248  0.20504  1.0000
  S   S220      1.0  0.65607  0.71586  0.34902  1.0000
  H   H964      1.0  0.73915  0.67082  0.11397  1.0000
  C   C796      1.0  0.92808  0.65540  0.42719  1.0000
  C   C797      1.0  0.91153  0.62075  0.41848  1.0000
  C   C798      1.0  0.91312  0.63778  0.43859  1.0000
  H   H965      1.0  0.49268  0.52473  0.09325  1.0000
  C   C799      1.0  0.73801  0.67438  0.14735  1.0000
  C   C800      1.0  0.63654  0.64744  0.19264  1.0000
  H   H966      1.0  0.96664  0.54267  0.25496  1.0000
  H   H967      1.0  0.59033  0.68730  0.09199  1.0000
  C   C801      1.0  0.63441  0.68774  0.47675  1.0000
  C   C802      1.0  0.75806  0.59914  0.25221  1.0000
  H   H968      1.0  0.89991  0.60700  0.42740  1.0000
  H   H969      1.0  0.62564  0.72059  0.18803  1.0000
  C   C803      1.0  0.81081  0.70958  0.11969  1.0000
  H   H970      1.0  0.88597  0.49958  0.48716  1.0000
  H   H971      1.0  0.92920  0.66867  0.44269  1.0000
  C   C804      1.0  0.80248  0.69615  0.15167  1.0000
  H   H972      1.0  0.90271  0.63730  0.46301  1.0000
  H   H973      1.0  0.60904  0.57456  0.43454  1.0000
  C   C805      1.0  0.87575  0.53147  0.15391  1.0000
  C   C806      1.0  0.79935  0.71869  0.09931  1.0000
  C   C807      1.0  0.81163  0.60200  0.16437  1.0000
  H   H974      1.0  0.60355  0.63795  0.11046  1.0000
  C   C808      1.0  0.62389  0.72455  0.08114  1.0000
  C   C809      1.0  0.60418  0.58576  0.05114  1.0000
  C   C810      1.0  0.57400  0.67879  0.08773  1.0000
  H   H975      1.0  0.92323  0.69761  0.21169  1.0000
  C   C811      1.0  0.89469  0.57664  0.06333  1.0000
  H   H976      1.0  0.89130  0.51581  0.08799  1.0000
  H   H977      1.0  0.56915  0.62869  0.25495  1.0000
  H   H978      1.0  0.60947  0.68309  0.16267  1.0000
  H   H979      1.0  0.73748  0.57857  0.15976  1.0000
  N   N54       1.0  0.89629  0.53278  0.16558  1.0000
  C   C812      1.0  0.74367  0.59143  0.22070  1.0000
  C   C813      1.0  0.74844  0.69876  0.20121  1.0000
  C   C814      1.0  0.91093  0.54924  0.14217  1.0000
  H   H980      1.0  0.64199  0.70187  0.45993  1.0000
  C   C815      1.0  0.95927  0.55292  0.25173  1.0000
  S   S221      1.0  0.52660  0.61434  0.50806  1.0000
  H   H981      1.0  0.95037  0.55003  0.31649  1.0000
  C   C816      1.0  0.59631  0.73025  0.11284  1.0000
  C   C817      1.0  0.63498  0.66963  0.13868  1.0000
  H   H982      1.0  0.96388  0.67475  0.12298  1.0000
  C   C818      1.0  0.59378  0.63863  0.21184  1.0000
  H   H983      1.0  0.87267  0.52966  0.11965  1.0000
  H   H984      1.0  0.83361  0.60387  0.23223  1.0000
  C   C819      1.0  0.81828  0.60352  0.23820  1.0000
  H   H985      1.0  0.81412  0.59667  0.26966  1.0000
  H   H986      1.0  0.94614  0.72461  0.25555  1.0000
  C   C820      1.0  0.58680  0.62386  0.48510  1.0000
  H   H987      1.0  0.82746  0.60367  0.16057  1.0000
  H   H988      1.0  0.80337  0.59355  0.13687  1.0000
  H   H989      1.0  0.89806  0.52280  0.51045  1.0000
  H   H990      1.0  0.48664  0.61634  0.51329  1.0000
  C   C821      1.0  0.95500  0.66985  0.09337  1.0000
  C   C822      1.0  0.78261  0.69169  0.16327  1.0000
  N   N55       1.0  0.80365  0.59270  0.20511  1.0000
  H   H991      1.0  0.62602  0.67332  0.11352  1.0000
  C   C823      1.0  0.96263  0.66169  0.50432  1.0000
  C   C824      1.0  0.77045  0.70064  0.14322  1.0000
  H   H992      1.0  0.74363  0.66486  0.16670  1.0000
  H   H993      1.0  0.57113  0.61511  0.47874  1.0000
  H   H994      1.0  0.56970  0.66657  0.11088  1.0000
  C   C825      1.0  0.60601  0.65392  0.18545  1.0000
  H   H995      1.0  0.75414  0.60510  0.27993  1.0000
  H   H996      1.0  0.64215  0.65878  0.21725  1.0000
  H   H997      1.0  0.64405  0.71822  0.12462  1.0000
  H   H998      1.0  0.72182  0.66997  0.15445  1.0000
  H   H999      1.0  0.74634  0.72234  0.13838  1.0000
  H   H1000     1.0  0.81965  0.61900  0.23931  1.0000
  H   H1001     1.0  0.81809  0.57212  0.20036  1.0000
  H   H1002     1.0  0.79697  0.56485  0.23508  1.0000
  C   C826      1.0  0.54669  0.66169  0.04094  1.0000
  H   H1003     1.0  0.95308  0.67015  0.38922  1.0000
  H   H1004     1.0  0.81134  0.61677  0.16198  1.0000
  C   C827      1.0  0.86387  0.54895  0.05078  1.0000
  C   C828      1.0  0.94319  0.49004  0.52202  1.0000
  H   H1005     1.0  0.62286  0.58235  0.34152  1.0000
  C   C829      1.0  0.60110  0.67074  0.18190  1.0000
  C   C830      1.0  0.58520  0.67221  0.20407  1.0000
  S   S222      1.0  0.58866  0.72741  0.19657  1.0000
  H   H1006     1.0  0.93713  0.64226  0.29209  1.0000
  H   H1007     1.0  0.60694  0.62144  0.14865  1.0000
  C   C831      1.0  0.89570  0.50787  0.11247  1.0000
  N   N56       1.0  0.95534  0.63870  0.34359  1.0000
  S   S223      1.0  0.94943  0.58119  0.07324  1.0000
  H   H1008     1.0  0.92304  0.60767  0.37216  1.0000
  H   H1009     1.0  0.54072  0.64963  0.06418  1.0000
  H   H1010     1.0  0.73227  0.67576  0.47721  1.0000
  C   C832      1.0  0.63071  0.72158  0.12129  1.0000
  H   H1011     1.0  0.62671  0.63391  0.11375  1.0000
  C   C833      1.0  0.96754  0.71111  0.26769  1.0000
  H   H1012     1.0  0.93040  0.63396  0.11875  1.0000
  Fe  Fe111     1.0  0.50273  0.53810  0.50611  1.0000
  S   S224      1.0  0.94096  0.53474  0.06716  1.0000
  C   C834      1.0  0.60682  0.72916  0.07702  1.0000
  C   C835      1.0  0.94485  0.63244  0.30271  1.0000
  H   H1013     1.0  0.77143  0.72187  0.09347  1.0000
  Fe  Fe112     1.0  0.54733  0.55741  0.52930  1.0000
  H   H1014     1.0  0.58932  0.60472  0.53419  1.0000
  H   H1015     1.0  0.58758  0.64469  0.43861  1.0000
  H   H1016     1.0  0.60167  0.73182  0.04627  1.0000
  Fe  Fe113     1.0  0.52332  0.58292  0.51866  1.0000
  H   H1017     1.0  0.94759  0.50501  0.53166  1.0000
  H   H1018     1.0  0.74254  0.65971  0.45561  1.0000
  H   H1019     1.0  0.90840  0.50747  0.21654  1.0000
  C   C836      1.0  0.90533  0.50344  0.18401  1.0000
  H   H1020     1.0  0.96580  0.66904  0.32586  1.0000
  C   C837      1.0  0.94903  0.64964  0.53289  1.0000
  S   S225      1.0  0.96923  0.55484  0.16925  1.0000
  H   H1021     1.0  0.91064  0.58398  0.05933  1.0000
  C   C838      1.0  0.61708  0.62917  0.52531  1.0000
  C   C839      1.0  0.77138  0.66474  0.51973  1.0000
  H   H1022     1.0  0.96160  0.68145  0.06938  1.0000
  C   C840      1.0  0.47838  0.51341  0.10092  1.0000
  H   H1023     1.0  0.96140  0.51831  0.13590  1.0000
  H   H1024     1.0  0.58296  0.73360  0.10946  1.0000
  H   H1025     1.0  0.73421  0.63811  0.51849  1.0000
  C   C841      1.0  0.47608  0.60143  0.52190  1.0000
  H   H1026     1.0  0.95451  0.64170  0.14422  1.0000
  C   C842      1.0  0.88460  0.55819  0.04615  1.0000
  H   H1027     1.0  0.50029  0.48919  0.44109  1.0000
  C   C843      1.0  0.47333  0.49484  0.08487  1.0000
  H   H1028     1.0  0.85602  0.53473  0.03743  1.0000
  H   H1029     1.0  0.95034  0.61785  0.03568  1.0000
  C   C844      1.0  0.57969  0.65861  0.03480  1.0000
  C   C845      1.0  0.95113  0.71746  0.84835  1.0000
  C   C846      1.0  0.96885  0.68916  0.55005  1.0000
  C   C847      1.0  0.87930  0.57873  0.57533  1.0000
  C   C848      1.0  0.62383  0.61870  0.83612  1.0000
  Fe  Fe114     1.0  0.51601  0.55473  0.59351  1.0000
  S   S226      1.0  0.50333  0.55180  0.65869  1.0000
  C   C849      1.0  0.56082  0.63351  0.77198  1.0000
  H   H1030     1.0  0.49044  0.60782  0.62430  1.0000
  S   S227      1.0  0.87640  0.67109  0.00661  1.0000
  Fe  Fe115     1.0  0.54408  0.56221  0.88768  1.0000
  S   S228      1.0  0.51267  0.55611  0.90879  1.0000
  S   S229      1.0  0.55732  0.56407  0.82328  1.0000
  Fe  Fe116     1.0  0.56207  0.56919  0.97726  1.0000
  H   H1031     1.0  0.52970  0.51805  0.70985  1.0000
  S   S230      1.0  0.59464  0.58274  0.99908  1.0000
  Fe  Fe117     1.0  0.51932  0.53823  0.96054  1.0000
  H   H1032     1.0  0.52830  0.50380  0.85154  1.0000
  Fe  Fe118     1.0  0.52737  0.58123  0.95256  1.0000
  S   S231      1.0  0.51558  0.60486  0.96247  1.0000
  S   S232      1.0  0.55015  0.54285  0.93623  1.0000
  S   S233      1.0  0.55777  0.58868  0.92686  1.0000
  Fe  Fe119     1.0  0.63346  0.71054  0.88500  1.0000
  H   H1033     1.0  0.93394  0.49601  0.03150  1.0000
  S   S234      1.0  0.65149  0.69352  0.86214  1.0000
  Fe  Fe120     1.0  0.59201  0.70857  0.90551  1.0000
  S   S235      1.0  0.55898  0.69139  0.89625  1.0000
  S   S236      1.0  0.61223  0.69551  0.93605  1.0000
  Fe  Fe121     1.0  0.66917  0.62384  0.63796  1.0000
  S   S237      1.0  0.65990  0.64520  0.60209  1.0000
  S   S238      1.0  0.64309  0.59736  0.65894  1.0000
  Fe  Fe122     1.0  0.71299  0.65109  0.64299  1.0000
  S   S239      1.0  0.70631  0.67480  0.60841  1.0000
  S   S240      1.0  0.74599  0.66166  0.66352  1.0000
  Fe  Fe123     1.0  0.67908  0.66689  0.64812  1.0000
  S   S241      1.0  0.66397  0.68698  0.66833  1.0000
  N   N57       1.0  0.47219  0.59931  0.56768  1.0000
  S   S242      1.0  0.68699  0.64522  0.68679  1.0000
  S   S243      1.0  0.69559  0.62768  0.59686  1.0000
  Fe  Fe124     1.0  0.88429  0.66947  0.71688  1.0000
  S   S244      1.0  0.89938  0.65032  0.74285  1.0000
  S   S245      1.0  0.90003  0.70187  0.71162  1.0000
  Fe  Fe125     1.0  0.84478  0.63590  0.69906  1.0000
  S   S246      1.0  0.85758  0.61396  0.72265  1.0000
  S   S247      1.0  0.81184  0.62316  0.67739  1.0000
  Fe  Fe126     1.0  0.87049  0.63474  0.77579  1.0000
  S   S248      1.0  0.86936  0.62223  0.84151  1.0000
  Fe  Fe127     1.0  0.88542  0.63146  0.68736  1.0000
  S   S249      1.0  0.90891  0.62366  0.65389  1.0000
  S   S250      1.0  0.85628  0.65560  0.75445  1.0000
  S   S251      1.0  0.87177  0.65173  0.65926  1.0000
  C   C850      1.0  0.61687  0.58179  0.54440  1.0000
  H   H1034     1.0  0.91332  0.50916  0.93573  1.0000
  C   C851      1.0  0.88326  0.59332  0.60575  1.0000
  C   C852      1.0  0.90305  0.60532  0.61558  1.0000
  C   C853      1.0  0.91881  0.60272  0.59462  1.0000
  C   C854      1.0  0.93786  0.53014  0.64273  1.0000
  C   C855      1.0  0.62000  0.64349  0.88287  1.0000
  H   H1035     1.0  0.87101  0.59517  0.62175  1.0000
  H   H1036     1.0  0.93416  0.61184  0.60220  1.0000
  Fe  Fe128     1.0  0.96413  0.54203  0.01782  1.0000
  C   C856      1.0  0.76374  0.65031  0.66850  1.0000
  C   C857      1.0  0.78348  0.66162  0.68146  1.0000
  C   C858      1.0  0.79840  0.65361  0.68424  1.0000
  C   C859      1.0  0.79371  0.63410  0.67420  1.0000
  C   C860      1.0  0.77397  0.62279  0.66123  1.0000
  C   C861      1.0  0.75906  0.63083  0.65829  1.0000
  H   H1037     1.0  0.78733  0.67677  0.68904  1.0000
  H   H1038     1.0  0.81354  0.66257  0.69386  1.0000
  H   H1039     1.0  0.77020  0.60770  0.65320  1.0000
  H   H1040     1.0  0.74400  0.62197  0.64797  1.0000
  C   C862      1.0  0.65439  0.69147  0.80815  1.0000
  C   C863      1.0  0.64357  0.69780  0.77846  1.0000
  C   C864      1.0  0.64655  0.69625  0.73553  1.0000
  C   C865      1.0  0.66036  0.68845  0.72221  1.0000
  C   C866      1.0  0.67100  0.68192  0.75191  1.0000
  H   H1041     1.0  0.63304  0.70401  0.78850  1.0000
  H   H1042     1.0  0.63817  0.70119  0.71262  1.0000
  C   C867      1.0  0.52830  0.62823  0.94085  1.0000
  C   C868      1.0  0.54893  0.63551  0.93263  1.0000
  C   C869      1.0  0.55870  0.65489  0.91869  1.0000
  C   C870      1.0  0.54774  0.66688  0.91233  1.0000
  C   C871      1.0  0.52713  0.65939  0.91968  1.0000
  C   C872      1.0  0.51754  0.64028  0.93433  1.0000
  H   H1043     1.0  0.55747  0.62648  0.93830  1.0000
  H   H1044     1.0  0.57462  0.66056  0.91299  1.0000
  H   H1045     1.0  0.51858  0.66854  0.91478  1.0000
  H   H1046     1.0  0.50165  0.63484  0.94073  1.0000
  H   H1047     1.0  0.54564  0.60378  0.75307  1.0000
  C   C873      1.0  0.87273  0.65688  0.96105  1.0000
  C   C874      1.0  0.87326  0.66568  0.92150  1.0000
  C   C875      1.0  0.87158  0.65506  0.88454  1.0000
  C   C876      1.0  0.86985  0.63567  0.88694  1.0000
  C   C877      1.0  0.86897  0.62677  0.92645  1.0000
  C   C878      1.0  0.87018  0.63726  0.96341  1.0000
  H   H1048     1.0  0.87514  0.68083  0.91948  1.0000
  H   H1049     1.0  0.87190  0.66197  0.85431  1.0000
  H   H1050     1.0  0.86749  0.61172  0.92856  1.0000
  H   H1051     1.0  0.86975  0.63033  0.99372  1.0000
  C   C879      1.0  0.62552  0.58678  0.61844  1.0000
  C   C880      1.0  0.92701  0.53949  0.62102  1.0000
  C   C881      1.0  0.91848  0.62793  0.96872  1.0000
  H   H1052     1.0  0.90611  0.66884  0.83275  1.0000
  C   C882      1.0  0.59114  0.56792  0.59614  1.0000
  C   C883      1.0  0.60557  0.57547  0.62824  1.0000
  N   N58       1.0  0.49787  0.50179  0.84013  1.0000
  H   H1053     1.0  0.96374  0.73127  0.85041  1.0000
  H   H1054     1.0  0.57571  0.55941  0.60388  1.0000
  H   H1055     1.0  0.60121  0.57270  0.66068  1.0000
  C   C884      1.0  0.51894  0.55665  0.70376  1.0000
  C   C885      1.0  0.51034  0.55587  0.74316  1.0000
  C   C886      1.0  0.52208  0.55860  0.78003  1.0000
  C   C887      1.0  0.54245  0.56189  0.77766  1.0000
  C   C888      1.0  0.55116  0.56304  0.73825  1.0000
  C   C889      1.0  0.53946  0.56053  0.70130  1.0000
  H   H1056     1.0  0.51532  0.55791  0.81022  1.0000
  H   H1057     1.0  0.56694  0.56557  0.73629  1.0000
  H   H1058     1.0  0.54618  0.56108  0.67105  1.0000
  H   H1059     1.0  0.92615  0.63255  0.86564  1.0000
  H   H1060     1.0  0.95339  0.62655  0.67839  1.0000
  H   H1061     1.0  0.64652  0.59862  0.56866  1.0000
  C   C890      1.0  0.92551  0.71342  0.72612  1.0000
  C   C891      1.0  0.93774  0.70305  0.73658  1.0000
  C   C892      1.0  0.95804  0.71309  0.74806  1.0000
  C   C893      1.0  0.91175  0.52918  0.59277  1.0000
  C   C894      1.0  0.75521  0.68575  0.54533  1.0000
  H   H1062     1.0  0.93155  0.68739  0.73634  1.0000
  H   H1063     1.0  0.52506  0.52684  0.85092  1.0000
  C   C895      1.0  0.59682  0.57090  0.55415  1.0000
  C   C896      1.0  0.63112  0.59002  0.57643  1.0000
  H   H1064     1.0  0.80241  0.62807  0.98140  1.0000
  Fe  Fe129     1.0  0.68759  0.65125  0.56512  1.0000
  N   N59       1.0  0.89097  0.49871  0.55419  1.0000
  Fe  Fe130     1.0  0.62534  0.72361  0.97076  1.0000
  H   H1065     1.0  0.54927  0.63309  0.79373  1.0000
  H   H1066     1.0  0.60181  0.59452  0.89785  1.0000
  C   C897      1.0  0.95184  0.66096  0.81578  1.0000
  C   C898      1.0  0.89507  0.57622  0.55425  1.0000
  H   H1067     1.0  0.58196  0.62387  0.87283  1.0000
  C   C899      1.0  0.94526  0.65728  0.57010  1.0000
  S   S252      1.0  0.89744  0.54570  0.02079  1.0000
  H   H1068     1.0  0.95818  0.71153  0.65475  1.0000
  H   H1069     1.0  0.73900  0.64865  0.56982  1.0000
  H   H1070     1.0  0.94642  0.50882  0.91844  1.0000
  H   H1071     1.0  0.49019  0.52710  0.84139  1.0000
  H   H1072     1.0  0.61027  0.64637  0.90639  1.0000
  C   C900      1.0  0.47251  0.49374  0.97569  1.0000
  C   C901      1.0  0.48516  0.51211  0.85482  1.0000
  H   H1073     1.0  0.65556  0.60585  0.75142  1.0000
  N   N60       1.0  0.60705  0.63566  0.68546  1.0000
  C   C902      1.0  0.61172  0.65286  0.65718  1.0000
  C   C903      1.0  0.62535  0.63742  0.70997  1.0000
  C   C904      1.0  0.60181  0.61825  0.65851  1.0000
  C   C905      1.0  0.59098  0.63466  0.71476  1.0000
  C   C906      1.0  0.59283  0.65098  0.73961  1.0000
  C   C907      1.0  0.57356  0.61752  0.72076  1.0000
  C   C908      1.0  0.57784  0.65043  0.76738  1.0000
  C   C909      1.0  0.55878  0.61705  0.74900  1.0000
  H   H1074     1.0  0.50095  0.59802  0.58362  1.0000
  H   H1075     1.0  0.61844  0.66684  0.67415  1.0000
  H   H1076     1.0  0.62306  0.65340  0.63346  1.0000
  H   H1077     1.0  0.63087  0.65066  0.72964  1.0000
  H   H1078     1.0  0.63792  0.63820  0.68930  1.0000
  H   H1079     1.0  0.62239  0.62465  0.73118  1.0000
  H   H1080     1.0  0.58788  0.61576  0.63962  1.0000
  H   H1081     1.0  0.61395  0.61968  0.63608  1.0000
  H   H1082     1.0  0.59989  0.60493  0.67740  1.0000
  H   H1083     1.0  0.60595  0.66430  0.73791  1.0000
  H   H1084     1.0  0.57094  0.60422  0.70408  1.0000
  H   H1085     1.0  0.87279  0.51590  0.56293  1.0000
  C   C910      1.0  0.49199  0.60706  0.58983  1.0000
  H   H1086     1.0  0.90867  0.62162  0.94214  1.0000
  C   C911      1.0  0.59119  0.61937  0.85085  1.0000
  C   C912      1.0  0.61709  0.60008  0.81721  1.0000
  C   C913      1.0  0.62844  0.59559  0.78702  1.0000
  C   C914      1.0  0.57486  0.68841  0.01497  1.0000
  H   H1087     1.0  0.59204  0.62747  0.82091  1.0000
  H   H1088     1.0  0.57947  0.66317  0.78568  1.0000
  H   H1089     1.0  0.58254  0.60373  0.84442  1.0000
  H   H1090     1.0  0.60298  0.58877  0.82583  1.0000
  H   H1091     1.0  0.62292  0.58131  0.77278  1.0000
  H   H1092     1.0  0.93454  0.64738  0.59118  1.0000
  H   H1093     1.0  0.62492  0.61180  0.91819  1.0000
  H   H1094     1.0  0.53081  0.51710  0.78557  1.0000
  C   C915      1.0  0.90686  0.50910  0.58526  1.0000
  H   H1095     1.0  0.95824  0.71467  0.59920  1.0000
  H   H1096     1.0  0.92713  0.58648  0.54795  1.0000
  N   N61       1.0  0.80226  0.62014  0.81323  1.0000
  C   C916      1.0  0.78226  0.60743  0.79665  1.0000
  C   C917      1.0  0.80750  0.63991  0.79490  1.0000
  C   C918      1.0  0.81702  0.61223  0.79820  1.0000
  C   C919      1.0  0.80196  0.62135  0.85952  1.0000
  C   C920      1.0  0.78827  0.62814  0.87881  1.0000
  C   C921      1.0  0.81569  0.61688  0.88653  1.0000
  C   C922      1.0  0.78836  0.63038  0.92229  1.0000
  C   C923      1.0  0.81568  0.61925  0.92993  1.0000
  C   C924      1.0  0.80211  0.62603  0.94777  1.0000
  H   H1097     1.0  0.77046  0.61325  0.80270  1.0000
  H   H1098     1.0  0.78239  0.60592  0.76188  1.0000
  H   H1099     1.0  0.77746  0.59259  0.81084  1.0000
  H   H1100     1.0  0.79567  0.64586  0.79971  1.0000
  H   H1101     1.0  0.80959  0.63998  0.76043  1.0000
  H   H1102     1.0  0.81403  0.59735  0.81087  1.0000
  H   H1103     1.0  0.81668  0.61115  0.76336  1.0000
  H   H1104     1.0  0.82686  0.61183  0.87499  1.0000
  H   H1105     1.0  0.82651  0.61608  0.94985  1.0000
  H   H1106     1.0  0.90149  0.69935  0.82348  1.0000
  C   C925      1.0  0.93342  0.51042  0.63635  1.0000
  H   H1107     1.0  0.85934  0.49215  0.54366  1.0000
  H   H1108     1.0  0.49447  0.55288  0.74516  1.0000
  C   C926      1.0  0.64687  0.60938  0.77504  1.0000
  C   C927      1.0  0.51622  0.51051  0.77064  1.0000
  N   N62       1.0  0.61157  0.62302  0.86822  1.0000
  H   H1109     1.0  0.91961  0.66533  0.62323  1.0000
  C   C928      1.0  0.66807  0.68352  0.79480  1.0000
  H   H1110     1.0  0.68179  0.67603  0.74188  1.0000
  C   C929      1.0  0.49821  0.50220  0.79369  1.0000
  C   C930      1.0  0.91455  0.49571  0.92608  1.0000
  H   H1111     1.0  0.82170  0.65030  0.80904  1.0000
  S   S253      1.0  0.95221  0.56178  0.98093  1.0000
  H   H1112     1.0  0.49753  0.50510  0.67070  1.0000
  H   H1113     1.0  0.67669  0.67886  0.81772  1.0000
  H   H1114     1.0  0.59802  0.65275  0.64013  1.0000
  H   H1115     1.0  0.86751  0.49537  0.59785  1.0000
  H   H1116     1.0  0.93051  0.55489  0.62568  1.0000
  H   H1117     1.0  0.83260  0.62175  0.80710  1.0000
  C   C931      1.0  0.64270  0.63246  0.82312  1.0000
  C   C932      1.0  0.65397  0.62777  0.79302  1.0000
  H   H1118     1.0  0.47578  0.48909  0.53653  1.0000
  C   C933      1.0  0.94187  0.62593  0.02244  1.0000
  C   C934      1.0  0.93811  0.68172  0.84965  1.0000
  C   C935      1.0  0.92975  0.61818  0.98726  1.0000
  H   H1119     1.0  0.62147  0.65394  0.85647  1.0000
  H   H1120     1.0  0.50130  0.62208  0.57911  1.0000
  H   H1121     1.0  0.94711  0.65914  0.65681  1.0000
  C   C936      1.0  0.60989  0.61018  0.90527  1.0000
  S   S254      1.0  0.49907  0.50660  0.97635  1.0000
  H   H1122     1.0  0.64914  0.64692  0.83588  1.0000
  H   H1123     1.0  0.47874  0.57531  0.63153  1.0000
  H   H1124     1.0  0.77286  0.66210  0.58781  1.0000
  S   S255      1.0  0.49564  0.55972  0.54435  1.0000
  C   C937      1.0  0.87186  0.50058  0.56523  1.0000
  H   H1125     1.0  0.63465  0.60062  0.03115  1.0000
  C   C938      1.0  0.56977  0.63823  0.02856  1.0000
  N   N63       1.0  0.94176  0.66342  0.85396  1.0000
  H   H1126     1.0  0.66512  0.73316  0.67036  1.0000
  H   H1127     1.0  0.94980  0.53823  0.66437  1.0000
  C   C939      1.0  0.96195  0.70617  0.62492  1.0000
  H   H1128     1.0  0.77764  0.63213  0.86026  1.0000
  S   S256      1.0  0.61220  0.72168  0.85101  1.0000
  H   H1129     1.0  0.96943  0.70111  0.85927  1.0000
  C   C940      1.0  0.92303  0.64592  0.85894  1.0000
  S   S257      1.0  0.64812  0.73795  0.92153  1.0000
  S   S258      1.0  0.52187  0.53179  0.55669  1.0000
  H   H1130     1.0  0.66686  0.73263  0.83304  1.0000
  C   C941      1.0  0.93155  0.65343  0.02025  1.0000
  H   H1131     1.0  0.74173  0.68972  0.54354  1.0000
  H   H1132     1.0  0.94224  0.65974  0.78731  1.0000
  H   H1133     1.0  0.66831  0.63850  0.78346  1.0000
  H   H1134     1.0  0.90401  0.53720  0.57630  1.0000
  H   H1135     1.0  0.63496  0.64716  0.89843  1.0000
  H   H1136     1.0  0.92547  0.68746  0.65075  1.0000
  C   C942      1.0  0.95485  0.66409  0.89114  1.0000
  C   C943      1.0  0.91486  0.58833  0.56390  1.0000
  C   C944      1.0  0.51585  0.51119  0.72680  1.0000
  H   H1137     1.0  0.91356  0.64263  0.82990  1.0000
  H   H1138     1.0  0.75736  0.68306  0.57921  1.0000
  C   C945      1.0  0.95421  0.70004  0.85354  1.0000
  H   H1139     1.0  0.77790  0.63578  0.93631  1.0000
  C   C946      1.0  0.95913  0.49257  0.00266  1.0000
  H   H1140     1.0  0.91099  0.65336  0.97028  1.0000
  H   H1141     1.0  0.91388  0.64775  0.88499  1.0000
  H   H1142     1.0  0.62498  0.62441  0.54961  1.0000
  H   H1143     1.0  0.95599  0.64976  0.89787  1.0000
  H   H1144     1.0  0.96734  0.70509  0.75692  1.0000
  C   C947      1.0  0.91611  0.69949  0.83299  1.0000
  N   N64       1.0  0.95081  0.68491  0.61976  1.0000
  H   H1145     1.0  0.68696  0.73091  0.80351  1.0000
  H   H1146     1.0  0.56624  0.69788  0.01979  1.0000
  H   H1147     1.0  0.60147  0.61345  0.93099  1.0000
  C   C948      1.0  0.91899  0.68198  0.83839  1.0000
  C   C949      1.0  0.91813  0.49995  0.60818  1.0000
  C   C950      1.0  0.60095  0.66626  0.03293  1.0000
  C   C951      1.0  0.49772  0.50386  0.70464  1.0000
  S   S259      1.0  0.54307  0.57949  0.57092  1.0000
  H   H1148     1.0  0.95565  0.64774  0.81807  1.0000
  C   C952      1.0  0.96595  0.73347  0.74973  1.0000
  H   H1149     1.0  0.57229  0.68356  0.98187  1.0000
  Fe  Fe131     1.0  0.93053  0.55601  0.03365  1.0000
  C   C953      1.0  0.91966  0.64567  0.98477  1.0000
  C   C954      1.0  0.95502  0.67729  0.57989  1.0000
  C   C955      1.0  0.77977  0.66151  0.55847  1.0000
  H   H1150     1.0  0.92993  0.73070  0.83267  1.0000
  H   H1151     1.0  0.92896  0.60440  0.97469  1.0000
  H   H1152     1.0  0.51727  0.51058  0.89483  1.0000
  H   H1153     1.0  0.80303  0.65458  0.59028  1.0000
  H   H1154     1.0  0.92395  0.68756  0.59451  1.0000
  S   S260      1.0  0.60314  0.73578  0.94461  1.0000
  C   C956      1.0  0.47984  0.49535  0.72619  1.0000
  H   H1155     1.0  0.96614  0.67357  0.81052  1.0000
  H   H1156     1.0  0.48569  0.51331  0.88964  1.0000
  C   C957      1.0  0.93365  0.73374  0.72701  1.0000
  C   C958      1.0  0.95650  0.67494  0.65561  1.0000
  C   C959      1.0  0.93212  0.71718  0.83815  1.0000
  H   H1157     1.0  0.60966  0.62539  0.01164  1.0000
  H   H1158     1.0  0.59090  0.69801  0.01845  1.0000
  C   C960      1.0  0.48003  0.49440  0.77003  1.0000
  H   H1159     1.0  0.95453  0.68094  0.68616  1.0000
  C   C961      1.0  0.92907  0.68113  0.62206  1.0000
  H   H1160     1.0  0.94198  0.50320  0.65309  1.0000
  H   H1161     1.0  0.94908  0.66847  0.91972  1.0000
  H   H1162     1.0  0.93120  0.66693  0.03156  1.0000
  H   H1163     1.0  0.86396  0.56942  0.56803  1.0000
  C   C962      1.0  0.79707  0.65719  0.56019  1.0000
  S   S261      1.0  0.53201  0.56320  0.00624  1.0000
  C   C963      1.0  0.51803  0.51119  0.85998  1.0000
  C   C964      1.0  0.93320  0.49549  0.91623  1.0000
  C   C965      1.0  0.61158  0.65445  0.02418  1.0000
  H   H1164     1.0  0.57274  0.61097  0.01567  1.0000
  H   H1165     1.0  0.62780  0.66081  0.02214  1.0000
  C   C966      1.0  0.60142  0.63459  0.01805  1.0000
  C   C967      1.0  0.58059  0.62649  0.02043  1.0000
  H   H1166     1.0  0.54192  0.65579  0.00892  1.0000
  C   C968      1.0  0.96948  0.63480  0.67903  1.0000
  H   H1167     1.0  0.55363  0.63097  0.02911  1.0000
  H   H1168     1.0  0.97062  0.67426  0.88668  1.0000
  H   H1169     1.0  0.72171  0.65360  0.53485  1.0000
  C   C969      1.0  0.73621  0.65150  0.53632  1.0000
  H   H1170     1.0  0.76839  0.69867  0.53535  1.0000
  Fe  Fe132     1.0  0.60303  0.89808  0.38137  1.0000
  S   S262      1.0  0.62308  0.92293  0.41951  1.0000
  S   S263      1.0  0.57421  0.90032  0.36035  1.0000
  Fe  Fe133     1.0  0.63333  0.87954  0.37515  1.0000
  S   S264      1.0  0.65631  0.90351  0.41230  1.0000
  S   S265      1.0  0.64223  0.85601  0.34673  1.0000
  Fe  Fe134     1.0  0.63103  0.90066  0.45519  1.0000
  S   S266      1.0  0.56739  0.98541  0.45217  1.0000
  Fe  Fe135     1.0  0.64685  0.92445  0.37419  1.0000
  S   S267      1.0  0.66807  0.95570  0.36145  1.0000
  S   S268      1.0  0.60859  0.87512  0.42099  1.0000
  S   S269      1.0  0.62609  0.90092  0.33300  1.0000
  H   H1171     1.0  0.60631  0.83482  0.39538  1.0000
  H   H1172     1.0  0.59599  0.77083  0.29317  1.0000
  S   S270      1.0  0.59372  0.76535  0.38118  1.0000
  H   H1173     1.0  0.59677  0.96374  0.41716  1.0000
  H   H1174     1.0  0.60578  0.94917  0.45046  1.0000
  H   H1175     1.0  0.60302  0.98281  0.18489  1.0000
  C   C970      1.0  0.63745  0.97866  0.41878  1.0000
  H   H1176     1.0  0.63944  0.97841  0.26352  1.0000
  H   H1177     1.0  0.50630  0.95379  0.26027  1.0000
  S   S271      1.0  0.51409  0.96493  0.17406  1.0000
  C   C971      1.0  0.60845  0.79439  0.22883  1.0000
  C   C972      1.0  0.57322  0.78245  0.20867  1.0000
  C   C973      1.0  0.62287  0.81297  0.23985  1.0000
  C   C974      1.0  0.67418  0.97184  0.23792  1.0000
  S   S272      1.0  0.54130  0.93695  0.50386  1.0000
  H   H1178     1.0  0.63155  0.97996  0.38678  1.0000
  C   C975      1.0  0.72056  0.97268  0.23466  1.0000
  H   H1179     1.0  0.58515  0.81443  0.25576  1.0000
  C   C976      1.0  0.71244  0.95437  0.21650  1.0000
  H   H1180     1.0  0.59422  0.94262  0.34560  1.0000
  C   C977      1.0  0.58410  0.76861  0.26879  1.0000
  H   H1181     1.0  0.65332  0.83341  0.23484  1.0000
  C   C978      1.0  0.64253  0.81933  0.22537  1.0000
  C   C979      1.0  0.72169  0.97433  0.27813  1.0000
  C   C980      1.0  0.62497  0.97546  0.27697  1.0000
  C   C981      1.0  0.56513  0.91049  0.40029  1.0000
  C   C982      1.0  0.55492  0.92275  0.39008  1.0000
  C   C983      1.0  0.54794  0.93124  0.42194  1.0000
  C   C984      1.0  0.55046  0.92682  0.46396  1.0000
  C   C985      1.0  0.56060  0.91447  0.47418  1.0000
  C   C986      1.0  0.56831  0.90664  0.44235  1.0000
  H   H1182     1.0  0.55241  0.92569  0.35753  1.0000
  H   H1183     1.0  0.54007  0.94072  0.41391  1.0000
  S   S273      1.0  0.50228  0.96450  0.05622  1.0000
  H   H1184     1.0  0.57615  0.89711  0.45029  1.0000
  C   C987      1.0  0.67293  0.96935  0.31399  1.0000
  C   C988      1.0  0.66816  0.96052  0.27473  1.0000
  H   H1185     1.0  0.52323  0.96869  0.32696  1.0000
  H   H1186     1.0  0.56947  0.76334  0.28510  1.0000
  H   H1187     1.0  0.66038  0.94494  0.27262  1.0000
  S   S274      1.0  0.64046  0.90538  0.52356  1.0000
  H   H1188     1.0  0.57315  0.96171  0.32896  1.0000
  C   C989      1.0  0.62912  0.83092  0.35843  1.0000
  C   C990      1.0  0.63598  0.81710  0.34209  1.0000
  C   C991      1.0  0.62550  0.79703  0.34920  1.0000
  C   C992      1.0  0.60807  0.79052  0.37311  1.0000
  C   C993      1.0  0.60140  0.80435  0.38998  1.0000
  C   C994      1.0  0.61179  0.82442  0.38257  1.0000
  H   H1189     1.0  0.64943  0.82194  0.32363  1.0000
  H   H1190     1.0  0.63094  0.78662  0.33622  1.0000
  H   H1191     1.0  0.58796  0.79951  0.40852  1.0000
  Fe  Fe136     1.0  0.59955  0.74100  0.34832  1.0000
  C   C995      1.0  0.61491  0.78286  0.20216  1.0000
  C   C996      1.0  0.63456  0.78937  0.18777  1.0000
  C   C997      1.0  0.64837  0.80756  0.19942  1.0000
  H   H1192     1.0  0.57413  0.77074  0.18847  1.0000
  H   H1193     1.0  0.58406  0.75650  0.24878  1.0000
  H   H1194     1.0  0.60482  0.76858  0.19255  1.0000
  H   H1195     1.0  0.63908  0.78012  0.16774  1.0000
  H   H1196     1.0  0.66364  0.81250  0.18847  1.0000
  H   H1197     1.0  0.59681  0.89351  0.52960  1.0000
  H   H1198     1.0  0.69435  0.93338  0.36996  1.0000
  H   H1199     1.0  0.61951  0.82278  0.26025  1.0000
  H   H1200     1.0  0.62735  0.95152  0.31318  1.0000
  H   H1201     1.0  0.57604  0.79558  0.18849  1.0000
  Fe  Fe137     1.0  0.52486  0.97633  0.10889  1.0000
  H   H1202     1.0  0.66919  0.92120  0.31383  1.0000
  C   C998      1.0  0.52898  0.97555  0.29728  1.0000
  C   C999      1.0  0.48248  0.97898  0.37127  1.0000
  S   S275      1.0  0.54956  0.97126  0.07487  1.0000
  H   H1203     1.0  0.69884  0.92382  0.22615  1.0000
  S   S276      1.0  0.51922  0.97147  0.43389  1.0000
  H   H1204     1.0  0.67111  0.96481  0.20771  1.0000
  N   N65       1.0  0.62392  0.98004  0.45199  1.0000
  H   H1205     1.0  0.59388  0.96382  0.47285  1.0000
  N   N66       1.0  0.58766  0.78681  0.24454  1.0000
  C   C1000     1.0  0.63286  0.97924  0.49396  1.0000
  C   C1001     1.0  0.63815  0.96319  0.50555  1.0000
  Fe  Fe138     1.0  0.53949  0.96501  0.48151  1.0000
  H   H1206     1.0  0.71873  0.93181  0.36540  1.0000
  C   C1002     1.0  0.58331  0.80055  0.27232  1.0000
  C   C1003     1.0  0.60433  0.96351  0.44791  1.0000
  S   S277      1.0  0.53843  0.98608  0.52997  1.0000
  C   C1004     1.0  0.59958  0.95495  0.32420  1.0000
  N   N67       1.0  0.69878  0.92081  0.31224  1.0000
  C   C1005     1.0  0.70831  0.90708  0.30038  1.0000
  C   C1006     1.0  0.70246  0.92440  0.35795  1.0000
  C   C1007     1.0  0.67682  0.91128  0.30527  1.0000
  C   C1008     1.0  0.70659  0.93876  0.28623  1.0000
  C   C1009     1.0  0.70550  0.93763  0.24176  1.0000
  C   C1010     1.0  0.71476  0.95771  0.30373  1.0000
  C   C1011     1.0  0.52700  0.97564  0.22060  1.0000
  C   C1012     1.0  0.61821  0.95994  0.30566  1.0000
  H   H1207     1.0  0.59322  0.80392  0.30073  1.0000
  H   H1208     1.0  0.72495  0.91409  0.30295  1.0000
  H   H1209     1.0  0.70337  0.89383  0.32088  1.0000
  H   H1210     1.0  0.70433  0.90168  0.26787  1.0000
  H   H1211     1.0  0.56243  0.91087  0.50660  1.0000
  H   H1212     1.0  0.69696  0.91060  0.37657  1.0000
  H   H1213     1.0  0.56767  0.79438  0.28401  1.0000
  H   H1214     1.0  0.67273  0.90707  0.27207  1.0000
  H   H1215     1.0  0.67023  0.89770  0.32443  1.0000
  C   C1013     1.0  0.58773  0.96564  0.31468  1.0000
  C   C1014     1.0  0.51951  0.96707  0.25947  1.0000
  H   H1216     1.0  0.71538  0.96018  0.33707  1.0000
  H   H1217     1.0  0.55744  0.77732  0.21944  1.0000
  H   H1218     1.0  0.63597  0.95143  0.48420  1.0000
  H   H1219     1.0  0.71107  0.95323  0.18263  1.0000
  C   C1015     1.0  0.61306  0.98640  0.26583  1.0000
  H   H1220     1.0  0.48352  0.97903  0.40613  1.0000
  H   H1221     1.0  0.49247  0.97190  0.35942  1.0000
  H   H1222     1.0  0.72527  0.98566  0.21501  1.0000
  H   H1223     1.0  0.63951  0.96459  0.41946  1.0000
  S   S278      1.0  0.62324  0.74665  0.29972  1.0000
  C   C1016     1.0  0.59430  0.98110  0.28593  1.0000
  C   C1017     1.0  0.47125  0.98492  0.24110  1.0000
  C   C1018     1.0  0.47106  0.98659  0.28470  1.0000
  N   N68       1.0  0.57107  0.83540  0.68535  1.0000
  H   H1224     1.0  0.64897  0.91207  0.61055  1.0000
  C   C1019     1.0  0.59442  0.97684  0.83849  1.0000
  H   H1225     1.0  0.71165  0.76037  0.77122  1.0000
  S   S279      1.0  0.63721  0.77932  0.86519  1.0000
  C   C1020     1.0  0.61121  0.95037  0.65231  1.0000
  Fe  Fe139     1.0  0.60009  0.89838  0.74373  1.0000
  S   S280      1.0  0.62380  0.88598  0.75484  1.0000
  S   S281      1.0  0.58457  0.89576  0.68021  1.0000
  Fe  Fe140     1.0  0.60198  0.91185  0.83503  1.0000
  S   S282      1.0  0.62545  0.89967  0.85241  1.0000
  S   S283      1.0  0.59837  0.93237  0.88359  1.0000
  Fe  Fe141     1.0  0.63942  0.91331  0.79161  1.0000
  S   S284      1.0  0.67265  0.93044  0.78729  1.0000
  Fe  Fe142     1.0  0.60740  0.87338  0.81419  1.0000
  S   S285      1.0  0.59547  0.84094  0.83164  1.0000
  S   S286      1.0  0.61704  0.92665  0.77581  1.0000
  S   S287      1.0  0.58262  0.88464  0.80131  1.0000
  C   C1021     1.0  0.71407  0.98403  0.76557  1.0000
  S   S288      1.0  0.52302  0.93758  0.97538  1.0000
  H   H1226     1.0  0.65623  0.96120  0.77549  1.0000
  C   C1022     1.0  0.57702  0.93276  0.90931  1.0000
  C   C1023     1.0  0.57993  0.94661  0.94081  1.0000
  C   C1024     1.0  0.56350  0.94828  0.96104  1.0000
  C   C1025     1.0  0.54398  0.93587  0.95036  1.0000
  C   C1026     1.0  0.54104  0.92187  0.91914  1.0000
  C   C1027     1.0  0.55751  0.92035  0.89852  1.0000
  H   H1227     1.0  0.59499  0.95615  0.94954  1.0000
  H   H1228     1.0  0.56593  0.95902  0.98522  1.0000
  H   H1229     1.0  0.52598  0.91216  0.91085  1.0000
  H   H1230     1.0  0.55511  0.90962  0.87436  1.0000
  C   C1028     1.0  0.62531  0.79630  0.85683  1.0000
  C   C1029     1.0  0.63686  0.81526  0.84273  1.0000
  C   C1030     1.0  0.62810  0.82918  0.83524  1.0000
  C   C1031     1.0  0.60758  0.82425  0.84152  1.0000
  C   C1032     1.0  0.59603  0.80526  0.85537  1.0000
  C   C1033     1.0  0.60481  0.79139  0.86313  1.0000
  H   H1231     1.0  0.65273  0.81926  0.83772  1.0000
  H   H1232     1.0  0.63720  0.84368  0.82457  1.0000
  H   H1233     1.0  0.58015  0.80127  0.86035  1.0000
  H   H1234     1.0  0.59570  0.77690  0.87389  1.0000
  H   H1235     1.0  0.57520  0.88939  0.59182  1.0000
  H   H1236     1.0  0.56379  0.94620  0.65559  1.0000
  H   H1237     1.0  0.55437  0.80872  0.71810  1.0000
  C   C1034     1.0  0.68352  0.95565  0.77637  1.0000
  N   N69       1.0  0.65771  0.96672  0.89915  1.0000
  C   C1035     1.0  0.70437  0.96403  0.77272  1.0000
  H   H1238     1.0  0.55441  0.93469  0.60603  1.0000
  H   H1239     1.0  0.71312  0.95496  0.77533  1.0000
  C   C1036     1.0  0.70634  0.76950  0.79124  1.0000
  H   H1240     1.0  0.58323  0.96212  0.83772  1.0000
  C   C1037     1.0  0.59131  0.89429  0.59594  1.0000
  C   C1038     1.0  0.59989  0.89807  0.63643  1.0000
  C   C1039     1.0  0.62071  0.90466  0.64142  1.0000
  C   C1040     1.0  0.63286  0.90715  0.60631  1.0000
  H   H1241     1.0  0.62752  0.90795  0.67233  1.0000
  H   H1242     1.0  0.70836  0.78317  0.77354  1.0000
  N   N70       1.0  0.68512  0.75941  0.80354  1.0000
  H   H1243     1.0  0.63380  0.86766  0.62315  1.0000
  C   C1041     1.0  0.68075  0.77163  0.83524  1.0000
  H   H1244     1.0  0.65396  0.97359  0.98486  1.0000
  C   C1042     1.0  0.64655  0.94946  0.92549  1.0000
  C   C1043     1.0  0.66452  0.98530  0.92213  1.0000
  H   H1245     1.0  0.49361  0.97266  0.90638  1.0000
  C   C1044     1.0  0.61129  0.98290  0.64643  1.0000
  H   H1246     1.0  0.48620  0.97397  0.95976  1.0000
  H   H1247     1.0  0.71664  0.77342  0.81909  1.0000
  C   C1045     1.0  0.48930  0.96451  0.93649  1.0000
  H   H1248     1.0  0.63832  0.95337  0.84662  1.0000
  H   H1249     1.0  0.65534  0.97517  0.60539  1.0000
  H   H1250     1.0  0.58699  0.98166  0.90022  1.0000
  H   H1251     1.0  0.58571  0.86059  0.72328  1.0000
  C   C1046     1.0  0.62434  0.90298  0.56592  1.0000
  C   C1047     1.0  0.63637  0.97668  0.68962  1.0000
  N   N71       1.0  0.58498  0.95544  0.60555  1.0000
  H   H1252     1.0  0.57144  0.92745  0.63680  1.0000
  C   C1048     1.0  0.66152  0.98634  0.96585  1.0000
  C   C1049     1.0  0.57785  0.97063  0.58916  1.0000
  H   H1253     1.0  0.69124  0.77466  0.86272  1.0000
  N   N72       1.0  0.47189  0.94586  0.93108  1.0000
  H   H1254     1.0  0.57272  0.97754  0.61481  1.0000
  H   H1255     1.0  0.95968  0.75942  0.74024  1.0000
  H   H1256     1.0  0.59418  0.93370  0.57782  1.0000
  H   H1257     1.0  0.56180  0.82728  0.60179  1.0000
  H   H1258     1.0  0.61269  0.85783  0.68393  1.0000
  C   C1050     1.0  0.62798  0.95711  0.67907  1.0000
  C   C1051     1.0  0.57736  0.83619  0.60780  1.0000
  H   H1259     1.0  0.67081  0.94953  0.86560  1.0000
  H   H1260     1.0  0.55616  0.80610  0.66268  1.0000
  H   H1261     1.0  0.63721  0.74496  0.66517  1.0000
  H   H1262     1.0  0.56983  0.83992  0.75210  1.0000
  C   C1052     1.0  0.47762  0.93404  0.90069  1.0000
  C   C1053     1.0  0.60241  0.96303  0.63479  1.0000
  C   C1054     1.0  0.64610  0.96177  0.54528  1.0000
  H   H1263     1.0  0.65186  0.97878  0.84012  1.0000
  C   C1055     1.0  0.67234  0.96758  0.77299  1.0000
  H   H1264     1.0  0.63284  0.95059  0.93875  1.0000
  H   H1265     1.0  0.63449  0.94707  0.69160  1.0000
  C   C1056     1.0  0.67532  0.96366  0.88226  1.0000
  H   H1266     1.0  0.64943  0.98192  0.71011  1.0000
  H   H1267     1.0  0.66552  0.76417  0.84817  1.0000
  H   H1268     1.0  0.68610  0.96359  0.90776  1.0000
  H   H1269     1.0  0.55781  0.85626  0.66960  1.0000
  H   H1270     1.0  0.60394  0.97590  0.77540  1.0000
  H   H1271     1.0  0.63108  0.97019  0.87513  1.0000
  C   C1057     1.0  0.55320  0.84053  0.67779  1.0000
  C   C1058     1.0  0.64914  0.97632  0.57463  1.0000
  H   H1272     1.0  0.59327  0.84032  0.73542  1.0000
  C   C1059     1.0  0.58990  0.84218  0.57317  1.0000
  C   C1060     1.0  0.67180  0.75566  0.76593  1.0000
  H   H1273     1.0  0.48227  0.93452  0.98582  1.0000
  C   C1061     1.0  0.60560  0.85295  0.65386  1.0000
  C   C1062     1.0  0.65540  0.76189  0.76221  1.0000
  C   C1063     1.0  0.67482  0.74509  0.73178  1.0000
  Fe  Fe143     1.0  0.62492  0.74822  0.89203  1.0000
  C   C1064     1.0  0.61018  0.85348  0.57878  1.0000
  Fe  Fe144     1.0  0.52797  0.96248  0.02018  1.0000
  H   H1274     1.0  0.54364  0.83776  0.70600  1.0000
  C   C1065     1.0  0.59043  0.94650  0.56898  1.0000
  C   C1066     1.0  0.56444  0.81404  0.69077  1.0000
  H   H1275     1.0  0.54333  0.83208  0.65201  1.0000
  C   C1067     1.0  0.61803  0.85865  0.61904  1.0000
  C   C1068     1.0  0.56796  0.94033  0.62698  1.0000
  H   H1276     1.0  0.58969  0.98219  0.57127  1.0000
  C   C1069     1.0  0.60351  0.89672  0.56066  1.0000
  H   H1277     1.0  0.64117  0.93581  0.90688  1.0000
  H   H1278     1.0  0.60512  0.93511  0.64526  1.0000
  H   H1279     1.0  0.57755  0.80974  0.69642  1.0000
  C   C1070     1.0  0.58048  0.84449  0.72555  1.0000
  H   H1280     1.0  0.63073  0.76294  0.72418  1.0000
  C   C1071     1.0  0.58474  0.84172  0.64923  1.0000
  H   H1281     1.0  0.92432  0.74185  0.71889  1.0000
  H   H1282     1.0  0.48012  0.94107  0.86910  1.0000
  H   H1283     1.0  0.65156  0.76967  0.78677  1.0000
  H   H1284     1.0  0.68367  0.97512  0.85926  1.0000
  H   H1285     1.0  0.65608  0.94724  0.95142  1.0000
  C   C1072     1.0  0.64316  0.75806  0.72617  1.0000
  H   H1286     1.0  0.50285  0.96210  0.94824  1.0000
  C   C1073     1.0  0.64425  0.96740  0.86376  1.0000
  H   H1287     1.0  0.68176  0.78594  0.82191  1.0000
  C   C1074     1.0  0.68275  0.74064  0.82413  1.0000
  H   H1288     1.0  0.58388  0.83823  0.54171  1.0000
  H   H1289     1.0  0.61982  0.85852  0.55185  1.0000
  C   C1075     1.0  0.64678  0.74794  0.69297  1.0000
  C   C1076     1.0  0.95370  0.74370  0.73904  1.0000
  C   C1077     1.0  0.60611  0.98453  0.80349  1.0000
  H   H1290     1.0  0.49173  0.93214  0.91074  1.0000
  H   H1291     1.0  0.64986  0.94923  0.55327  1.0000
  H   H1292     1.0  0.69203  0.74265  0.85335  1.0000
  H   H1293     1.0  0.56480  0.96444  0.56718  1.0000
  H   H1294     1.0  0.57789  0.94120  0.54568  1.0000
  C   C1078     1.0  0.66258  0.74145  0.69580  1.0000
  H   H1295     1.0  0.68648  0.73922  0.73287  1.0000
  H   H1296     1.0  0.60354  0.95715  0.55286  1.0000
  C   C1079     1.0  0.68220  0.98788  0.76682  1.0000
  C   C1080     1.0  0.59696  0.98802  0.87454  1.0000
