data_image0
_chemical_formula_structural       H3CHCH2CH3C2H2CH2C2H2C4HFeSNFeS2FeCFeS3FeS2FeSFeSFeHS2H2C2HC4H2C6H5C3HCH4CH2CH2CSH4CH3C2HCH2C3NCHCH2C2HC2H3C2H3CH3NHFeS2FeS2FeSNS2FeS2Fe2SFeS3HC7H3C7H4CHCH2CHC4H4C3SH4C2H2NC2S2NC7HCH11C2HCHCH3CH3CH2CHC2H2CFeH2CH2C2H5NHC2H3CHC2HCH3CH5CH2CHC2H3CFeS2FeHFeSFeSHCFeS2C3H5C6H2CHC2H2C2H3C6H2CSHSHSNHC2H2CSHCH2C3HCHSHCH2S2HSHNC3HCH7CHCNHCH3NCHC2H2NCH6CFeC7H3NC3HCSC2H9CHCH2CSCSHSC2HCHCH2SHC2H2CHC2H5CFeHCHFeC2HCHCS2HSCHC5HC7H3CHSCHSH2FeHC2H2CH2CHC3HNC6HCH10FeHCHNH2CHC2HC2H4CH4FeCHFeS2CHCH2SFeS2FeHFeSFeS2C6H5SH2CH2NC2HC9H3SH4SCHCHCH2C4HCNHCH5C3HCSHC3HC5H3NHC2HCHSH4CH2CHFeS2FeS2Fe2S4FeSFeS2FeHFeS2C6H4C7H4CHC5H4C2H2SH2C3H4CHNCSHCHC2H2NCH2C3H3CH8CHCHNC2H4CHCH2C3HCHC2H3CH2CSHCH2C2FeS2FeSHFeSFeCS2CSFeSFeS2FeHFeS3H2CHC2NCHC6H5C2NH3CH2CHCSCHC3H5CH2CHCH2CH2CH3CH5CHCH5C2HCH3C3H2C4H4NH2C3H2
_chemical_formula_sum              "H432 C360 Fe48 S96 N24"
_cell_length_a       45.9278
_cell_length_b       46.1874
_cell_length_c       32.1834
_cell_angle_alpha    89.9739
_cell_angle_beta     90.0048
_cell_angle_gamma    120.169

_space_group_name_H-M_alt    "P 1"
_space_group_IT_number       1

loop_
  _space_group_symop_operation_xyz
  'x, y, z'

loop_
  _atom_site_type_symbol
  _atom_site_label
  _atom_site_symmetry_multiplicity
  _atom_site_fract_x
  _atom_site_fract_y
  _atom_site_fract_z
  _atom_site_occupancy
  H   H1        1.0  0.43144  0.23382  0.37431  1.0000
  H   H2        1.0  0.37885  0.28419  0.05718  1.0000
  H   H3        1.0  0.42127  0.20506  0.44535  1.0000
  C   C1        1.0  0.43433  0.22903  0.03844  1.0000
  H   H4        1.0  0.43162  0.98201  0.42688  1.0000
  C   C2        1.0  0.39393  0.28931  0.08613  1.0000
  H   H5        1.0  0.41711  0.99815  0.03962  1.0000
  H   H6        1.0  0.41892  0.24187  0.09431  1.0000
  C   C3        1.0  0.42861  0.25045  0.06338  1.0000
  H   H7        1.0  0.38422  0.26515  0.10297  1.0000
  H   H8        1.0  0.36572  0.97832  0.49170  1.0000
  H   H9        1.0  0.44728  0.28976  0.39032  1.0000
  C   C4        1.0  0.44411  0.97391  0.44854  1.0000
  C   C5        1.0  0.43619  0.28263  0.04919  1.0000
  H   H10       1.0  0.43912  0.28735  0.13522  1.0000
  H   H11       1.0  0.42933  0.20500  0.05042  1.0000
  C   C6        1.0  0.44843  0.21286  0.44342  1.0000
  H   H12       1.0  0.39067  0.99768  0.93563  1.0000
  H   H13       1.0  0.40983  0.01399  0.86339  1.0000
  C   C7        1.0  0.39435  0.98769  0.87132  1.0000
  C   C8        1.0  0.38346  0.97843  0.91206  1.0000
  H   H14       1.0  0.41502  0.00257  0.53841  1.0000
  H   H15       1.0  0.39416  0.97052  0.80934  1.0000
  C   C9        1.0  0.42666  0.98941  0.01480  1.0000
  C   C10       1.0  0.44764  0.23888  0.99870  1.0000
  C   C11       1.0  0.39990  0.97560  0.53471  1.0000
  C   C12       1.0  0.44841  0.01246  0.98488  1.0000
  H   H16       1.0  0.43138  0.96578  0.57450  1.0000
  Fe  Fe1       1.0  0.11180  0.53289  0.43099  1.0000
  S   S1        1.0  0.09197  0.56105  0.39418  1.0000
  N   N1        1.0  0.07369  0.45177  0.24025  1.0000
  Fe  Fe2       1.0  0.14437  0.52091  0.35419  1.0000
  S   S2        1.0  0.12545  0.54653  0.31265  1.0000
  S   S3        1.0  0.17985  0.50220  0.33494  1.0000
  Fe  Fe3       1.0  0.14313  0.58541  0.36292  1.0000
  C   C13       1.0  0.28175  0.62595  0.45554  1.0000
  Fe  Fe4       1.0  0.07578  0.51925  0.34723  1.0000
  S   S4        1.0  0.02752  0.49514  0.30688  1.0000
  S   S5        1.0  0.16373  0.56052  0.40347  1.0000
  S   S6        1.0  0.09376  0.49027  0.38517  1.0000
  Fe  Fe5       1.0  0.30875  0.52999  0.14378  1.0000
  S   S7        1.0  0.35779  0.55716  0.17838  1.0000
  S   S8        1.0  0.25857  0.52504  0.16420  1.0000
  Fe  Fe6       1.0  0.34560  0.53393  0.06132  1.0000
  S   S9        1.0  0.39680  0.56300  0.09069  1.0000
  Fe  Fe7       1.0  0.37431  0.52522  0.14283  1.0000
  S   S10       1.0  0.40809  0.50665  0.17271  1.0000
  Fe  Fe8       1.0  0.37570  0.59160  0.12323  1.0000
  H   H17       1.0  0.02325  0.44358  0.24766  1.0000
  S   S11       1.0  0.32330  0.49507  0.11220  1.0000
  S   S12       1.0  0.32666  0.56563  0.08958  1.0000
  H   H18       1.0  0.43724  0.35488  0.08014  1.0000
  H   H19       1.0  0.39960  0.49827  0.08259  1.0000
  C   C14       1.0  0.41947  0.47463  0.16937  1.0000
  C   C15       1.0  0.08794  0.48774  0.23032  1.0000
  H   H20       1.0  0.37840  0.45946  0.05477  1.0000
  C   C16       1.0  0.13360  0.41929  0.17297  1.0000
  C   C17       1.0  0.44656  0.47773  0.19349  1.0000
  C   C18       1.0  0.40291  0.44673  0.14318  1.0000
  C   C19       1.0  0.09996  0.40661  0.16209  1.0000
  H   H21       1.0  0.25847  0.58824  0.28818  1.0000
  H   H22       1.0  0.38153  0.44325  0.12525  1.0000
  C   C20       1.0  0.20490  0.51320  0.28922  1.0000
  C   C21       1.0  0.19925  0.52885  0.25546  1.0000
  C   C22       1.0  0.21669  0.53318  0.21782  1.0000
  C   C23       1.0  0.24085  0.52310  0.21390  1.0000
  C   C24       1.0  0.24789  0.50925  0.24841  1.0000
  C   C25       1.0  0.22970  0.50397  0.28569  1.0000
  H   H23       1.0  0.18033  0.53617  0.25770  1.0000
  H   H24       1.0  0.21083  0.54364  0.19119  1.0000
  H   H25       1.0  0.26614  0.50106  0.24576  1.0000
  H   H26       1.0  0.23424  0.49178  0.31156  1.0000
  H   H27       1.0  0.02515  0.40678  0.23534  1.0000
  C   C26       1.0  0.98286  0.47018  0.31541  1.0000
  C   C27       1.0  0.96882  0.45696  0.35437  1.0000
  C   C28       1.0  0.44900  0.31042  0.11605  1.0000
  H   H28       1.0  0.98520  0.46218  0.38086  1.0000
  C   C29       1.0  0.44108  0.42625  0.16438  1.0000
  H   H29       1.0  0.40080  0.40179  0.11988  1.0000
  H   H30       1.0  0.06842  0.42182  0.29414  1.0000
  H   H31       1.0  0.13949  0.46886  0.25331  1.0000
  H   H32       1.0  0.03334  0.43825  0.19606  1.0000
  C   C30       1.0  0.09330  0.43923  0.21780  1.0000
  H   H33       1.0  0.37160  0.49326  0.04149  1.0000
  H   H34       1.0  0.10162  0.46470  0.29834  1.0000
  C   C31       1.0  0.39108  0.48713  0.05122  1.0000
  H   H35       1.0  0.05915  0.45470  0.30336  1.0000
  H   H36       1.0  0.24583  0.62139  0.21551  1.0000
  C   C32       1.0  0.31573  0.61306  0.40818  1.0000
  S   S13       1.0  0.10038  0.51607  0.49852  1.0000
  H   H37       1.0  0.23279  0.55587  0.39619  1.0000
  H   H38       1.0  0.27289  0.59714  0.17499  1.0000
  H   H39       1.0  0.05427  0.40599  0.17357  1.0000
  H   H40       1.0  0.97111  0.47282  0.25112  1.0000
  C   C33       1.0  0.41379  0.42298  0.14051  1.0000
  H   H41       1.0  0.11476  0.50297  0.23987  1.0000
  H   H42       1.0  0.14916  0.41199  0.15570  1.0000
  H   H43       1.0  0.42739  0.33677  0.02945  1.0000
  C   C34       1.0  0.25270  0.59733  0.43935  1.0000
  C   C35       1.0  0.96080  0.46282  0.28145  1.0000
  H   H44       1.0  0.17368  0.45176  0.21426  1.0000
  C   C36       1.0  0.25533  0.57750  0.40838  1.0000
  H   H45       1.0  0.22759  0.58967  0.45001  1.0000
  H   H46       1.0  0.44555  0.54877  0.04896  1.0000
  C   C37       1.0  0.03734  0.43413  0.22913  1.0000
  C   C38       1.0  0.07590  0.44805  0.28583  1.0000
  C   C39       1.0  0.14736  0.44161  0.20599  1.0000
  N   N2        1.0  0.43034  0.30501  0.07658  1.0000
  C   C40       1.0  0.28675  0.58534  0.39282  1.0000
  H   H47       1.0  0.08940  0.38929  0.13628  1.0000
  C   C41       1.0  0.12755  0.45134  0.22818  1.0000
  H   H48       1.0  0.08678  0.49162  0.19636  1.0000
  H   H49       1.0  0.07398  0.49845  0.24638  1.0000
  C   C42       1.0  0.30886  0.62820  0.27462  1.0000
  C   C43       1.0  0.07997  0.41642  0.18395  1.0000
  H   H50       1.0  0.31193  0.61260  0.25205  1.0000
  C   C44       1.0  0.27943  0.62294  0.16947  1.0000
  C   C45       1.0  0.44151  0.33857  0.05832  1.0000
  H   H51       1.0  0.13843  0.58871  0.51260  1.0000
  H   H52       1.0  0.28855  0.56990  0.36872  1.0000
  H   H53       1.0  0.44104  0.33168  0.42764  1.0000
  C   C46       1.0  0.44363  0.48957  0.03506  1.0000
  C   C47       1.0  0.27775  0.61384  0.29506  1.0000
  H   H54       1.0  0.04005  0.53888  0.50817  1.0000
  H   H55       1.0  0.34019  0.61912  0.39609  1.0000
  H   H56       1.0  0.23039  0.61316  0.51282  1.0000
  C   C48       1.0  0.44786  0.31565  0.44461  1.0000
  H   H57       1.0  0.38867  0.30575  0.10640  1.0000
  H   H58       1.0  0.44766  0.32943  0.13599  1.0000
  H   H59       1.0  0.24714  0.62095  0.34002  1.0000
  N   N3        1.0  0.41917  0.49948  0.02094  1.0000
  H   H60       1.0  0.31521  0.63035  0.12145  1.0000
  Fe  Fe9       1.0  0.13963  0.53213  0.78004  1.0000
  S   S14       1.0  0.17178  0.58669  0.76682  1.0000
  S   S15       1.0  0.15818  0.49539  0.78536  1.0000
  Fe  Fe10      1.0  0.07423  0.53577  0.79230  1.0000
  S   S16       1.0  0.10281  0.59179  0.78131  1.0000
  S   S17       1.0  0.01850  0.49780  0.80753  1.0000
  Fe  Fe11      1.0  0.12758  0.57956  0.72846  1.0000
  S   S18       1.0  0.13737  0.60287  0.66402  1.0000
  N   N4        1.0  0.01148  0.51453  0.67184  1.0000
  S   S19       1.0  0.09741  0.52400  0.73773  1.0000
  S   S20       1.0  0.11443  0.53909  0.83543  1.0000
  Fe  Fe12      1.0  0.33687  0.53839  0.70877  1.0000
  S   S21       1.0  0.35117  0.58748  0.73818  1.0000
  S   S22       1.0  0.28382  0.49535  0.70330  1.0000
  Fe  Fe13      1.0  0.40888  0.55821  0.68580  1.0000
  Fe  Fe14      1.0  0.39338  0.58310  0.76669  1.0000
  S   S23       1.0  0.40988  0.60039  0.83309  1.0000
  Fe  Fe15      1.0  0.38486  0.61025  0.68248  1.0000
  S   S24       1.0  0.37650  0.53169  0.74133  1.0000
  S   S25       1.0  0.36742  0.56087  0.65103  1.0000
  S   S26       1.0  0.33560  0.51524  0.99440  1.0000
  H   H61       1.0  0.05996  0.55323  0.69391  1.0000
  C   C49       1.0  0.12993  0.57612  0.54222  1.0000
  C   C50       1.0  0.38962  0.57592  0.87761  1.0000
  C   C51       1.0  0.36309  0.54289  0.87441  1.0000
  C   C52       1.0  0.34718  0.52449  0.91056  1.0000
  C   C53       1.0  0.35719  0.53912  0.95012  1.0000
  C   C54       1.0  0.38378  0.57210  0.95336  1.0000
  C   C55       1.0  0.40008  0.59029  0.91725  1.0000
  H   H62       1.0  0.35482  0.53154  0.84411  1.0000
  H   H63       1.0  0.32659  0.49897  0.90782  1.0000
  H   H64       1.0  0.39172  0.58368  0.98362  1.0000
  C   C56       1.0  0.28887  0.59406  0.64767  1.0000
  C   C57       1.0  0.19443  0.49790  0.76293  1.0000
  C   C58       1.0  0.19315  0.46774  0.75348  1.0000
  C   C59       1.0  0.22086  0.46762  0.73564  1.0000
  C   C60       1.0  0.25074  0.49764  0.72816  1.0000
  C   C61       1.0  0.25263  0.52813  0.73849  1.0000
  C   C62       1.0  0.22428  0.52829  0.75544  1.0000
  H   H65       1.0  0.17035  0.44419  0.75952  1.0000
  H   H66       1.0  0.21910  0.44401  0.72782  1.0000
  H   H67       1.0  0.27554  0.55149  0.73251  1.0000
  H   H68       1.0  0.22557  0.55174  0.76281  1.0000
  C   C63       1.0  0.97572  0.48903  0.80962  1.0000
  H   H69       1.0  0.44031  0.45848  0.98157  1.0000
  C   C64       1.0  0.96602  0.51176  0.79591  1.0000
  H   H70       1.0  0.42067  0.61581  0.92000  1.0000
  H   H71       1.0  0.98493  0.53616  0.78480  1.0000
  C   C65       1.0  0.11079  0.54114  0.54362  1.0000
  H   H72       1.0  0.05402  0.57632  0.63174  1.0000
  C   C66       1.0  0.13778  0.59481  0.57934  1.0000
  C   C67       1.0  0.12675  0.57869  0.61798  1.0000
  C   C68       1.0  0.10774  0.54375  0.61922  1.0000
  C   C69       1.0  0.09970  0.52511  0.58224  1.0000
  H   H73       1.0  0.99831  0.46229  0.67097  1.0000
  H   H74       1.0  0.16229  0.50755  0.87730  1.0000
  H   H75       1.0  0.09896  0.53104  0.64855  1.0000
  H   H76       1.0  0.08466  0.49807  0.58349  1.0000
  C   C70       1.0  0.22734  0.56587  0.63963  1.0000
  C   C71       1.0  0.31206  0.62294  0.82742  1.0000
  C   C72       1.0  0.17101  0.53517  0.66879  1.0000
  S   S27       1.0  0.44073  0.54248  0.64689  1.0000
  H   H77       1.0  0.40532  0.39128  0.70716  1.0000
  H   H78       1.0  0.97045  0.52444  0.67124  1.0000
  H   H79       1.0  0.01492  0.48280  0.71889  1.0000
  H   H80       1.0  0.33972  0.48565  0.66374  1.0000
  C   C73       1.0  0.19432  0.50365  0.63934  1.0000
  C   C74       1.0  0.29999  0.57453  0.96080  1.0000
  H   H81       1.0  0.14574  0.51210  0.66768  1.0000
  H   H82       1.0  0.16655  0.55661  0.66639  1.0000
  N   N5        1.0  0.19370  0.53542  0.63575  1.0000
  C   C75       1.0  0.01134  0.50205  0.55480  1.0000
  C   C76       1.0  0.23826  0.55982  0.92260  1.0000
  S   S28       1.0  0.42880  0.60988  0.71330  1.0000
  S   S29       1.0  0.17592  0.62187  0.87847  1.0000
  N   N6        1.0  0.33980  0.43903  0.66765  1.0000
  C   C77       1.0  0.35636  0.47510  0.65712  1.0000
  C   C78       1.0  0.30934  0.42052  0.64141  1.0000
  C   C79       1.0  0.32853  0.43547  0.71161  1.0000
  C   C80       1.0  0.36339  0.42655  0.65970  1.0000
  C   C81       1.0  0.37386  0.41213  0.69123  1.0000
  C   C82       1.0  0.37696  0.42902  0.61932  1.0000
  C   C83       1.0  0.39661  0.40115  0.68257  1.0000
  H   H83       1.0  0.95818  0.48155  0.66149  1.0000
  C   C84       1.0  0.27715  0.58051  0.98211  1.0000
  H   H84       1.0  0.37986  0.48950  0.67548  1.0000
  H   H85       1.0  0.36358  0.48032  0.62386  1.0000
  H   H86       1.0  0.29064  0.42868  0.64761  1.0000
  H   H87       1.0  0.29679  0.39309  0.64737  1.0000
  H   H88       1.0  0.31528  0.42457  0.60770  1.0000
  H   H89       1.0  0.31117  0.44553  0.71651  1.0000
  H   H90       1.0  0.31459  0.40877  0.72148  1.0000
  H   H91       1.0  0.36546  0.40962  0.72300  1.0000
  H   H92       1.0  0.37057  0.44005  0.59387  1.0000
  H   H93       1.0  0.96897  0.49778  0.71299  1.0000
  H   H94       1.0  0.18355  0.49923  0.91858  1.0000
  C   C85       1.0  0.18751  0.51524  0.89087  1.0000
  C   C86       1.0  0.01707  0.48676  0.68455  1.0000
  H   H95       1.0  0.17513  0.55703  0.59066  1.0000
  C   C87       1.0  0.21306  0.57135  0.86346  1.0000
  H   H96       1.0  0.15957  0.55157  0.91171  1.0000
  C   C88       1.0  0.26232  0.55440  0.90169  1.0000
  H   H97       1.0  0.19514  0.58488  0.93645  1.0000
  H   H98       1.0  0.18164  0.53634  0.70019  1.0000
  H   H99       1.0  0.16859  0.48131  0.63698  1.0000
  C   C89       1.0  0.40953  0.40413  0.64268  1.0000
  H   H100      1.0  0.00032  0.48166  0.53257  1.0000
  H   H101      1.0  0.28352  0.61810  0.53809  1.0000
  H   H102      1.0  0.02754  0.56452  0.69421  1.0000
  C   C90       1.0  0.17913  0.53538  0.59460  1.0000
  H   H103      1.0  0.19580  0.53637  0.56889  1.0000
  H   H104      1.0  0.29677  0.60792  0.80159  1.0000
  C   C91       1.0  0.18338  0.55788  0.92825  1.0000
  H   H105      1.0  0.22750  0.56576  0.84034  1.0000
  C   C92       1.0  0.39978  0.41807  0.61113  1.0000
  C   C93       1.0  0.24671  0.57341  0.96346  1.0000
  H   H106      1.0  0.20444  0.50173  0.66995  1.0000
  H   H107      1.0  0.35024  0.44985  0.73297  1.0000
  C   C94       1.0  0.25755  0.56469  0.64437  1.0000
  Fe  Fe16      1.0  0.14509  0.59423  0.82078  1.0000
  H   H108      1.0  0.15235  0.62187  0.57807  1.0000
  H   H109      1.0  0.42808  0.39665  0.63659  1.0000
  C   C95       1.0  0.00383  0.49588  0.59713  1.0000
  H   H110      1.0  0.28295  0.59025  0.01357  1.0000
  H   H111      1.0  0.18931  0.56604  0.84770  1.0000
  C   C96       1.0  0.33692  0.61719  0.84336  1.0000
  C   C97       1.0  0.97573  0.50415  0.67964  1.0000
  H   H112      1.0  0.15407  0.51248  0.58993  1.0000
  H   H113      1.0  0.43845  0.50338  0.72074  1.0000
  H   H114      1.0  0.20081  0.50880  0.86694  1.0000
  H   H115      1.0  0.20967  0.50121  0.61432  1.0000
  H   H116      1.0  0.17597  0.54264  0.95720  1.0000
  N   N7        1.0  0.20607  0.55132  0.90201  1.0000
  H   H117      1.0  0.06582  0.58571  0.55822  1.0000
  C   C98       1.0  0.29264  0.56167  0.92063  1.0000
  C   C99       1.0  0.04107  0.55480  0.61164  1.0000
  H   H118      1.0  0.41067  0.42114  0.58041  1.0000
  H   H119      1.0  0.38598  0.49404  0.97015  1.0000
  H   H120      1.0  0.02763  0.53695  0.73269  1.0000
  C   C100      1.0  0.03356  0.53436  0.54089  1.0000
  H   H121      1.0  0.31164  0.59271  0.65179  1.0000
  C   C101      1.0  0.03263  0.54363  0.69914  1.0000
  C   C102      1.0  0.01901  0.52195  0.62702  1.0000
  H   H122      1.0  0.31050  0.55708  0.90419  1.0000
  C   C103      1.0  0.04810  0.56069  0.56917  1.0000
  H   H123      1.0  0.22737  0.59866  0.87034  1.0000
  H   H124      1.0  0.25774  0.54418  0.87059  1.0000
  H   H125      1.0  0.23011  0.57842  0.98193  1.0000
  C   C104      1.0  0.23063  0.59815  0.63808  1.0000
  H   H126      1.0  0.25776  0.54142  0.64623  1.0000
  H   H127      1.0  0.20878  0.60107  0.63460  1.0000
  H   H128      1.0  0.04251  0.49190  0.67509  1.0000
  H   H129      1.0  0.98627  0.47043  0.60629  1.0000
  H   H130      1.0  0.38980  0.45808  0.97953  1.0000
  C   C105      1.0  0.40422  0.48594  0.97951  1.0000
  H   H131      1.0  0.34100  0.59790  0.83017  1.0000
  H   H132      1.0  0.44438  0.59630  0.58769  1.0000
  C   C106      1.0  0.29114  0.62526  0.64632  1.0000
  H   H133      1.0  0.32329  0.57950  0.97561  1.0000
  C   C107      1.0  0.26208  0.62731  0.64152  1.0000
  C   C108      1.0  0.95047  0.45765  0.82464  1.0000
  H   H134      1.0  0.95745  0.43980  0.83554  1.0000
  H   H135      1.0  0.42382  0.49503  0.95481  1.0000
  H   H136      1.0  0.41823  0.54477  0.00727  1.0000
  C   C109      1.0  0.43591  0.53651  0.01837  1.0000
  Fe  Fe17      1.0  0.33652  0.77654  0.43690  1.0000
  S   S30       1.0  0.35252  0.74435  0.40400  1.0000
  S   S31       1.0  0.28253  0.75380  0.45731  1.0000
  Fe  Fe18      1.0  0.40797  0.83508  0.44707  1.0000
  H   H137      1.0  0.37112  0.87129  0.46115  1.0000
  Fe  Fe19      1.0  0.38764  0.79088  0.36895  1.0000
  S   S32       1.0  0.39706  0.78412  0.30117  1.0000
  Fe  Fe20      1.0  0.39250  0.76101  0.45301  1.0000
  S   S33       1.0  0.36822  0.82242  0.39782  1.0000
  H   H138      1.0  0.27404  0.72670  0.25618  1.0000
  C   C110      1.0  0.31154  0.67450  0.13151  1.0000
  Fe  Fe21      1.0  0.33901  0.80194  0.07840  1.0000
  S   S34       1.0  0.39329  0.82197  0.06029  1.0000
  S   S35       1.0  0.31984  0.79750  0.14469  1.0000
  C   C111      1.0  0.29665  0.68924  0.15466  1.0000
  C   C112      1.0  0.26397  0.63726  0.19250  1.0000
  C   C113      1.0  0.27204  0.67096  0.18559  1.0000
  H   H139      1.0  0.32988  0.83439  0.46344  1.0000
  H   H140      1.0  0.39678  0.71701  0.30643  1.0000
  H   H141      1.0  0.29125  0.67901  0.35661  1.0000
  H   H142      1.0  0.21788  0.69513  0.47322  1.0000
  H   H143      1.0  0.33667  0.65401  0.45041  1.0000
  C   C114      1.0  0.34326  0.79653  0.18783  1.0000
  C   C115      1.0  0.33316  0.79925  0.22823  1.0000
  C   C116      1.0  0.34981  0.79624  0.26335  1.0000
  C   C117      1.0  0.37678  0.79055  0.25827  1.0000
  C   C118      1.0  0.38704  0.78817  0.21788  1.0000
  C   C119      1.0  0.37036  0.79107  0.18282  1.0000
  H   H144      1.0  0.31215  0.80340  0.23235  1.0000
  H   H145      1.0  0.34162  0.79805  0.29427  1.0000
  C   C120      1.0  0.38774  0.71334  0.03896  1.0000
  H   H146      1.0  0.37831  0.78881  0.15193  1.0000
  C   C121      1.0  0.39330  0.67174  0.09883  1.0000
  C   C122      1.0  0.38383  0.66033  0.05810  1.0000
  H   H147      1.0  0.23115  0.71501  0.19998  1.0000
  H   H148      1.0  0.32573  0.69345  0.47246  1.0000
  C   C123      1.0  0.39625  0.72438  0.07998  1.0000
  C   C124      1.0  0.39943  0.70377  0.10970  1.0000
  H   H149      1.0  0.39890  0.66745  0.22131  1.0000
  H   H150      1.0  0.29197  0.70008  0.26101  1.0000
  H   H151      1.0  0.40707  0.71286  0.14102  1.0000
  C   C125      1.0  0.20882  0.66839  0.37282  1.0000
  C   C126      1.0  0.23899  0.69465  0.35682  1.0000
  C   C127      1.0  0.26192  0.72052  0.38277  1.0000
  C   C128      1.0  0.25426  0.72097  0.42471  1.0000
  C   C129      1.0  0.22400  0.69483  0.44082  1.0000
  C   C130      1.0  0.20155  0.66825  0.41508  1.0000
  H   H152      1.0  0.24465  0.69504  0.32420  1.0000
  H   H153      1.0  0.28508  0.74069  0.37002  1.0000
  C   C131      1.0  0.27136  0.63215  0.32436  1.0000
  S   S36       1.0  0.32994  0.83231  0.03029  1.0000
  H   H154      1.0  0.36525  0.72300  0.24956  1.0000
  S   S37       1.0  0.39933  0.71756  0.47504  1.0000
  H   H155      1.0  0.34513  0.70550  0.32029  1.0000
  S   S38       1.0  0.18039  0.63715  0.33859  1.0000
  N   N8        1.0  0.25717  0.68740  0.21034  1.0000
  H   H156      1.0  0.20785  0.64360  0.21714  1.0000
  C   C132      1.0  0.24526  0.70508  0.18260  1.0000
  C   C133      1.0  0.32720  0.67961  0.31306  1.0000
  H   H157      1.0  0.30494  0.71530  0.14834  1.0000
  H   H158      1.0  0.28883  0.68578  0.44392  1.0000
  C   C134      1.0  0.34441  0.86176  0.47026  1.0000
  S   S39       1.0  0.37433  0.79082  0.48818  1.0000
  H   H159      1.0  0.23132  0.64006  0.47127  1.0000
  C   C135      1.0  0.36853  0.70386  0.23265  1.0000
  H   H160      1.0  0.26629  0.72743  0.16724  1.0000
  H   H161      1.0  0.33433  0.87378  0.44936  1.0000
  C   C136      1.0  0.30318  0.64152  0.13910  1.0000
  C   C137      1.0  0.38152  0.68126  0.02815  1.0000
  C   C138      1.0  0.29808  0.68297  0.47479  1.0000
  H   H162      1.0  0.41733  0.92248  0.42704  1.0000
  C   C139      1.0  0.37219  0.96186  0.50822  1.0000
  H   H163      1.0  0.40146  0.74921  0.08847  1.0000
  S   S40       1.0  0.42952  0.80599  0.41563  1.0000
  H   H164      1.0  0.30596  0.73084  0.22083  1.0000
  C   C140      1.0  0.43575  0.93994  0.44872  1.0000
  H   H165      1.0  0.34835  0.69242  0.20883  1.0000
  H   H166      1.0  0.40800  0.78396  0.21362  1.0000
  S   S41       1.0  0.44134  0.88598  0.47969  1.0000
  S   S42       1.0  0.39846  0.64692  0.13652  1.0000
  H   H167      1.0  0.22836  0.68811  0.15786  1.0000
  S   S43       1.0  0.31749  0.75588  0.03802  1.0000
  H   H168      1.0  0.40075  0.93799  0.03670  1.0000
  N   N9        1.0  0.27997  0.64745  0.48846  1.0000
  C   C141      1.0  0.28336  0.71230  0.23834  1.0000
  C   C142      1.0  0.22807  0.66368  0.23634  1.0000
  C   C143      1.0  0.35347  0.92721  0.50208  1.0000
  H   H169      1.0  0.21640  0.67644  0.25316  1.0000
  C   C144      1.0  0.29617  0.66486  0.33360  1.0000
  H   H170      1.0  0.32989  0.68885  0.10768  1.0000
  H   H171      1.0  0.23555  0.65188  0.26113  1.0000
  H   H172      1.0  0.17812  0.64829  0.42753  1.0000
  H   H173      1.0  0.39306  0.71753  0.21594  1.0000
  H   H174      1.0  0.37939  0.63583  0.04935  1.0000
  H   H175      1.0  0.35549  0.64380  0.20953  1.0000
  H   H176      1.0  0.39391  0.67718  0.31594  1.0000
  C   C145      1.0  0.24498  0.63869  0.49915  1.0000
  H   H177      1.0  0.39822  0.65830  0.50429  1.0000
  C   C146      1.0  0.33468  0.66165  0.28318  1.0000
  N   N10       1.0  0.36746  0.67815  0.26112  1.0000
  H   H178      1.0  0.42068  0.70487  0.27574  1.0000
  C   C147      1.0  0.39573  0.69486  0.29120  1.0000
  H   H179      1.0  0.33255  0.91785  0.48070  1.0000
  H   H180      1.0  0.29471  0.69967  0.49683  1.0000
  H   H181      1.0  0.29439  0.86650  0.50498  1.0000
  N   N11       1.0  0.34212  0.86862  0.51474  1.0000
  C   C148      1.0  0.37346  0.65464  0.23599  1.0000
  H   H182      1.0  0.37186  0.63388  0.25525  1.0000
  C   C149      1.0  0.31339  0.63301  0.43919  1.0000
  C   C150      1.0  0.38769  0.71471  0.56021  1.0000
  H   H183      1.0  0.28756  0.88059  0.88504  1.0000
  H   H184      1.0  0.38117  0.71283  0.62677  1.0000
  N   N12       1.0  0.32467  0.69684  0.89470  1.0000
  C   C151      1.0  0.30622  0.85584  0.52530  1.0000
  H   H185      1.0  0.37990  0.85584  0.53106  1.0000
  H   H186      1.0  0.24447  0.65624  0.52249  1.0000
  H   H187      1.0  0.37695  0.72704  0.91362  1.0000
  H   H188      1.0  0.38690  0.73759  0.55655  1.0000
  H   H189      1.0  0.21581  0.65014  0.95140  1.0000
  H   H190      1.0  0.30355  0.86191  0.55805  1.0000
  C   C152      1.0  0.39052  0.65574  0.57073  1.0000
  Fe  Fe22      1.0  0.31372  0.78772  0.98804  1.0000
  C   C153      1.0  0.38442  0.70057  0.59999  1.0000
  C   C154      1.0  0.20341  0.66428  0.89302  1.0000
  C   C155      1.0  0.20918  0.69132  0.86777  1.0000
  C   C156      1.0  0.23111  0.72448  0.88120  1.0000
  C   C157      1.0  0.24783  0.73097  0.91969  1.0000
  C   C158      1.0  0.24240  0.70389  0.94465  1.0000
  C   C159      1.0  0.22022  0.67081  0.93145  1.0000
  H   H191      1.0  0.19637  0.68673  0.83822  1.0000
  H   H192      1.0  0.23506  0.74520  0.86165  1.0000
  H   H193      1.0  0.25482  0.70845  0.97446  1.0000
  N   N13       1.0  0.33374  0.88276  0.90284  1.0000
  C   C160      1.0  0.32445  0.87623  0.94743  1.0000
  C   C161      1.0  0.30196  0.86759  0.87861  1.0000
  C   C162      1.0  0.35236  0.86522  0.89216  1.0000
  H   H194      1.0  0.35727  0.86563  0.85836  1.0000
  C   C163      1.0  0.35787  0.72826  0.89366  1.0000
  S   S44       1.0  0.38643  0.73957  0.00003  1.0000
  C   C164      1.0  0.36408  0.94461  0.92291  1.0000
  C   C165      1.0  0.39075  0.92011  0.54888  1.0000
  H   H195      1.0  0.30765  0.70925  0.83852  1.0000
  H   H196      1.0  0.36820  0.73418  0.86154  1.0000
  H   H197      1.0  0.37716  0.87692  0.90828  1.0000
  H   H198      1.0  0.35969  0.91112  0.82685  1.0000
  H   H199      1.0  0.28533  0.84055  0.88651  1.0000
  H   H200      1.0  0.30644  0.86871  0.84459  1.0000
  H   H201      1.0  0.31553  0.64785  0.64942  1.0000
  H   H202      1.0  0.33814  0.83833  0.90157  1.0000
  H   H203      1.0  0.27430  0.68195  0.87385  1.0000
  C   C166      1.0  0.42948  0.94338  0.98153  1.0000
  H   H204      1.0  0.36810  0.67548  0.91933  1.0000
  C   C167      1.0  0.35363  0.84901  0.53938  1.0000
  H   H205      1.0  0.30859  0.84889  0.95386  1.0000
  H   H206      1.0  0.31135  0.71009  0.95310  1.0000
  C   C168      1.0  0.35455  0.91886  0.89273  1.0000
  S   S45       1.0  0.36612  0.80666  0.96504  1.0000
  C   C169      1.0  0.35212  0.66150  0.89351  1.0000
  S   S46       1.0  0.27584  0.77311  0.93493  1.0000
  H   H207      1.0  0.30943  0.88778  0.95761  1.0000
  S   S47       1.0  0.41941  0.90062  0.97815  1.0000
  C   C170      1.0  0.30052  0.70346  0.87180  1.0000
  C   C171      1.0  0.32783  0.66887  0.87723  1.0000
  H   H208      1.0  0.37529  0.67267  0.99643  1.0000
  C   C172      1.0  0.30735  0.64832  0.84405  1.0000
  H   H209      1.0  0.35621  0.75001  0.90563  1.0000
  C   C173      1.0  0.38626  0.67130  0.60561  1.0000
  H   H210      1.0  0.28789  0.66613  0.94057  1.0000
  H   H211      1.0  0.33067  0.68516  0.95811  1.0000
  S   S48       1.0  0.38423  0.65619  0.65695  1.0000
  H   H212      1.0  0.35243  0.85280  0.57333  1.0000
  C   C174      1.0  0.31309  0.68915  0.93842  1.0000
  C   C175      1.0  0.29621  0.64443  0.52676  1.0000
  H   H213      1.0  0.29981  0.72543  0.88489  1.0000
  H   H214      1.0  0.33775  0.82161  0.53340  1.0000
  C   C176      1.0  0.40908  0.95478  0.55505  1.0000
  H   H215      1.0  0.26386  0.65163  0.64100  1.0000
  C   C177      1.0  0.41722  0.95516  0.01317  1.0000
  C   C178      1.0  0.39408  0.67005  0.53094  1.0000
  H   H216      1.0  0.28784  0.65161  0.83007  1.0000
  H   H217      1.0  0.32315  0.65236  0.52161  1.0000
  H   H218      1.0  0.40021  0.90576  0.56434  1.0000
  H   H219      1.0  0.34728  0.88581  0.96745  1.0000
  H   H220      1.0  0.29573  0.66050  0.55223  1.0000
  C   C179      1.0  0.35675  0.63632  0.87644  1.0000
  Fe  Fe23      1.0  0.37099  0.77737  0.01737  1.0000
  H   H221      1.0  0.35741  0.93943  0.95533  1.0000
  C   C180      1.0  0.39314  0.69984  0.52553  1.0000
  H   H222      1.0  0.37617  0.63186  0.88859  1.0000
  Fe  Fe24      1.0  0.38308  0.84992  0.00950  1.0000
  C   C181      1.0  0.36586  0.92923  0.85140  1.0000
  C   C182      1.0  0.38555  0.96315  0.84101  1.0000
  H   H223      1.0  0.29080  0.82811  0.52142  1.0000
  C   C183      1.0  0.36211  0.90520  0.52232  1.0000
  H   H224      1.0  0.39209  0.63330  0.57455  1.0000
  C   C184      1.0  0.51988  0.24334  0.02842  1.0000
  S   S49       1.0  0.62958  0.16576  0.44698  1.0000
  S   S50       1.0  0.53458  0.13533  0.46477  1.0000
  H   H225      1.0  0.59236  0.08144  0.34047  1.0000
  S   S51       1.0  0.51525  0.20301  0.50376  1.0000
  C   C185      1.0  0.71278  0.24492  0.48894  1.0000
  H   H226      1.0  0.52016  0.28086  0.40901  1.0000
  C   C186      1.0  0.45157  0.29123  0.42344  1.0000
  C   C187      1.0  0.74048  0.24338  0.47429  1.0000
  C   C188      1.0  0.50834  0.26597  0.10535  1.0000
  C   C189      1.0  0.50030  0.23249  0.10004  1.0000
  C   C190      1.0  0.50620  0.22124  0.06191  1.0000
  H   H227      1.0  0.47639  0.26222  0.50597  1.0000
  C   C191      1.0  0.52282  0.28830  0.07217  1.0000
  C   C192      1.0  0.68186  0.26704  0.37732  1.0000
  C   C193      1.0  0.65473  0.25893  0.40437  1.0000
  C   C194      1.0  0.63821  0.22789  0.42528  1.0000
  C   C195      1.0  0.64875  0.20455  0.41960  1.0000
  C   C196      1.0  0.67571  0.21247  0.39225  1.0000
  C   C197      1.0  0.69216  0.24352  0.37112  1.0000
  H   H228      1.0  0.69485  0.28998  0.04834  1.0000
  H   H229      1.0  0.61755  0.22222  0.44617  1.0000
  H   H230      1.0  0.68414  0.19466  0.38770  1.0000
  C   C198      1.0  0.76636  0.27064  0.45312  1.0000
  H   H231      1.0  0.55487  0.27467  0.51434  1.0000
  S   S52       1.0  0.47629  0.03967  0.47567  1.0000
  C   C199      1.0  0.53030  0.99923  0.40811  1.0000
  H   H232      1.0  0.61327  0.10467  0.38589  1.0000
  S   S53       1.0  0.49860  0.27806  0.15348  1.0000
  H   H233      1.0  0.49948  0.19533  0.05821  1.0000
  H   H234      1.0  0.50961  0.23769  0.41098  1.0000
  Fe  Fe25      1.0  0.51386  0.09002  0.50675  1.0000
  H   H235      1.0  0.53628  0.00104  0.44078  1.0000
  C   C200      1.0  0.71089  0.27375  0.48262  1.0000
  C   C201      1.0  0.65572  0.25106  0.13710  1.0000
  H   H236      1.0  0.50306  0.98539  0.29241  1.0000
  H   H237      1.0  0.64658  0.27691  0.40951  1.0000
  C   C202      1.0  0.67370  0.27580  0.06879  1.0000
  H   H238      1.0  0.48905  0.21500  0.12551  1.0000
  H   H239      1.0  0.47401  0.26539  0.36046  1.0000
  C   C203      1.0  0.63986  0.26412  0.05645  1.0000
  H   H240      1.0  0.59136  0.27898  0.03846  1.0000
  C   C204      1.0  0.45852  0.24177  0.37832  1.0000
  C   C205      1.0  0.51088  0.98937  0.32470  1.0000
  C   C206      1.0  0.61437  0.24573  0.08643  1.0000
  H   H241      1.0  0.60904  0.06420  0.37721  1.0000
  N   N14       1.0  0.56357  0.06255  0.39726  1.0000
  C   C207      1.0  0.59589  0.07882  0.37411  1.0000
  C   C208      1.0  0.54656  0.08230  0.39071  1.0000
  C   C209      1.0  0.57175  0.06443  0.44216  1.0000
  C   C210      1.0  0.54179  0.02785  0.38207  1.0000
  C   C211      1.0  0.46817  0.99742  0.47624  1.0000
  C   C212      1.0  0.68128  0.26924  0.10855  1.0000
  H   H242      1.0  0.78689  0.26790  0.44146  1.0000
  C   C213      1.0  0.62229  0.23917  0.12601  1.0000
  H   H243      1.0  0.71295  0.24932  0.35046  1.0000
  H   H244      1.0  0.53917  0.04234  0.31820  1.0000
  H   H245      1.0  0.61763  0.29614  0.14328  1.0000
  H   H246      1.0  0.58807  0.23646  0.07959  1.0000
  H   H247      1.0  0.54179  0.08463  0.35743  1.0000
  H   H248      1.0  0.56209  0.10836  0.40269  1.0000
  H   H249      1.0  0.52182  0.07058  0.40704  1.0000
  H   H250      1.0  0.58559  0.05102  0.44944  1.0000
  H   H251      1.0  0.58830  0.09083  0.45244  1.0000
  H   H252      1.0  0.54853  0.05386  0.46160  1.0000
  Fe  Fe26      1.0  0.58525  0.15043  0.49132  1.0000
  H   H253      1.0  0.66197  0.24626  0.16790  1.0000
  C   C214      1.0  0.53150  0.02187  0.33982  1.0000
  H   H254      1.0  0.46264  0.22244  0.36320  1.0000
  N   N15       1.0  0.46812  0.24605  0.42295  1.0000
  H   H255      1.0  0.60240  0.22504  0.14834  1.0000
  H   H256      1.0  0.51342  0.25969  0.45774  1.0000
  C   C215      1.0  0.46820  0.27649  0.48785  1.0000
  H   H257      1.0  0.70725  0.27822  0.11735  1.0000
  C   C216      1.0  0.52837  0.27696  0.03389  1.0000
  C   C217      1.0  0.46224  0.27103  0.44450  1.0000
  H   H258      1.0  0.74143  0.22058  0.47852  1.0000
  C   C218      1.0  0.50436  0.25659  0.42521  1.0000
  C   C219      1.0  0.48409  0.98642  0.50393  1.0000
  H   H259      1.0  0.69216  0.22332  0.50404  1.0000
  H   H260      1.0  0.59030  0.04984  0.04211  1.0000
  H   H261      1.0  0.53931  0.05771  0.04175  1.0000
  H   H262      1.0  0.45744  0.21271  0.47550  1.0000
  C   C220      1.0  0.61472  0.29170  0.01953  1.0000
  H   H263      1.0  0.45072  0.19303  0.42659  1.0000
  H   H264      1.0  0.68871  0.27437  0.49284  1.0000
  H   H265      1.0  0.79737  0.29560  0.37777  1.0000
  H   H266      1.0  0.59481  0.10234  0.02629  1.0000
  Fe  Fe27      1.0  0.52929  0.16343  0.51855  1.0000
  C   C221      1.0  0.50989  0.96684  0.39257  1.0000
  H   H267      1.0  0.61302  0.23748  0.70818  1.0000
  Fe  Fe28      1.0  0.55591  0.13321  0.58002  1.0000
  S   S54       1.0  0.50321  0.11696  0.55837  1.0000
  S   S55       1.0  0.57138  0.13215  0.64700  1.0000
  C   C222      1.0  0.61816  0.19862  0.79526  1.0000
  H   H268      1.0  0.72904  0.22883  0.85982  1.0000
  C   C223      1.0  0.53091  0.28686  0.56355  1.0000
  H   H269      1.0  0.59245  0.19015  0.80736  1.0000
  H   H270      1.0  0.68215  0.24194  0.77590  1.0000
  S   S56       1.0  0.58135  0.18105  0.54284  1.0000
  Fe  Fe29      1.0  0.51076  0.14364  0.87196  1.0000
  S   S57       1.0  0.52722  0.10895  0.89793  1.0000
  S   S58       1.0  0.49564  0.14513  0.80516  1.0000
  Fe  Fe30      1.0  0.52050  0.18070  0.95565  1.0000
  H   H271      1.0  0.51221  0.19890  0.66798  1.0000
  Fe  Fe31      1.0  0.56753  0.15554  0.92941  1.0000
  S   S59       1.0  0.62151  0.16769  0.93204  1.0000
  Fe  Fe32      1.0  0.49515  0.10414  0.95338  1.0000
  S   S60       1.0  0.47594  0.13650  0.92542  1.0000
  S   S61       1.0  0.55342  0.19015  0.89945  1.0000
  C   C224      1.0  0.54799  0.13276  0.69038  1.0000
  C   C225      1.0  0.52147  0.13918  0.68604  1.0000
  C   C226      1.0  0.50534  0.14235  0.72152  1.0000
  C   C227      1.0  0.51534  0.13887  0.76159  1.0000
  C   C228      1.0  0.54113  0.13137  0.76593  1.0000
  C   C229      1.0  0.55745  0.12844  0.73045  1.0000
  H   H272      1.0  0.51357  0.14199  0.65538  1.0000
  H   H273      1.0  0.48504  0.14764  0.71793  1.0000
  H   H274      1.0  0.54860  0.12800  0.79661  1.0000
  H   H275      1.0  0.57767  0.12305  0.73400  1.0000
  H   H276      1.0  0.59162  0.09649  0.91415  1.0000
  S   S62       1.0  0.52641  0.23040  0.97895  1.0000
  H   H277      1.0  0.45293  0.22254  0.97990  1.0000
  H   H278      1.0  0.58265  0.22471  0.01206  1.0000
  C   C230      1.0  0.50531  0.27427  0.59346  1.0000
  H   H279      1.0  0.60525  0.24747  0.60096  1.0000
  H   H280      1.0  0.57848  0.07652  0.84348  1.0000
  N   N16       1.0  0.62993  0.22698  0.76569  1.0000
  C   C231      1.0  0.49055  0.21739  0.57384  1.0000
  C   C232      1.0  0.48567  0.23949  0.59904  1.0000
  H   H281      1.0  0.62991  0.23366  0.91131  1.0000
  C   C233      1.0  0.58830  0.24876  0.62336  1.0000
  C   C234      1.0  0.57521  0.06987  0.90994  1.0000
  C   C235      1.0  0.70663  0.25977  0.86669  1.0000
  C   C236      1.0  0.70773  0.23025  0.87167  1.0000
  C   C237      1.0  0.68177  0.20267  0.89238  1.0000
  C   C238      1.0  0.65355  0.20361  0.90680  1.0000
  C   C239      1.0  0.65183  0.23286  0.90110  1.0000
  C   C240      1.0  0.67870  0.26119  0.88182  1.0000
  C   C241      1.0  0.46034  0.00059  0.95293  1.0000
  H   H282      1.0  0.68339  0.18027  0.89660  1.0000
  H   H283      1.0  0.52242  0.06041  0.99269  1.0000
  H   H284      1.0  0.47660  0.01773  0.92926  1.0000
  S   S63       1.0  0.53749  0.14827  0.98746  1.0000
  H   H285      1.0  0.60725  0.19615  0.71135  1.0000
  H   H286      1.0  0.63530  0.20563  0.82244  1.0000
  H   H287      1.0  0.55197  0.19619  0.61876  1.0000
  H   H288      1.0  0.57700  0.27616  0.83670  1.0000
  S   S64       1.0  0.45951  0.05550  0.98892  1.0000
  C   C242      1.0  0.53595  0.22136  0.66118  1.0000
  H   H289      1.0  0.61534  0.10383  0.97851  1.0000
  C   C243      1.0  0.63041  0.25586  0.78642  1.0000
  H   H290      1.0  0.65219  0.29299  0.95518  1.0000
  C   C244      1.0  0.56788  0.05869  0.86883  1.0000
  H   H291      1.0  0.59897  0.24318  0.96327  1.0000
  H   H292      1.0  0.67737  0.28370  0.87751  1.0000
  C   C245      1.0  0.54344  0.25183  0.67933  1.0000
  C   C246      1.0  0.59020  0.09484  0.99301  1.0000
  C   C247      1.0  0.51531  0.22989  0.54294  1.0000
  C   C248      1.0  0.55826  0.21982  0.63325  1.0000
  H   H293      1.0  0.46580  0.22952  0.62206  1.0000
  C   C249      1.0  0.59619  0.27937  0.64154  1.0000
  N   N17       1.0  0.56776  0.05813  0.98789  1.0000
  H   H294      1.0  0.57983  0.20583  0.73938  1.0000
  C   C250      1.0  0.60036  0.25260  0.80349  1.0000
  H   H295      1.0  0.52451  0.25120  0.69981  1.0000
  H   H296      1.0  0.61725  0.17638  0.78054  1.0000
  H   H297      1.0  0.57678  0.22905  0.80201  1.0000
  H   H298      1.0  0.67345  0.25460  0.72628  1.0000
  H   H299      1.0  0.47406  0.19063  0.57706  1.0000
  C   C251      1.0  0.66346  0.23439  0.75009  1.0000
  C   C252      1.0  0.45097  0.96637  0.95139  1.0000
  C   C253      1.0  0.53289  0.00194  0.89273  1.0000
  H   H300      1.0  0.66230  0.21207  0.73515  1.0000
  C   C254      1.0  0.60654  0.21625  0.72972  1.0000
  S   S65       1.0  0.56514  0.10382  0.53089  1.0000
  H   H301      1.0  0.57880  0.10890  0.97904  1.0000
  C   C255      1.0  0.60015  0.27950  0.82321  1.0000
  C   C256      1.0  0.60656  0.23890  0.99448  1.0000
  C   C257      1.0  0.53994  0.01286  0.93395  1.0000
  H   H302      1.0  0.54097  0.01635  0.82830  1.0000
  C   C258      1.0  0.56117  0.04723  0.94390  1.0000
  C   C259      1.0  0.57392  0.28188  0.66999  1.0000
  C   C260      1.0  0.54673  0.02483  0.86023  1.0000
  C   C261      1.0  0.53588  0.26473  0.53844  1.0000
  C   C262      1.0  0.58381  0.04128  0.00933  1.0000
  H   H303      1.0  0.46613  0.27784  0.95294  1.0000
  H   H304      1.0  0.52811  0.99415  0.95803  1.0000
  H   H305      1.0  0.60743  0.04654  0.99319  1.0000
  N   N18       1.0  0.63079  0.27092  0.01488  1.0000
  H   H306      1.0  0.61749  0.22228  0.99065  1.0000
  C   C263      1.0  0.66004  0.28890  0.98638  1.0000
  C   C264      1.0  0.45524  0.27019  0.98368  1.0000
  H   H307      1.0  0.67306  0.27433  0.98106  1.0000
  C   C265      1.0  0.66006  0.28783  0.78982  1.0000
  H   H308      1.0  0.51629  0.97559  0.88602  1.0000
  S   S66       1.0  0.73895  0.29259  0.83754  1.0000
  H   H309      1.0  0.53887  0.29426  0.00813  1.0000
  H   H310      1.0  0.50253  0.00395  0.52560  1.0000
  H   H311      1.0  0.68435  0.29275  0.77875  1.0000
  H   H312      1.0  0.55153  0.29626  0.74358  1.0000
  C   C266      1.0  0.53553  0.04893  0.00895  1.0000
  H   H313      1.0  0.51783  0.02144  0.00978  1.0000
  H   H314      1.0  0.56705  0.01364  0.01054  1.0000
  C   C267      1.0  0.44961  0.29187  0.00833  1.0000
  H   H315      1.0  0.60711  0.29711  0.98893  1.0000
  Fe  Fe33      1.0  0.81959  0.38711  0.29206  1.0000
  S   S67       1.0  0.78548  0.33239  0.27567  1.0000
  S   S68       1.0  0.86674  0.40334  0.33319  1.0000
  Fe  Fe34      1.0  0.76521  0.40372  0.26206  1.0000
  S   S69       1.0  0.72855  0.35097  0.24437  1.0000
  S   S70       1.0  0.75306  0.44532  0.25604  1.0000
  Fe  Fe35      1.0  0.74291  0.33645  0.30454  1.0000
  Fe  Fe36      1.0  0.77410  0.35190  0.21697  1.0000
  S   S71       1.0  0.76816  0.32777  0.15359  1.0000
  S   S72       1.0  0.77723  0.38992  0.32372  1.0000
  S   S73       1.0  0.81056  0.40607  0.23137  1.0000
  S   S74       1.0  0.55530  0.43754  0.49071  1.0000
  Fe  Fe37      1.0  0.51219  0.32929  0.18027  1.0000
  S   S75       1.0  0.52900  0.37864  0.14863  1.0000
  Fe  Fe38      1.0  0.51488  0.35918  0.26696  1.0000
  S   S76       1.0  0.53147  0.41068  0.24151  1.0000
  S   S77       1.0  0.50909  0.34088  0.33381  1.0000
  Fe  Fe39      1.0  0.49275  0.38459  0.19070  1.0000
  H   H316      1.0  0.47599  0.31911  0.10987  1.0000
  Fe  Fe40      1.0  0.56584  0.40063  0.20157  1.0000
  S   S78       1.0  0.62002  0.44042  0.19090  1.0000
  S   S79       1.0  0.55177  0.35126  0.22998  1.0000
  C   C268      1.0  0.52258  0.36856  0.37671  1.0000
  C   C269      1.0  0.52684  0.35711  0.41539  1.0000
  C   C270      1.0  0.53633  0.37780  0.45067  1.0000
  C   C271      1.0  0.54247  0.41055  0.44732  1.0000
  C   C272      1.0  0.53926  0.42245  0.40836  1.0000
  C   C273      1.0  0.52918  0.40149  0.37316  1.0000
  H   H317      1.0  0.52259  0.33205  0.41830  1.0000
  H   H318      1.0  0.53907  0.36849  0.48041  1.0000
  H   H319      1.0  0.54413  0.44786  0.40556  1.0000
  H   H320      1.0  0.52608  0.41069  0.34354  1.0000
  C   C274      1.0  0.64043  0.33556  0.34053  1.0000
  C   C275      1.0  0.65532  0.43944  0.21107  1.0000
  C   C276      1.0  0.65446  0.40981  0.22337  1.0000
  C   C277      1.0  0.68425  0.41079  0.23694  1.0000
  C   C278      1.0  0.71462  0.44149  0.23928  1.0000
  C   C279      1.0  0.71495  0.47088  0.22793  1.0000
  C   C280      1.0  0.68570  0.46981  0.21341  1.0000
  H   H321      1.0  0.63114  0.38614  0.22163  1.0000
  H   H322      1.0  0.68367  0.38790  0.24573  1.0000
  H   H323      1.0  0.73821  0.49469  0.22967  1.0000
  H   H324      1.0  0.68668  0.49279  0.20400  1.0000
  C   C281      1.0  0.78172  0.38870  0.03492  1.0000
  H   H325      1.0  0.45255  0.34027  0.50307  1.0000
  C   C282      1.0  0.76576  0.33575  0.06901  1.0000
  C   C283      1.0  0.77553  0.35181  0.10784  1.0000
  C   C284      1.0  0.78983  0.38654  0.10968  1.0000
  C   C285      1.0  0.79291  0.40486  0.07343  1.0000
  C   C286      1.0  0.71456  0.39705  0.07173  1.0000
  H   H326      1.0  0.71339  0.37243  0.06987  1.0000
  H   H327      1.0  0.79825  0.39932  0.13914  1.0000
  H   H328      1.0  0.80353  0.43171  0.07538  1.0000
  H   H329      1.0  0.46903  0.35213  0.05162  1.0000
  C   C287      1.0  0.91135  0.42956  0.32514  1.0000
  C   C288      1.0  0.92541  0.44286  0.28622  1.0000
  H   H330      1.0  0.63770  0.42995  0.40858  1.0000
  H   H331      1.0  0.90904  0.43769  0.25971  1.0000
  S   S80       1.0  0.47373  0.33336  0.21950  1.0000
  H   H332      1.0  0.52909  0.31408  0.07569  1.0000
  H   H333      1.0  0.61479  0.44858  0.38682  1.0000
  C   C289      1.0  0.64553  0.38931  0.12440  1.0000
  C   C290      1.0  0.46000  0.50081  0.07405  1.0000
  C   C291      1.0  0.79222  0.31663  0.37880  1.0000
  H   H334      1.0  0.57851  0.39854  0.31941  1.0000
  H   H335      1.0  0.67099  0.45420  0.30133  1.0000
  H   H336      1.0  0.61031  0.41503  0.28016  1.0000
  H   H337      1.0  0.68895  0.41937  0.33153  1.0000
  C   C292      1.0  0.60574  0.36106  0.34693  1.0000
  H   H338      1.0  0.72807  0.37588  0.14172  1.0000
  N   N19       1.0  0.62988  0.42344  0.34247  1.0000
  C   C293      1.0  0.93344  0.43678  0.35908  1.0000
  S   S81       1.0  0.45414  0.39566  0.15852  1.0000
  H   H339      1.0  0.75536  0.41988  0.14107  1.0000
  C   C294      1.0  0.66587  0.39584  0.33604  1.0000
  H   H340      1.0  0.82613  0.34683  0.47366  1.0000
  C   C295      1.0  0.71479  0.43933  0.11523  1.0000
  C   C296      1.0  0.72847  0.40004  0.14459  1.0000
  H   H341      1.0  0.74226  0.45695  0.11082  1.0000
  H   H342      1.0  0.64292  0.31342  0.33999  1.0000
  N   N20       1.0  0.70639  0.40378  0.11387  1.0000
  C   C297      1.0  0.76857  0.35407  0.03266  1.0000
  H   H343      1.0  0.59468  0.40441  0.39361  1.0000
  H   H344      1.0  0.69707  0.39732  0.04803  1.0000
  C   C298      1.0  0.60184  0.33249  0.13965  1.0000
  C   C299      1.0  0.61884  0.42679  0.38461  1.0000
  C   C300      1.0  0.66126  0.45525  0.33262  1.0000
  H   H345      1.0  0.70190  0.44523  0.09015  1.0000
  H   H346      1.0  0.72107  0.40176  0.17692  1.0000
  H   H347      1.0  0.60138  0.44232  0.31026  1.0000
  C   C301      1.0  0.67049  0.37970  0.12280  1.0000
  H   H348      1.0  0.47817  0.45688  0.20987  1.0000
  H   H349      1.0  0.63200  0.31597  0.03495  1.0000
  H   H350      1.0  0.70798  0.44550  0.14580  1.0000
  H   H351      1.0  0.92310  0.42675  0.38936  1.0000
  H   H352      1.0  0.78799  0.36839  0.44994  1.0000
  H   H353      1.0  0.74047  0.41637  0.06212  1.0000
  H   H354      1.0  0.83258  0.31953  0.43987  1.0000
  H   H355      1.0  0.58081  0.35738  0.35191  1.0000
  C   C302      1.0  0.46443  0.30097  0.50865  1.0000
  H   H356      1.0  0.65142  0.41493  0.12048  1.0000
  C   C303      1.0  0.65924  0.34515  0.12855  1.0000
  H   H357      1.0  0.84610  0.36118  0.42373  1.0000
  N   N21       1.0  0.79217  0.32825  0.42167  1.0000
  C   C304      1.0  0.63404  0.39364  0.34139  1.0000
  C   C305      1.0  0.45450  0.32067  0.48703  1.0000
  H   H358      1.0  0.76453  0.35230  0.40212  1.0000
  H   H359      1.0  0.80911  0.37880  0.40074  1.0000
  H   H360      1.0  0.69325  0.36927  0.33104  1.0000
  H   H361      1.0  0.59354  0.37419  0.13519  1.0000
  C   C306      1.0  0.66880  0.36711  0.33556  1.0000
  H   H362      1.0  0.68135  0.46115  0.35598  1.0000
  C   C307      1.0  0.60897  0.33254  0.34627  1.0000
  H   H363      1.0  0.65705  0.47699  0.33229  1.0000
  H   H364      1.0  0.67655  0.33576  0.12669  1.0000
  C   C308      1.0  0.82559  0.33930  0.44071  1.0000
  C   C309      1.0  0.60396  0.41962  0.31187  1.0000
  C   C310      1.0  0.61182  0.36596  0.13283  1.0000
  H   H365      1.0  0.81194  0.33706  0.35935  1.0000
  C   C311      1.0  0.45724  0.45380  0.19115  1.0000
  H   H366      1.0  0.45516  0.51681  0.09398  1.0000
  C   C312      1.0  0.62549  0.32211  0.13742  1.0000
  C   C313      1.0  0.48199  0.49063  0.08908  1.0000
  H   H367      1.0  0.73256  0.32196  0.45596  1.0000
  H   H368      1.0  0.75567  0.30901  0.06711  1.0000
  H   H369      1.0  0.49340  0.49885  0.11951  1.0000
  C   C314      1.0  0.78815  0.35816  0.41873  1.0000
  H   H370      1.0  0.57576  0.31466  0.14707  1.0000
  H   H371      1.0  0.50483  0.46060  0.07832  1.0000
  C   C315      1.0  0.48838  0.46902  0.06589  1.0000
  S   S82       1.0  0.70246  0.30742  0.35380  1.0000
  H   H372      1.0  0.76737  0.30785  0.36357  1.0000
  C   C316      1.0  0.47331  0.45801  0.02710  1.0000
  H   H373      1.0  0.58695  0.30795  0.35022  1.0000
  H   H374      1.0  0.45956  0.49896  0.21411  1.0000
  C   C317      1.0  0.76519  0.30039  0.44590  1.0000
  C   C318      1.0  0.73650  0.30109  0.46126  1.0000
  Fe  Fe41      1.0  0.81455  0.41945  0.84088  1.0000
  S   S83       1.0  0.78533  0.43779  0.87831  1.0000
  S   S84       1.0  0.86318  0.46129  0.80986  1.0000
  Fe  Fe42      1.0  0.75839  0.34661  0.85521  1.0000
  S   S85       1.0  0.72681  0.36037  0.89406  1.0000
  H   H375      1.0  0.79749  0.52577  0.69166  1.0000
  Fe  Fe43      1.0  0.73868  0.39945  0.84499  1.0000
  S   S86       1.0  0.69440  0.40663  0.82748  1.0000
  Fe  Fe44      1.0  0.77586  0.39705  0.92400  1.0000
  C   C319      1.0  0.93166  0.50288  0.79641  1.0000
  S   S87       1.0  0.76784  0.38366  0.80414  1.0000
  S   S88       1.0  0.80737  0.38056  0.88863  1.0000
  C   C320      1.0  0.80303  0.51210  0.81402  1.0000
  S   S89       1.0  0.49590  0.30082  0.62316  1.0000
  Fe  Fe45      1.0  0.55068  0.41742  0.55630  1.0000
  S   S90       1.0  0.50033  0.38675  0.58756  1.0000
  Fe  Fe46      1.0  0.59016  0.41890  0.63439  1.0000
  S   S91       1.0  0.54258  0.38943  0.67110  1.0000
  S   S92       1.0  0.64312  0.43131  0.65422  1.0000
  Fe  Fe47      1.0  0.52304  0.35726  0.61397  1.0000
  H   H376      1.0  0.46439  0.60828  0.53774  1.0000
  Fe  Fe48      1.0  0.52428  0.42210  0.64149  1.0000
  S   S93       1.0  0.49537  0.44083  0.68166  1.0000
  S   S94       1.0  0.57125  0.38515  0.57838  1.0000
  S   S95       1.0  0.57392  0.45430  0.60904  1.0000
  H   H377      1.0  0.56739  0.32992  0.63443  1.0000
  H   H378      1.0  0.82377  0.50991  0.82901  1.0000
  C   C321      1.0  0.55653  0.31327  0.71670  1.0000
  H   H379      1.0  0.61194  0.34597  0.63693  1.0000
  C   C322      1.0  0.48099  0.46970  0.67134  1.0000
  C   C323      1.0  0.48515  0.48522  0.63266  1.0000
  N   N22       1.0  0.58304  0.31457  0.68895  1.0000
  C   C324      1.0  0.71812  0.50870  0.71008  1.0000
  H   H380      1.0  0.49802  0.48022  0.60798  1.0000
  C   C325      1.0  0.67860  0.40971  0.77828  1.0000
  C   C326      1.0  0.64943  0.41241  0.77685  1.0000
  C   C327      1.0  0.63734  0.41753  0.73886  1.0000
  C   C328      1.0  0.65477  0.42068  0.70195  1.0000
  C   C329      1.0  0.68341  0.41706  0.70322  1.0000
  C   C330      1.0  0.69496  0.41103  0.74106  1.0000
  H   H381      1.0  0.63656  0.41140  0.80545  1.0000
  H   H382      1.0  0.61542  0.42049  0.73840  1.0000
  H   H383      1.0  0.69705  0.41948  0.67480  1.0000
  H   H384      1.0  0.71700  0.40836  0.74148  1.0000
  H   H385      1.0  0.75175  0.52881  0.65821  1.0000
  C   C331      1.0  0.91620  0.44901  0.82589  1.0000
  C   C332      1.0  0.90642  0.47148  0.81152  1.0000
  N   N23       1.0  0.79667  0.49900  0.77080  1.0000
  H   H386      1.0  0.89732  0.42477  0.83759  1.0000
  H   H387      1.0  0.45639  0.31583  0.99483  1.0000
  H   H388      1.0  0.45766  0.54679  0.99655  1.0000
  C   C333      1.0  0.74865  0.51950  0.68978  1.0000
  H   H389      1.0  0.47327  0.58304  0.57191  1.0000
  H   H390      1.0  0.68241  0.33871  0.81163  1.0000
  C   C334      1.0  0.61417  0.32660  0.71392  1.0000
  H   H391      1.0  0.80298  0.45716  0.78615  1.0000
  C   C335      1.0  0.73940  0.49376  0.77020  1.0000
  S   S96       1.0  0.78116  0.41237  0.99196  1.0000
  C   C336      1.0  0.58925  0.33941  0.65589  1.0000
  H   H392      1.0  0.78090  0.49796  0.83471  1.0000
  C   C337      1.0  0.45125  0.46808  0.01167  1.0000
  C   C338      1.0  0.71367  0.49624  0.75037  1.0000
  C   C339      1.0  0.46849  0.60443  0.57083  1.0000
  H   H393      1.0  0.59328  0.36343  0.66895  1.0000
  H   H394      1.0  0.61129  0.30751  0.73714  1.0000
  H   H395      1.0  0.77836  0.45149  0.74043  1.0000
  H   H396      1.0  0.69752  0.50922  0.69422  1.0000
  H   H397      1.0  0.76078  0.44899  0.79099  1.0000
  C   C340      1.0  0.82963  0.51526  0.74886  1.0000
  H   H398      1.0  0.61969  0.30120  0.63275  1.0000
  H   H399      1.0  0.83994  0.54270  0.74559  1.0000
  C   C341      1.0  0.77478  0.51752  0.70950  1.0000
  H   H400      1.0  0.84878  0.51175  0.76605  1.0000
  C   C342      1.0  0.46396  0.47653  0.70288  1.0000
  H   H401      1.0  0.73378  0.48202  0.80049  1.0000
  H   H402      1.0  0.68959  0.48717  0.76572  1.0000
  C   C343      1.0  0.77084  0.50438  0.75044  1.0000
  H   H403      1.0  0.54609  0.31354  0.55864  1.0000
  H   H404      1.0  0.82773  0.50405  0.71768  1.0000
  C   C344      1.0  0.78413  0.46259  0.77214  1.0000
  H   H405      1.0  0.81005  0.53893  0.81470  1.0000
  H   H406      1.0  0.56391  0.33839  0.72979  1.0000
  H   H407      1.0  0.63647  0.33265  0.69438  1.0000
  C   C345      1.0  0.47262  0.50725  0.62583  1.0000
  H   H408      1.0  0.76021  0.34140  0.00308  1.0000
  H   H409      1.0  0.92462  0.52063  0.78540  1.0000
  H   H410      1.0  0.46975  0.30503  0.54167  1.0000
  H   H411      1.0  0.62057  0.34993  0.73114  1.0000
  H   H412      1.0  0.47797  0.61581  0.65142  1.0000
  C   C346      1.0  0.65942  0.31464  0.80908  1.0000
  H   H413      1.0  0.50836  0.60628  0.63290  1.0000
  C   C347      1.0  0.45563  0.51406  0.65740  1.0000
  H   H414      1.0  0.62964  0.33146  0.84118  1.0000
  H   H415      1.0  0.47616  0.51905  0.59579  1.0000
  H   H416      1.0  0.47860  0.44138  0.00907  1.0000
  H   H417      1.0  0.46051  0.46470  0.73290  1.0000
  H   H418      1.0  0.67871  0.31415  0.99843  1.0000
  C   C348      1.0  0.62965  0.31051  0.82591  1.0000
  C   C349      1.0  0.45126  0.49841  0.69600  1.0000
  H   H419      1.0  0.53256  0.30501  0.69940  1.0000
  C   C350      1.0  0.50149  0.62628  0.63278  1.0000
  H   H420      1.0  0.53578  0.62567  0.56931  1.0000
  H   H421      1.0  0.50121  0.94537  0.41308  1.0000
  H   H422      1.0  0.48392  0.93673  0.33943  1.0000
  C   C351      1.0  0.47562  0.95240  0.50426  1.0000
  C   C352      1.0  0.50008  0.96192  0.35106  1.0000
  C   C353      1.0  0.45127  0.92880  0.47689  1.0000
  H   H423      1.0  0.47549  0.71056  0.51755  1.0000
  H   H424      1.0  0.48106  0.66588  0.65550  1.0000
  C   C354      1.0  0.47254  0.70021  0.62203  1.0000
  C   C355      1.0  0.48823  0.66218  0.58848  1.0000
  C   C356      1.0  0.48097  0.67508  0.62470  1.0000
  C   C357      1.0  0.47117  0.71330  0.58358  1.0000
  H   H425      1.0  0.48793  0.94425  0.52615  1.0000
  H   H426      1.0  0.46603  0.70894  0.64992  1.0000
  H   H427      1.0  0.52520  0.64757  0.53263  1.0000
  H   H428      1.0  0.46027  0.95754  0.92645  1.0000
  N   N24       1.0  0.49643  0.63499  0.58994  1.0000
  H   H429      1.0  0.52184  0.64833  0.64933  1.0000
  H   H430      1.0  0.46386  0.73224  0.58164  1.0000
  C   C358      1.0  0.47772  0.70097  0.54747  1.0000
  C   C359      1.0  0.48588  0.67563  0.54972  1.0000
  C   C360      1.0  0.52791  0.64483  0.56646  1.0000
  H   H431      1.0  0.54899  0.66904  0.57815  1.0000
  H   H432      1.0  0.48975  0.66627  0.52073  1.0000
