data_image0
_chemical_formula_structural       FeS2FeS2FeSFeS3C2H3CFeS2FeS2FeSFeHS2C2H3C6HCHC3SC3H2CHCHCH2C2H3CHC9H4C2H3C2H3NCHCHC2H2C3HCHC2H3CHNH2CH2CH2NC2HCH2SHNHSHC2H2CHCHCHCH7CHC2HCHC2HCHFeH4CH3C2N2CH6C3SC3HC2HSH2CH5CHC3HCH2C2FeS2FeS2FeSFeS3HSC2H2FeS2FeS2FeSFeHS2CH2SC7H3C2HC2HCHCH2C3H2C2HC2H2C2HC6H4C2HCH7C3NC3H2C5H2CH2CH2CH2SH3NH2SNCSH2NC9H15CNHC5HCH4C3H8CHCH3CHCHC2HCHCHCH2CH2SHCH3CH3C3FeS2FeSCFeSFeS3FeS2FeS2FeSFeHS2FeS2FeS2FeSFeS4CHC6H4C6H4C6H4CHC5H3C6H4CHC2H2C7HC3H3NC2HNCH5C2HC3HCH2CHC2H6NC5H10NCHC9H7C3HNC4H17CSH3NCHCH4CSC2HC2H2CH5C2HC2H4C2H2CHCH6C2HCH5CH4CHFeH2CHCHSH4FeC2HSH4C2HC2H2SH2C3HCFeS2FeSNFeSFeS3FeS2FeS2FeSFeHS2FeS2FeS2FeSFeS3C2HC6H4C6H4C6H4C6H4C6H4CH2C2H3C4H3C4H2SCH6CH3C2NC9H12CHN2C9H11C2HCSHSFeCHCH3CHCHCH3SH2CH3C6NHCHN2H3CH3SH5FeH3C3H7CHCHSCH2NCH2C3H2C4HC2HC2HFeS2FeS2FeSFeS3FeSHFeS2FeSFeS3FeSH2FeSFeHFeSCHC2HSC2H2C4H2C2SC3H3C2HC2SH2C3H2CH4C6H3C6H4C2HC3SH3C3H2NC5H2CH4CH6NHCHNC9H18C2HC2HCH6C2HCHC2SHC2H3CSHC2NCHC3HCH4CHNCH5SH2C2H2CHFeH5C2H3C2HNCSNH2C3HCH2SH3CH2CHCSCH2SC6H3CHCHCFeCHC2H3CH4FeS2FeS2FeSFeS3FeSHFeS2FeSFeS3FeSHCS2FeNFeSCSH2CSC2HC3H4C6H4SHCHCH2C2HC2SHCH2C6HCHC6H4CH4C2HSHC2H2C4HCHCHNH2NC9H12C2H7CHCHCHNC2H3CH3C2H2CHNC3H3CHNHCHCH3C2H2C2FeH2CSNH3CHC2H4CHC2HCHCH3CHC2HC4HC2H3C2H2C2H2NH2SH2CHCHCHCHCHCHCH2C3FeCH2SCH4CFeHCHFeS2CFeHCSFeSHSFeSFeS2FeS2FeSHCHSFeHSFeSCHCSFeS2FeS2FeSFeS3C2SH3C6H4C6H4C4HCH2C2H3C6H4CHC2FeCH3C2H3C3H2C2HC2HCH10CH2CSH2CH2CHCHNC3H9C2HCNCFeCSCH2CHC2HC2SCH3CNC9H15C2HSC2NC2HCH2CSCH3C2H2CHCH2CH3CNCHCH3SH2CHCH5CHNHC2SFeNH2SH3C4H2C2HFeH3SH8CHC3HC2HC3H2CHCHC2H2FeS2HCNS2CSHSFeSFeS2FeS2HCFeH2CFeHSHSHSFeSFeS2FeS2FeSFeS3C2H4C6H4C6H4CH2C3FeH3C2HC6H5CHC2H5CSCH2C2HC3H3CH4C4HCFeHC2HNC9H14NC6HC2HSH3SFeHCH5NHC4H3CHCFeH4C5H3CHSH6CH3C2HC2HC2NSH4SCH5C8H4CH3C4FeNH2FeHNC6HCFeH5C3H2CH3CH3C5HSC3H2SHFeS2CFeH2CH3SFeS2FeS2FeSH2S2FeS2FeS2C7H3C6H4C5H4NC6H4C2H3NCHCH5CH3SC4FeCFeH3C4HCH2CHC2HNC9H15SH3C2H2CH4C2H3C3SH2SHCHC3HNHCH2CH2FeH2C2HCNH2CHFeC4H3NHNSC2SHCHSHCH3SFeS2FeS2FeSFeHS2FeCSHSC2HC4NH3C6H4C4SC2H3C6H6CHCH2CSCSHCH2SCH4CHFeH4CH2CHCHNHSH3FeHCSCH7CHCNSH2FeCHCSH3NC9H14CH5NC9H3CH2FeCH4CH2C3H2CH2SCHCFeS2FeS2FeS2FeSFeS3H2C3H2C2HCH2C6H4C6H4C2HC4H3C2SC2HNCHC3HNH4NH2C2H2C2H8SC3H4SH2C2HCH4NH2CFeC4H5C2HNH2CHC3H2CSH2CSCH2CH3CHC2SHSHFeS2FeS2FeS2FeSFeS3FeHFeC7H3C6H4C6H5CHC2HCHC3SHCHSNCHNHC3HC4H3CH6CHCH4CHCH7CH4CH2C2HCHCFeH6CHNHFeHS2HFeS2FeS2FeSFeS3CSHCSHC3H2C6H4C6H4C6H5FeH2C2H4CH2C3HCH2CH2NCHCHNH2CH2SHCH2C4NHC2H4CHCNH3C2H8C3H3CHC2HCH2FeSCFeS3HFeS2FeS2FeSFeS3HSCHS2H5C6H4C6H4C6H4NC2HCH2C3HC2HCH7SHC3H3FeCHCH2C4HCNC2H3CH4CFeSH2CHSCNH4CH2CH2CH3NH5C2H3C3HFeHSCS2FeSHFeS2FeSFeS4H6SCS2C3H2SCSCHCH2CHC6H4C6H4C6H2SH3NC8H12NH2C3H2C2H2FeH2C2HCFeHC4S2HC3H2FeH3CHCHC2H3CHCHCHCH2C2HNHCHCH3SHCHCFeHC2HSHC2HCH2C2H3C2H2FeS2FeS2FeHSFeS2C2FeS3CSH2Fe2S2FeSC4H2C4NCH3C7H4C6H4C6H6CH3SNCSFeHSH4CH6CH7C2H6C5HCHC2H2SH6C4H4C3NHCH3CSHCHC3HCHCHNC9H3CH4C2NHCH2CH2CFeCSCS4Fe2S2HCHFeS2HSHS2HFeS2CFeS3CFeS2FeS2FeSFeS3CH2SC7H4C6H4C6HCHCHC2H2C6H4CH4CH2C3SFeCHCH2C2HCFeHC4H2NC4NC2H5FeHSNH3C3HC2H4CH2CH3CH2NC9H14C2H5CH4CHCH2C4H2CFeHCH10C2FeC2H5CSH4CHC2H3C3HC3NC2H3C2H2NCHCH4FeCHCSH3N2HCSCH7CH4CH4FeH2C3H2CH2CH3FeS2HS4Fe2S2FeH2FeS2HCHS2HFeS2HFeSCSHFeS2FeS2FeSFeS3C3HC7H4C6H4C5HCH2FeC3FeHC6H4C2H4FeHC3HC2HCSCNC8H10CHCH3C3HNCFeHSC3H7NC5H10NC9H5SH8SCH3CFeHNH2SCHNC3H7CHCH2CHCH3SH2CH4CHCHC2SCFeHNH4CH2C3H4C4H2CHFeS2FeS2FeSFeS3FeS2FeS2FeSFeS3HSCFeCFeSFeHSNSH3CS3FeHCH2C7H3C6H4C6H5C2HC6H4C6HCH2C6H2CHC2H7CHCH3C2HFeH3CH4CH5CH3CSCFeC3HCH2CNSHCNC9H12SCNC6H14CHNC7HCH9CSHC2H3CHC3H2CH4CH3CSC2H5CH4CHNCHC3H2CHFeCH2CH2FeS2FeS2FeSFeS3FeS2FeS2FeSFeHS2HSH2SCHFeS2NSH2CHS2HCHC2HC6H4C6H2CHC3HSCH5CH2C6H6CFeCH5C6HSH2C3HCHC4HNC8H11CH3SC2FeHFeH3CH2NH2C4HSCH4C2HNC9H13CNH2CH3C2HCSHCHCH2C4H4CH3FeC2H3C2HCSH2NC2NHC2HC2HC4H3CHCH4CNFe2H3SCHCH2C2HCH3C2H5CHSHC2NFe2S2FeS2FeSFeS3FeS2FeS2FeSFeS3FeS2H3FeSFeS3H4C2HC6H4C6H6CHC6H4C6H4C6H4C2HC3HC2HSHCH2SCHC2H2C3NH4CH6C2H2NH2NCHCHCFeHCH3C2HC2H4CHCHCH2CSCH2FeHCNHC2HCH3SHCH2CH3CNC5H2CH10CH2C2HC2H4CNC7HCH2CH4CHFeSCH2CHCHSCHCSCFeS2FeS2FeSFeS3FeS2FeS2FeSFeS3FeS2H3FeSFeS3H4C2FeC6H4C6H2CH2NHC7H4C6H4C6H7C2H2C2HCH2C5H6CH2CHNC8H14C2HNH11CHCN2HC2SH3C3H2CHC6H2CSC2H2C2FeH2CH3C2HCH2CH3CHCNCHCFeCH4CSH4CH4SHCHC3H3CH3C2H2CHC3H4CH2FeSC2SHCFeS2FeS2FeSFeS3FeS2FeS2FeSFeHS2HCHC2HC6H2FeH3C2H4CH4C6H4C2HC2HCH2CH2CNCHCH2C2H2CH4CHC2H2C2H3NC9H11CH2CHCH5NC2HC3HC2SHCH2CH5FeH2CHCH5C3SH2C2NSH2C3H5C2SC2SCNC3H5C2HCHC5HC3H2SH2SH2FeS2FeS2FeSFeS3FeS2FeS2FeSFeCS2H3SHC7H4CHC4H6C7H4C2NC3HCH2CH5FeCH2C2HCHCH2C2NH2CHCHCHFeCHCHCHCSH2C2HC7SC2H2CHC3H3CHNH2CHCHC2HCHCHNC4H2CHNH9CH2CHC2HCHCH3C2HC2H2SHC3H4CNH4CH2SCH3C3HC6NCH3
_chemical_formula_sum              "Fe288 S576 C2160 H2592 N144"
_cell_length_a       90.4617
_cell_length_b       86.6332
_cell_length_c       40.9804
_cell_angle_alpha    91.1526
_cell_angle_beta     88.6276
_cell_angle_gamma    112.72

_space_group_name_H-M_alt    "P 1"
_space_group_IT_number       1

loop_
  _space_group_symop_operation_xyz
  'x, y, z'

loop_
  _atom_site_type_symbol
  _atom_site_label
  _atom_site_symmetry_multiplicity
  _atom_site_fract_x
  _atom_site_fract_y
  _atom_site_fract_z
  _atom_site_occupancy
  Fe  Fe1       1.0  0.05836  0.23154  0.30842  1.0000
  S   S1        1.0  0.03856  0.23995  0.32379  1.0000
  S   S2        1.0  0.06009  0.22651  0.25430  1.0000
  Fe  Fe2       1.0  0.07037  0.23341  0.37871  1.0000
  S   S3        1.0  0.05159  0.24207  0.39906  1.0000
  S   S4        1.0  0.08946  0.22837  0.40689  1.0000
  Fe  Fe3       1.0  0.03420  0.22248  0.36613  1.0000
  S   S5        1.0  0.01097  0.20158  0.38412  1.0000
  Fe  Fe4       1.0  0.05757  0.25863  0.35480  1.0000
  S   S6        1.0  0.06375  0.28646  0.35763  1.0000
  S   S7        1.0  0.05283  0.21274  0.34835  1.0000
  S   S8        1.0  0.07751  0.25130  0.33674  1.0000
  C   C1        1.0  0.17631  0.11991  0.27376  1.0000
  C   C2        1.0  0.05050  0.20322  0.43229  1.0000
  H   H1        1.0  0.00671  0.21356  0.23790  1.0000
  H   H2        1.0  0.12778  0.30907  0.07726  1.0000
  H   H3        1.0  0.03297  0.19881  0.23232  1.0000
  C   C3        1.0  0.02005  0.19030  0.23313  1.0000
  Fe  Fe5       1.0  0.15211  0.26068  0.09404  1.0000
  S   S9        1.0  0.15442  0.24329  0.05470  1.0000
  S   S10       1.0  0.16152  0.28906  0.09499  1.0000
  Fe  Fe6       1.0  0.13395  0.23224  0.14017  1.0000
  S   S11       1.0  0.13475  0.21239  0.10439  1.0000
  S   S12       1.0  0.12610  0.22840  0.19349  1.0000
  Fe  Fe7       1.0  0.16051  0.22929  0.09491  1.0000
  S   S13       1.0  0.18256  0.22273  0.08488  1.0000
  Fe  Fe8       1.0  0.12861  0.22771  0.06688  1.0000
  H   H4        1.0  0.11502  0.22595  0.44369  1.0000
  S   S14       1.0  0.16015  0.24813  0.13318  1.0000
  S   S15       1.0  0.12582  0.24614  0.10361  1.0000
  C   C4        1.0  0.17231  0.30048  0.06105  1.0000
  C   C5        1.0  0.17547  0.29237  0.03359  1.0000
  H   H5        1.0  0.15053  0.31116  0.13417  1.0000
  H   H6        1.0  0.07934  0.21406  0.06589  1.0000
  H   H7        1.0  0.01520  0.19671  0.31389  1.0000
  C   C6        1.0  0.20102  0.18552  0.13226  1.0000
  C   C7        1.0  0.20918  0.19536  0.10581  1.0000
  C   C8        1.0  0.20333  0.20661  0.09170  1.0000
  C   C9        1.0  0.18925  0.20819  0.10371  1.0000
  C   C10       1.0  0.18109  0.19837  0.13018  1.0000
  C   C11       1.0  0.18695  0.18714  0.14432  1.0000
  H   H8        1.0  0.16470  0.99844  0.44465  1.0000
  C   C12       1.0  0.13904  0.29616  0.26697  1.0000
  H   H9        1.0  0.17026  0.19941  0.13977  1.0000
  C   C13       1.0  0.20438  0.98945  0.36918  1.0000
  C   C14       1.0  0.99425  0.18309  0.26372  1.0000
  C   C15       1.0  0.18527  0.30176  0.00806  1.0000
  S   S16       1.0  0.21522  0.07004  0.49439  1.0000
  C   C16       1.0  0.13600  0.29564  0.48735  1.0000
  C   C17       1.0  0.97030  0.16009  0.24328  1.0000
  C   C18       1.0  0.19279  0.99615  0.36436  1.0000
  H   H10       1.0  0.02611  0.22038  0.25615  1.0000
  H   H11       1.0  0.18557  0.15225  0.20122  1.0000
  C   C19       1.0  0.18572  0.99274  0.44499  1.0000
  H   H12       1.0  0.20256  0.09406  0.28477  1.0000
  C   C20       1.0  0.06976  0.29695  0.32025  1.0000
  H   H13       1.0  0.18050  0.17964  0.16475  1.0000
  C   C21       1.0  0.06605  0.28822  0.29052  1.0000
  H   H14       1.0  0.04726  0.23125  0.01794  1.0000
  H   H15       1.0  0.05928  0.27483  0.29027  1.0000
  C   C22       1.0  0.09559  0.23448  0.44766  1.0000
  C   C23       1.0  0.08751  0.24169  0.46855  1.0000
  H   H16       1.0  0.20334  0.09037  0.01211  1.0000
  H   H17       1.0  0.15130  0.28607  0.23199  1.0000
  H   H18       1.0  0.16327  0.10694  0.31641  1.0000
  C   C24       1.0  0.11951  0.31612  0.28329  1.0000
  H   H19       1.0  0.07748  0.24415  0.45967  1.0000
  C   C25       1.0  0.19392  0.12645  0.19273  1.0000
  C   C26       1.0  0.10250  0.28533  0.20469  1.0000
  C   C27       1.0  0.07860  0.31429  0.32026  1.0000
  C   C28       1.0  0.10750  0.22765  0.20944  1.0000
  C   C29       1.0  0.10487  0.22650  0.24336  1.0000
  C   C30       1.0  0.09051  0.22645  0.25739  1.0000
  C   C31       1.0  0.07848  0.22715  0.23746  1.0000
  C   C32       1.0  0.08099  0.22809  0.20344  1.0000
  C   C33       1.0  0.09551  0.22847  0.18945  1.0000
  H   H20       1.0  0.11401  0.22561  0.25888  1.0000
  H   H21       1.0  0.08865  0.22554  0.28357  1.0000
  H   H22       1.0  0.07172  0.22863  0.18786  1.0000
  H   H23       1.0  0.09741  0.22934  0.16327  1.0000
  C   C34       1.0  0.99037  0.19816  0.37897  1.0000
  C   C35       1.0  0.98559  0.21032  0.36613  1.0000
  H   H24       1.0  0.19045  0.26770  0.02158  1.0000
  H   H25       1.0  0.06785  0.23539  0.05845  1.0000
  H   H26       1.0  0.99455  0.22232  0.35910  1.0000
  C   C36       1.0  0.05654  0.19749  0.48690  1.0000
  C   C37       1.0  0.01963  0.19229  0.29150  1.0000
  H   H27       1.0  0.01782  0.17900  0.29541  1.0000
  H   H28       1.0  0.03279  0.19974  0.28997  1.0000
  H   H29       1.0  0.01497  0.19202  0.20968  1.0000
  N   N1        1.0  0.01149  0.19408  0.26166  1.0000
  C   C38       1.0  0.07075  0.29687  0.26096  1.0000
  H   H30       1.0  0.02036  0.21550  0.00455  1.0000
  C   C39       1.0  0.07972  0.31417  0.26098  1.0000
  H   H31       1.0  0.06747  0.29010  0.23804  1.0000
  C   C40       1.0  0.03606  0.17610  0.45560  1.0000
  C   C41       1.0  0.97845  0.18267  0.38808  1.0000
  H   H32       1.0  0.20841  0.11363  0.23976  1.0000
  H   H33       1.0  0.11244  0.24871  0.02577  1.0000
  C   C42       1.0  0.19641  0.30609  0.50082  1.0000
  C   C43       1.0  0.12390  0.30017  0.09799  1.0000
  C   C44       1.0  0.12752  0.29284  0.29283  1.0000
  H   H34       1.0  0.09934  0.29185  0.32165  1.0000
  C   C45       1.0  0.12021  0.27598  0.30334  1.0000
  H   H35       1.0  0.07122  0.18821  0.45535  1.0000
  C   C46       1.0  0.12393  0.26328  0.28828  1.0000
  C   C47       1.0  0.13501  0.26689  0.26249  1.0000
  H   H36       1.0  0.19099  0.24906  0.03895  1.0000
  H   H37       1.0  0.20294  0.27759  0.10880  1.0000
  H   H38       1.0  0.21816  0.11594  0.04491  1.0000
  C   C48       1.0  0.19515  0.10120  0.28150  1.0000
  H   H39       1.0  0.10906  0.30776  0.26904  1.0000
  N   N2        1.0  0.12602  0.30907  0.12998  1.0000
  H   H40       1.0  0.19387  0.00577  0.44354  1.0000
  H   H41       1.0  0.11115  0.29175  0.09438  1.0000
  C   C49       1.0  0.21673  0.28972  0.04843  1.0000
  H   H42       1.0  0.20716  0.04566  0.05950  1.0000
  H   H43       1.0  0.11161  0.27221  0.32327  1.0000
  C   C50       1.0  0.19855  0.26207  0.03141  1.0000
  H   H44       1.0  0.11816  0.25051  0.29673  1.0000
  H   H45       1.0  0.13766  0.25691  0.25060  1.0000
  N   N3        1.0  0.19349  0.13469  0.22467  1.0000
  C   C51       1.0  0.20961  0.14771  0.23084  1.0000
  C   C52       1.0  0.98447  0.18524  0.28957  1.0000
  H   H46       1.0  0.18236  0.11578  0.18817  1.0000
  C   C53       1.0  0.18918  0.12225  0.25118  1.0000
  H   H47       1.0  0.04469  0.17120  0.44426  1.0000
  H   H48       1.0  0.07010  0.18831  0.03241  1.0000
  S   S17       1.0  0.11080  0.21442  0.02707  1.0000
  H   H49       1.0  0.16811  0.99012  0.35223  1.0000
  N   N4        1.0  0.12396  0.30664  0.30839  1.0000
  H   H50       1.0  0.09343  0.28578  0.22203  1.0000
  S   S18       1.0  0.20780  0.17110  0.15126  1.0000
  H   H51       1.0  0.18711  0.27511  0.08041  1.0000
  C   C54       1.0  0.98666  0.17013  0.24054  1.0000
  C   C55       1.0  0.06347  0.22394  0.04401  1.0000
  H   H52       1.0  0.10353  0.26309  0.22527  1.0000
  H   H53       1.0  0.02448  0.19316  0.49653  1.0000
  C   C56       1.0  0.19842  0.11247  0.25581  1.0000
  H   H54       1.0  0.04101  0.20203  0.41448  1.0000
  C   C57       1.0  0.18252  0.09924  0.30326  1.0000
  H   H55       1.0  0.13120  0.29242  0.09544  1.0000
  C   C58       1.0  0.03077  0.19991  0.47427  1.0000
  H   H56       1.0  0.16862  0.12678  0.27237  1.0000
  C   C59       1.0  0.10827  0.29739  0.18029  1.0000
  H   H57       1.0  0.00876  0.21626  0.28137  1.0000
  H   H58       1.0  0.01979  0.17737  0.23415  1.0000
  H   H59       1.0  0.10771  0.31137  0.34308  1.0000
  H   H60       1.0  0.20974  0.21408  0.07120  1.0000
  H   H61       1.0  0.05892  0.19844  0.41963  1.0000
  H   H62       1.0  0.13479  0.28282  0.14347  1.0000
  H   H63       1.0  0.19041  0.25738  0.09433  1.0000
  C   C60       1.0  0.05178  0.22148  0.02053  1.0000
  H   H64       1.0  0.16977  0.13414  0.21700  1.0000
  C   C61       1.0  0.11990  0.29684  0.15673  1.0000
  C   C62       1.0  0.12570  0.28388  0.15997  1.0000
  H   H65       1.0  0.18012  0.09055  0.32328  1.0000
  C   C63       1.0  0.11980  0.27187  0.18435  1.0000
  H   H66       1.0  0.03113  0.16885  0.47823  1.0000
  C   C64       1.0  0.10816  0.27254  0.20657  1.0000
  C   C65       1.0  0.19665  0.27063  0.08682  1.0000
  H   H67       1.0  0.18207  0.15078  0.24411  1.0000
  C   C66       1.0  0.10509  0.24175  0.00583  1.0000
  H   H68       1.0  0.99307  0.16746  0.22010  1.0000
  Fe  Fe9       1.0  0.21767  0.04197  0.38591  1.0000
  H   H69       1.0  0.14543  0.30873  0.25826  1.0000
  H   H70       1.0  0.21321  0.25190  0.07819  1.0000
  H   H71       1.0  0.21304  0.15779  0.21229  1.0000
  H   H72       1.0  0.21646  0.99771  0.37525  1.0000
  C   C67       1.0  0.21593  0.09747  0.00699  1.0000
  H   H73       1.0  0.20602  0.30219  0.08352  1.0000
  H   H74       1.0  0.12422  0.26191  0.18590  1.0000
  H   H75       1.0  0.98195  0.17314  0.39804  1.0000
  C   C68       1.0  0.17308  0.10851  0.29933  1.0000
  C   C69       1.0  0.08239  0.19640  0.50098  1.0000
  N   N5        1.0  0.20796  0.27223  0.05899  1.0000
  N   N6        1.0  0.04364  0.19428  0.46296  1.0000
  C   C70       1.0  0.18215  0.14325  0.22184  1.0000
  H   H76       1.0  0.21004  0.15372  0.25526  1.0000
  H   H77       1.0  0.05733  0.21676  0.43723  1.0000
  H   H78       1.0  0.12713  0.28963  0.46890  1.0000
  H   H79       1.0  0.02141  0.19753  0.45539  1.0000
  H   H80       1.0  0.17049  0.27888  0.03215  1.0000
  H   H81       1.0  0.10328  0.30690  0.18032  1.0000
  C   C71       1.0  0.09229  0.24551  0.50123  1.0000
  C   C72       1.0  0.10868  0.23151  0.45965  1.0000
  C   C73       1.0  0.14263  0.28333  0.25199  1.0000
  S   S19       1.0  0.19700  0.01807  0.36818  1.0000
  C   C74       1.0  0.11357  0.23549  0.49223  1.0000
  C   C75       1.0  0.16924  0.98856  0.44542  1.0000
  C   C76       1.0  0.06990  0.21192  0.04840  1.0000
  H   H82       1.0  0.19393  0.29972  0.47738  1.0000
  C   C77       1.0  0.01329  0.21180  0.25916  1.0000
  C   C78       1.0  0.11057  0.30083  0.33278  1.0000
  H   H83       1.0  0.02606  0.17323  0.43810  1.0000
  S   S20       1.0  0.20994  0.06352  0.39728  1.0000
  H   H84       1.0  0.11348  0.29475  0.35398  1.0000
  H   H85       1.0  0.98941  0.19473  0.30820  1.0000
  C   C79       1.0  0.06464  0.19736  0.02941  1.0000
  H   H86       1.0  0.14244  0.31156  0.34389  1.0000
  H   H87       1.0  0.20627  0.26084  0.01088  1.0000
  H   H88       1.0  0.01436  0.19326  0.00804  1.0000
  H   H89       1.0  0.03564  0.21365  0.47924  1.0000
  H   H90       1.0  0.20364  0.12159  0.19099  1.0000
  C   C80       1.0  0.14291  0.31313  0.49010  1.0000
  H   H91       1.0  0.19618  0.13534  0.17211  1.0000
  C   C81       1.0  0.06999  0.19341  0.47896  1.0000
  C   C82       1.0  0.05304  0.19480  0.00565  1.0000
  C   C83       1.0  0.21444  0.30359  0.06357  1.0000
  H   H92       1.0  0.10465  0.31420  0.12476  1.0000
  C   C84       1.0  0.96913  0.20699  0.36253  1.0000
  H   H93       1.0  0.09277  0.19366  0.49401  1.0000
  H   H94       1.0  0.12354  0.23294  0.50118  1.0000
  C   C85       1.0  0.17716  0.98511  0.35625  1.0000
  C   C86       1.0  0.21882  0.05549  0.05487  1.0000
  Fe  Fe10      1.0  0.06041  0.22581  0.82152  1.0000
  S   S21       1.0  0.03731  0.22898  0.81213  1.0000
  S   S22       1.0  0.07218  0.21408  0.78463  1.0000
  Fe  Fe11      1.0  0.06364  0.24082  0.89028  1.0000
  S   S23       1.0  0.04117  0.24587  0.88593  1.0000
  S   S24       1.0  0.07976  0.25125  0.93386  1.0000
  Fe  Fe12      1.0  0.02997  0.21997  0.86369  1.0000
  S   S25       1.0  0.00668  0.20000  0.88473  1.0000
  Fe  Fe13      1.0  0.05014  0.25443  0.83508  1.0000
  S   S26       1.0  0.05059  0.27880  0.81532  1.0000
  S   S27       1.0  0.05225  0.21451  0.87105  1.0000
  S   S28       1.0  0.07344  0.25166  0.84149  1.0000
  H   H95       1.0  0.20883  0.08022  0.55840  1.0000
  S   S29       1.0  0.11015  0.24649  0.55516  1.0000
  C   C87       1.0  0.15193  0.29330  0.53178  1.0000
  C   C88       1.0  0.14772  0.30961  0.62392  1.0000
  H   H96       1.0  0.20329  0.11498  0.81341  1.0000
  H   H97       1.0  0.97833  0.17490  0.91284  1.0000
  Fe  Fe14      1.0  0.16605  0.26840  0.60009  1.0000
  S   S30       1.0  0.15634  0.24685  0.56444  1.0000
  S   S31       1.0  0.18459  0.29494  0.59651  1.0000
  Fe  Fe15      1.0  0.14135  0.25051  0.65384  1.0000
  S   S32       1.0  0.12968  0.22762  0.62256  1.0000
  S   S33       1.0  0.13397  0.25873  0.70245  1.0000
  Fe  Fe16      1.0  0.15518  0.23084  0.60860  1.0000
  S   S34       1.0  0.16132  0.20747  0.60653  1.0000
  Fe  Fe17      1.0  0.13175  0.24514  0.58110  1.0000
  H   H98       1.0  0.18285  0.28380  0.52817  1.0000
  S   S35       1.0  0.16652  0.25268  0.64281  1.0000
  S   S36       1.0  0.14178  0.26769  0.61366  1.0000
  C   C89       1.0  0.19313  0.30527  0.55987  1.0000
  H   H99       1.0  0.08575  0.29645  0.67045  1.0000
  H   H100      1.0  0.16593  0.29704  0.66130  1.0000
  S   S37       1.0  0.21159  0.04944  0.87639  1.0000
  C   C90       1.0  0.21250  0.22252  0.56543  1.0000
  C   C91       1.0  0.11501  0.31078  0.88378  1.0000
  C   C92       1.0  0.19020  0.18418  0.63677  1.0000
  C   C93       1.0  0.17723  0.18751  0.62471  1.0000
  C   C94       1.0  0.17754  0.20390  0.62452  1.0000
  C   C95       1.0  0.19100  0.21692  0.63695  1.0000
  C   C96       1.0  0.20412  0.21364  0.64838  1.0000
  H   H101      1.0  0.18951  0.17146  0.63733  1.0000
  H   H102      1.0  0.16685  0.17730  0.61544  1.0000
  H   H103      1.0  0.19149  0.22960  0.63700  1.0000
  C   C97       1.0  0.10355  0.29565  0.89518  1.0000
  C   C98       1.0  0.09159  0.29328  0.76032  1.0000
  H   H104      1.0  0.15552  0.28558  0.54778  1.0000
  C   C99       1.0  0.01898  0.20387  0.99072  1.0000
  C   C100      1.0  0.15334  0.30999  0.70864  1.0000
  H   H105      1.0  0.11478  0.31439  0.59515  1.0000
  C   C101      1.0  0.12443  0.31556  0.61137  1.0000
  H   H106      1.0  0.10144  0.24859  0.66914  1.0000
  C   C102      1.0  0.21538  0.09143  0.54469  1.0000
  H   H107      1.0  0.10838  0.29291  0.68744  1.0000
  H   H108      1.0  0.18900  0.99600  0.83395  1.0000
  C   C103      1.0  0.06770  0.29074  0.79189  1.0000
  C   C104      1.0  0.06880  0.20766  0.54012  1.0000
  C   C105      1.0  0.07812  0.28362  0.77912  1.0000
  H   H109      1.0  0.08027  0.27389  0.70170  1.0000
  H   H110      1.0  0.07564  0.27058  0.78318  1.0000
  C   C106      1.0  0.08836  0.24069  0.95909  1.0000
  C   C107      1.0  0.08583  0.22385  0.95408  1.0000
  H   H111      1.0  0.19633  0.08858  0.76754  1.0000
  C   C108      1.0  0.10526  0.24233  0.51331  1.0000
  C   C109      1.0  0.21134  0.19412  0.55397  1.0000
  H   H112      1.0  0.18802  0.29544  0.98719  1.0000
  H   H113      1.0  0.07839  0.21683  0.93434  1.0000
  C   C110      1.0  0.08736  0.29134  0.88904  1.0000
  C   C111      1.0  0.20393  0.19729  0.64804  1.0000
  H   H114      1.0  0.00955  0.20203  0.97224  1.0000
  C   C112      1.0  0.11678  0.24602  0.72486  1.0000
  C   C113      1.0  0.11079  0.25339  0.74992  1.0000
  C   C114      1.0  0.09686  0.24385  0.76768  1.0000
  C   C115      1.0  0.08904  0.22673  0.76117  1.0000
  C   C116      1.0  0.09508  0.21933  0.73619  1.0000
  C   C117      1.0  0.10881  0.22897  0.71785  1.0000
  H   H115      1.0  0.11686  0.26659  0.75548  1.0000
  H   H116      1.0  0.09235  0.24976  0.78663  1.0000
  H   H117      1.0  0.08912  0.20608  0.73101  1.0000
  H   H118      1.0  0.11334  0.22315  0.69862  1.0000
  C   C118      1.0  0.98582  0.19540  0.87909  1.0000
  C   C119      1.0  0.13514  0.30806  0.60315  1.0000
  H   H119      1.0  0.09956  0.28763  0.75057  1.0000
  C   C120      1.0  0.21711  0.08510  0.78546  1.0000
  H   H120      1.0  0.98895  0.21468  0.84418  1.0000
  H   H121      1.0  0.09094  0.20299  0.97092  1.0000
  H   H122      1.0  0.05187  0.22111  0.94198  1.0000
  H   H123      1.0  0.97837  0.17119  0.82536  1.0000
  H   H124      1.0  0.11976  0.28563  0.65907  1.0000
  H   H125      1.0  0.07708  0.31089  0.62920  1.0000
  H   H126      1.0  0.96942  0.17963  0.72653  1.0000
  C   C121      1.0  0.19689  0.21798  0.55461  1.0000
  C   C122      1.0  0.08451  0.28271  0.57966  1.0000
  C   C123      1.0  0.03073  0.18960  0.95430  1.0000
  N   N7        1.0  0.21846  0.18131  0.55373  1.0000
  C   C124      1.0  0.08211  0.26355  0.68800  1.0000
  C   C125      1.0  0.10968  0.28153  0.67716  1.0000
  C   C126      1.0  0.21441  0.12346  0.82370  1.0000
  H   H127      1.0  0.13355  0.30081  0.58072  1.0000
  H   H128      1.0  0.02185  0.18861  0.93512  1.0000
  C   C127      1.0  0.08180  0.20351  0.53148  1.0000
  C   C128      1.0  0.09475  0.31013  0.75407  1.0000
  C   C129      1.0  0.08938  0.27415  0.60297  1.0000
  C   C130      1.0  0.09293  0.21602  0.97488  1.0000
  C   C131      1.0  0.07995  0.29581  0.58910  1.0000
  H   H129      1.0  0.07612  0.30235  0.57095  1.0000
  H   H130      1.0  0.08427  0.27910  0.55410  1.0000
  C   C132      1.0  0.08252  0.30209  0.87146  1.0000
  H   H131      1.0  0.06989  0.29866  0.86672  1.0000
  H   H132      1.0  0.08578  0.25078  0.51736  1.0000
  C   C133      1.0  0.19541  0.18990  0.54336  1.0000
  H   H133      1.0  0.08519  0.25614  0.70667  1.0000
  H   H134      1.0  0.10007  0.26263  0.98899  1.0000
  C   C134      1.0  0.98037  0.20439  0.85773  1.0000
  H   H135      1.0  0.14564  0.29667  0.70323  1.0000
  H   H136      1.0  0.09281  0.26420  0.59382  1.0000
  S   S38       1.0  0.21184  0.14507  0.64530  1.0000
  H   H137      1.0  0.04138  0.23138  0.96539  1.0000
  H   H138      1.0  0.19650  0.08978  0.83803  1.0000
  H   H139      1.0  0.16745  0.31592  0.55401  1.0000
  N   N8        1.0  0.03425  0.20486  0.97500  1.0000
  H   H140      1.0  0.21457  0.22389  0.65726  1.0000
  H   H141      1.0  0.06867  0.21357  0.56364  1.0000
  S   S39       1.0  0.21074  0.00107  0.88954  1.0000
  N   N9        1.0  0.21076  0.10640  0.87549  1.0000
  C   C135      1.0  0.05628  0.20470  0.51832  1.0000
  S   S40       1.0  0.20789  0.11555  0.72168  1.0000
  H   H142      1.0  0.21101  0.17297  0.60248  1.0000
  H   H143      1.0  0.11336  0.27573  0.69769  1.0000
  N   N10       1.0  0.11279  0.22755  0.85691  1.0000
  C   C136      1.0  0.10974  0.21273  0.83516  1.0000
  C   C137      1.0  0.09723  0.22915  0.86304  1.0000
  C   C138      1.0  0.12365  0.24247  0.83890  1.0000
  C   C139      1.0  0.11991  0.22645  0.88852  1.0000
  C   C140      1.0  0.12267  0.21208  0.89793  1.0000
  C   C141      1.0  0.12401  0.23996  0.91133  1.0000
  C   C142      1.0  0.12910  0.21140  0.92835  1.0000
  C   C143      1.0  0.13059  0.23919  0.94148  1.0000
  C   C144      1.0  0.13305  0.22491  0.95004  1.0000
  H   H144      1.0  0.10090  0.20111  0.84627  1.0000
  H   H145      1.0  0.10449  0.21407  0.81152  1.0000
  H   H146      1.0  0.12101  0.21090  0.82896  1.0000
  H   H147      1.0  0.09847  0.24063  0.87735  1.0000
  H   H148      1.0  0.08881  0.21826  0.87687  1.0000
  H   H149      1.0  0.09138  0.22972  0.83980  1.0000
  H   H150      1.0  0.13584  0.24227  0.83575  1.0000
  H   H151      1.0  0.11916  0.24309  0.81409  1.0000
  H   H152      1.0  0.12493  0.25440  0.85145  1.0000
  H   H153      1.0  0.11982  0.20112  0.88245  1.0000
  H   H154      1.0  0.12185  0.25110  0.90637  1.0000
  H   H155      1.0  0.13085  0.20024  0.93545  1.0000
  H   H156      1.0  0.13332  0.24951  0.95882  1.0000
  H   H157      1.0  0.13764  0.22415  0.97394  1.0000
  H   H158      1.0  0.06281  0.31318  0.79535  1.0000
  C   C145      1.0  0.97566  0.17635  0.77537  1.0000
  N   N11       1.0  0.09476  0.26971  0.66216  1.0000
  H   H159      1.0  0.18848  0.08469  0.87829  1.0000
  C   C146      1.0  0.19503  0.09541  0.86194  1.0000
  C   C147      1.0  0.19011  0.29706  0.52955  1.0000
  C   C148      1.0  0.08533  0.29212  0.64537  1.0000
  C   C149      1.0  0.21747  0.17369  0.52065  1.0000
  C   C150      1.0  0.08045  0.30057  0.62187  1.0000
  H   H160      1.0  0.18154  0.31124  0.68543  1.0000
  C   C151      1.0  0.10252  0.22490  0.00093  1.0000
  H   H161      1.0  0.16204  0.30999  0.72740  1.0000
  H   H162      1.0  0.07041  0.25537  0.67747  1.0000
  H   H163      1.0  0.17593  0.19805  0.53691  1.0000
  H   H164      1.0  0.08707  0.24554  0.63800  1.0000
  C   C152      1.0  0.09804  0.24959  0.98497  1.0000
  C   C153      1.0  0.09788  0.25504  0.64945  1.0000
  C   C154      1.0  0.08974  0.27849  0.63672  1.0000
  H   H165      1.0  0.15581  0.30380  0.61575  1.0000
  H   H166      1.0  0.21883  0.11883  0.92212  1.0000
  H   H167      1.0  0.18809  0.17732  0.53564  1.0000
  H   H168      1.0  0.20049  0.10123  0.92423  1.0000
  H   H169      1.0  0.10793  0.25874  0.63126  1.0000
  H   H170      1.0  0.04982  0.18340  0.99142  1.0000
  H   H171      1.0  0.18710  0.10239  0.85874  1.0000
  H   H172      1.0  0.10715  0.28720  0.90913  1.0000
  C   C155      1.0  0.20925  0.09277  0.76614  1.0000
  H   H173      1.0  0.19645  0.16232  0.57235  1.0000
  C   C156      1.0  0.21801  0.10580  0.74486  1.0000
  H   H174      1.0  0.21386  0.15757  0.57620  1.0000
  H   H175      1.0  0.07851  0.27966  0.89797  1.0000
  H   H176      1.0  0.09168  0.20630  0.54811  1.0000
  C   C157      1.0  0.07089  0.30763  0.78570  1.0000
  H   H177      1.0  0.04170  0.18975  0.94114  1.0000
  C   C158      1.0  0.20951  0.16796  0.57707  1.0000
  H   H178      1.0  0.98820  0.18441  0.77215  1.0000
  C   C159      1.0  0.18834  0.20169  0.54374  1.0000
  C   C160      1.0  0.04000  0.21942  0.95291  1.0000
  H   H179      1.0  0.21027  0.07494  0.80143  1.0000
  C   C161      1.0  0.97434  0.18201  0.89633  1.0000
  H   H180      1.0  0.03152  0.21786  0.93266  1.0000
  C   C162      1.0  0.97010  0.16885  0.80535  1.0000
  H   H181      1.0  0.21369  0.08446  0.89283  1.0000
  C   C163      1.0  0.15883  0.31073  0.53491  1.0000
  H   H182      1.0  0.21884  0.23504  0.57513  1.0000
  H   H183      1.0  0.19112  0.22687  0.55607  1.0000
  C   C164      1.0  0.20765  0.11204  0.90850  1.0000
  H   H184      1.0  0.12732  0.31342  0.88970  1.0000
  H   H185      1.0  0.21711  0.10810  0.58576  1.0000
  S   S41       1.0  0.21272  0.07388  0.95894  1.0000
  H   H186      1.0  0.02545  0.17798  0.96887  1.0000
  C   C165      1.0  0.17253  0.31061  0.66686  1.0000
  H   H187      1.0  0.20098  0.12043  0.90699  1.0000
  H   H188      1.0  0.20491  0.16639  0.51337  1.0000
  H   H189      1.0  0.14553  0.31590  0.72022  1.0000
  C   C166      1.0  0.14053  0.28576  0.50810  1.0000
  H   H190      1.0  0.04670  0.20839  0.52652  1.0000
  H   H191      1.0  0.13524  0.27222  0.50580  1.0000
  H   H192      1.0  0.17943  0.31682  0.64464  1.0000
  C   C167      1.0  0.04633  0.20692  0.00030  1.0000
  C   C168      1.0  0.08443  0.31735  0.76698  1.0000
  C   C169      1.0  0.09383  0.31718  0.85984  1.0000
  Fe  Fe18      1.0  0.02853  0.55469  0.42458  1.0000
  S   S42       1.0  0.04346  0.57276  0.38665  1.0000
  S   S43       1.0  0.00171  0.53969  0.42818  1.0000
  Fe  Fe19      1.0  0.05710  0.56047  0.46785  1.0000
  S   S44       1.0  0.07452  0.57910  0.43346  1.0000
  C   C170      1.0  0.03801  0.54090  0.27790  1.0000
  Fe  Fe20      1.0  0.05579  0.58995  0.42872  1.0000
  S   S45       1.0  0.05875  0.61755  0.42857  1.0000
  Fe  Fe21      1.0  0.06104  0.56065  0.39426  1.0000
  S   S46       1.0  0.07405  0.55386  0.35200  1.0000
  S   S47       1.0  0.03926  0.57258  0.46601  1.0000
  S   S48       1.0  0.04527  0.54134  0.42916  1.0000
  Fe  Fe22      1.0  0.12027  0.38741  0.22352  1.0000
  S   S49       1.0  0.11092  0.36818  0.18337  1.0000
  S   S50       1.0  0.11343  0.41008  0.23172  1.0000
  Fe  Fe23      1.0  0.13878  0.36857  0.25551  1.0000
  S   S51       1.0  0.13056  0.34838  0.21735  1.0000
  S   S52       1.0  0.15082  0.35976  0.29499  1.0000
  Fe  Fe24      1.0  0.13602  0.36869  0.18072  1.0000
  S   S53       1.0  0.14625  0.36100  0.13513  1.0000
  Fe  Fe25      1.0  0.10651  0.34945  0.22329  1.0000
  H   H193      1.0  0.08951  0.53328  0.49906  1.0000
  S   S54       1.0  0.14605  0.38923  0.21843  1.0000
  S   S55       1.0  0.11405  0.36839  0.26384  1.0000
  Fe  Fe26      1.0  0.01905  0.45773  0.17779  1.0000
  S   S56       1.0  0.03790  0.45789  0.14090  1.0000
  S   S57       1.0  0.99193  0.44711  0.17703  1.0000
  Fe  Fe27      1.0  0.04356  0.47626  0.22950  1.0000
  S   S58       1.0  0.06464  0.47790  0.19715  1.0000
  S   S59       1.0  0.04088  0.48301  0.28247  1.0000
  Fe  Fe28      1.0  0.05110  0.48452  0.15753  1.0000
  S   S60       1.0  0.06461  0.50644  0.12438  1.0000
  Fe  Fe29      1.0  0.05011  0.45109  0.18272  1.0000
  S   S61       1.0  0.05690  0.42829  0.17453  1.0000
  S   S62       1.0  0.03127  0.48486  0.19126  1.0000
  S   S63       1.0  0.03008  0.44899  0.21812  1.0000
  S   S64       1.0  0.20053  0.37098  0.44945  1.0000
  C   C171      1.0  0.98533  0.53653  0.33542  1.0000
  H   H194      1.0  0.98123  0.40162  0.15680  1.0000
  C   C172      1.0  0.16881  0.37121  0.31564  1.0000
  C   C173      1.0  0.17302  0.36359  0.34180  1.0000
  C   C174      1.0  0.18738  0.37189  0.35853  1.0000
  C   C175      1.0  0.19784  0.38785  0.34898  1.0000
  C   C176      1.0  0.19373  0.39545  0.32256  1.0000
  C   C177      1.0  0.17917  0.38725  0.30613  1.0000
  H   H195      1.0  0.16514  0.35119  0.34931  1.0000
  H   H196      1.0  0.19050  0.36582  0.37850  1.0000
  H   H197      1.0  0.04214  0.54657  0.30157  1.0000
  H   H198      1.0  0.17601  0.39331  0.28621  1.0000
  C   C178      1.0  0.19186  0.39142  0.07678  1.0000
  C   C179      1.0  0.18717  0.39876  0.10392  1.0000
  C   C180      1.0  0.17319  0.38964  0.12213  1.0000
  C   C181      1.0  0.16386  0.37312  0.11325  1.0000
  C   C182      1.0  0.16859  0.36579  0.08621  1.0000
  C   C183      1.0  0.18251  0.37489  0.06803  1.0000
  H   H199      1.0  0.19433  0.41158  0.11070  1.0000
  H   H200      1.0  0.16955  0.39546  0.14266  1.0000
  H   H201      1.0  0.16143  0.35305  0.07904  1.0000
  H   H202      1.0  0.18605  0.36909  0.04731  1.0000
  C   C184      1.0  0.07342  0.42414  0.18902  1.0000
  C   C185      1.0  0.08439  0.43478  0.21115  1.0000
  C   C186      1.0  0.09669  0.43040  0.22344  1.0000
  C   C187      1.0  0.09838  0.41550  0.21349  1.0000
  C   C188      1.0  0.08768  0.40510  0.19065  1.0000
  C   C189      1.0  0.07522  0.40933  0.17877  1.0000
  H   H203      1.0  0.08324  0.44624  0.21921  1.0000
  H   H204      1.0  0.10493  0.43860  0.24096  1.0000
  H   H205      1.0  0.08897  0.39379  0.18218  1.0000
  H   H206      1.0  0.06692  0.40108  0.16145  1.0000
  C   C190      1.0  0.04256  0.52166  0.03650  1.0000
  H   H207      1.0  0.09688  0.56145  0.45387  1.0000
  C   C191      1.0  0.06547  0.52497  0.07005  1.0000
  C   C192      1.0  0.05591  0.51176  0.09021  1.0000
  C   C193      1.0  0.03961  0.50357  0.08351  1.0000
  C   C194      1.0  0.03299  0.50852  0.05683  1.0000
  C   C195      1.0  0.99328  0.58452  0.37822  1.0000
  H   H208      1.0  0.07808  0.53140  0.07507  1.0000
  H   H209      1.0  0.03211  0.49342  0.09887  1.0000
  H   H210      1.0  0.02038  0.50207  0.05185  1.0000
  C   C196      1.0  0.06443  0.53445  0.33178  1.0000
  C   C197      1.0  0.07161  0.53054  0.30377  1.0000
  C   C198      1.0  0.06423  0.51503  0.28752  1.0000
  C   C199      1.0  0.04978  0.50326  0.29964  1.0000
  C   C200      1.0  0.04266  0.50719  0.32768  1.0000
  C   C201      1.0  0.04983  0.52279  0.34345  1.0000
  H   H211      1.0  0.08298  0.53946  0.29476  1.0000
  H   H212      1.0  0.06999  0.51193  0.26640  1.0000
  H   H213      1.0  0.03165  0.49801  0.33754  1.0000
  H   H214      1.0  0.04417  0.52563  0.36494  1.0000
  C   C202      1.0  0.07606  0.63572  0.43915  1.0000
  H   H215      1.0  0.99018  0.54077  0.31134  1.0000
  C   C203      1.0  0.11776  0.32090  0.12830  1.0000
  C   C204      1.0  0.09045  0.63470  0.44842  1.0000
  H   H216      1.0  0.98580  0.46497  0.22995  1.0000
  H   H217      1.0  0.11971  0.32890  0.15066  1.0000
  C   C205      1.0  0.11123  0.54163  0.42829  1.0000
  C   C206      1.0  0.97931  0.42607  0.08719  1.0000
  C   C207      1.0  0.98851  0.43521  0.11347  1.0000
  C   C208      1.0  0.98092  0.43713  0.14245  1.0000
  C   C209      1.0  0.19517  0.36720  0.17579  1.0000
  C   C210      1.0  0.97899  0.37711  0.07581  1.0000
  C   C211      1.0  0.04899  0.54322  0.25203  1.0000
  H   H218      1.0  0.00143  0.44061  0.11141  1.0000
  C   C212      1.0  0.18799  0.32746  0.03644  1.0000
  C   C213      1.0  0.99562  0.54035  0.36229  1.0000
  C   C214      1.0  0.98936  0.53511  0.39355  1.0000
  H   H219      1.0  0.01939  0.61915  0.41723  1.0000
  H   H220      1.0  0.21171  0.37412  0.23113  1.0000
  H   H221      1.0  0.00834  0.54740  0.35883  1.0000
  N   N12       1.0  0.09610  0.53632  0.44785  1.0000
  C   C215      1.0  0.98307  0.49463  0.29950  1.0000
  C   C216      1.0  0.02187  0.53101  0.27367  1.0000
  H   H222      1.0  0.03210  0.35664  0.24847  1.0000
  N   N13       1.0  0.19121  0.37451  0.20614  1.0000
  C   C217      1.0  0.99120  0.58062  0.34430  1.0000
  H   H223      1.0  0.01302  0.57402  0.40853  1.0000
  H   H224      1.0  0.97804  0.37060  0.05260  1.0000
  H   H225      1.0  0.09095  0.33609  0.29100  1.0000
  H   H226      1.0  0.00411  0.51535  0.24056  1.0000
  H   H227      1.0  0.00986  0.51210  0.47085  1.0000
  C   C218      1.0  0.19171  0.31932  0.00958  1.0000
  C   C219      1.0  0.07833  0.50553  0.45607  1.0000
  H   H228      1.0  0.19613  0.37550  0.25767  1.0000
  C   C220      1.0  0.01327  0.58622  0.41804  1.0000
  C   C221      1.0  0.08383  0.32283  0.29072  1.0000
  C   C222      1.0  0.07992  0.51774  0.40277  1.0000
  H   H229      1.0  0.02549  0.59352  0.42751  1.0000
  C   C223      1.0  0.00770  0.61062  0.40691  1.0000
  H   H230      1.0  0.16182  0.34589  0.46779  1.0000
  H   H231      1.0  0.10941  0.54375  0.40226  1.0000
  C   C224      1.0  0.17832  0.31804  0.06215  1.0000
  H   H232      1.0  0.08660  0.55073  0.41838  1.0000
  C   C225      1.0  0.99393  0.38516  0.09023  1.0000
  C   C226      1.0  0.97955  0.57735  0.39885  1.0000
  H   H233      1.0  0.11655  0.53199  0.42882  1.0000
  H   H234      1.0  0.19363  0.39815  0.22869  1.0000
  H   H235      1.0  0.99873  0.60767  0.42726  1.0000
  H   H236      1.0  0.00417  0.61774  0.38841  1.0000
  H   H237      1.0  0.18884  0.32882  0.14046  1.0000
  H   H238      1.0  0.98017  0.57976  0.42484  1.0000
  N   N14       1.0  0.05589  0.53875  0.19361  1.0000
  C   C227      1.0  0.06650  0.52983  0.20064  1.0000
  C   C228      1.0  0.04841  0.53271  0.16142  1.0000
  C   C229      1.0  0.06589  0.55688  0.19027  1.0000
  C   C230      1.0  0.04404  0.53597  0.22073  1.0000
  C   C231      1.0  0.02751  0.52565  0.21742  1.0000
  H   H239      1.0  0.07346  0.53462  0.22322  1.0000
  H   H240      1.0  0.05946  0.51621  0.20405  1.0000
  H   H241      1.0  0.07525  0.53099  0.18026  1.0000
  H   H242      1.0  0.04228  0.51884  0.16040  1.0000
  H   H243      1.0  0.05752  0.53585  0.14120  1.0000
  H   H244      1.0  0.03972  0.53840  0.15532  1.0000
  H   H245      1.0  0.07378  0.56211  0.21146  1.0000
  H   H246      1.0  0.07412  0.55935  0.16857  1.0000
  H   H247      1.0  0.05824  0.56421  0.18750  1.0000
  H   H248      1.0  0.02270  0.51906  0.19500  1.0000
  N   N15       1.0  0.06450  0.36272  0.26052  1.0000
  C   C232      1.0  0.07320  0.36510  0.29170  1.0000
  H   H249      1.0  0.06145  0.55047  0.25707  1.0000
  C   C233      1.0  0.07618  0.36590  0.23300  1.0000
  C   C234      1.0  0.05645  0.37466  0.25889  1.0000
  C   C235      1.0  0.03986  0.36959  0.25217  1.0000
  C   C236      1.0  0.06539  0.39209  0.26300  1.0000
  C   C237      1.0  0.03282  0.38135  0.24970  1.0000
  C   C238      1.0  0.05819  0.40368  0.26082  1.0000
  C   C239      1.0  0.04199  0.39836  0.25387  1.0000
  C   C240      1.0  0.01664  0.52332  0.24356  1.0000
  C   C241      1.0  0.97282  0.52596  0.39766  1.0000
  H   H250      1.0  0.06506  0.36421  0.31301  1.0000
  H   H251      1.0  0.00424  0.38435  0.07764  1.0000
  H   H252      1.0  0.04732  0.34180  0.23444  1.0000
  H   H253      1.0  0.08176  0.35649  0.23182  1.0000
  H   H254      1.0  0.07036  0.36543  0.20917  1.0000
  H   H255      1.0  0.08614  0.37839  0.23505  1.0000
  H   H256      1.0  0.99203  0.47956  0.44655  1.0000
  C   C242      1.0  0.99624  0.49009  0.29662  1.0000
  C   C243      1.0  0.10027  0.53639  0.48274  1.0000
  C   C244      1.0  0.20448  0.37713  0.14972  1.0000
  H   H257      1.0  0.03664  0.40752  0.25140  1.0000
  N   N16       1.0  0.01163  0.40331  0.13401  1.0000
  C   C245      1.0  0.01864  0.39104  0.14251  1.0000
  C   C246      1.0  0.02242  0.41518  0.10988  1.0000
  C   C247      1.0  0.01134  0.41308  0.16405  1.0000
  C   C248      1.0  0.99558  0.39443  0.11987  1.0000
  H   H258      1.0  0.16765  0.37066  0.18983  1.0000
  H   H259      1.0  0.02020  0.37728  0.24435  1.0000
  H   H260      1.0  0.12247  0.32978  0.10766  1.0000
  H   H261      1.0  0.97963  0.49921  0.43091  1.0000
  H   H262      1.0  0.99147  0.52382  0.49216  1.0000
  H   H263      1.0  0.02399  0.58992  0.35604  1.0000
  H   H264      1.0  0.02058  0.38417  0.12072  1.0000
  H   H265      1.0  0.03060  0.39732  0.15400  1.0000
  H   H266      1.0  0.02482  0.40879  0.08786  1.0000
  H   H267      1.0  0.03439  0.42264  0.12033  1.0000
  H   H268      1.0  0.01721  0.42413  0.10159  1.0000
  H   H269      1.0  0.00401  0.40494  0.18393  1.0000
  H   H270      1.0  0.02355  0.41967  0.17393  1.0000
  H   H271      1.0  0.00661  0.42291  0.15918  1.0000
  H   H272      1.0  0.12713  0.62308  0.02485  1.0000
  H   H273      1.0  0.05537  0.47651  0.40144  1.0000
  H   H274      1.0  0.07735  0.54519  0.45801  1.0000
  C   C249      1.0  0.20235  0.35245  0.11818  1.0000
  S   S65       1.0  0.20976  0.40295  0.05516  1.0000
  H   H275      1.0  0.97508  0.56660  0.30643  1.0000
  H   H276      1.0  0.20174  0.40782  0.31511  1.0000
  H   H277      1.0  0.97286  0.46802  0.18635  1.0000
  N   N17       1.0  0.00889  0.59536  0.39220  1.0000
  C   C250      1.0  0.18979  0.34955  0.17177  1.0000
  H   H278      1.0  0.05478  0.52193  0.48629  1.0000
  C   C251      1.0  0.06952  0.50225  0.39062  1.0000
  H   H279      1.0  0.13616  0.32867  0.33781  1.0000
  H   H280      1.0  0.08116  0.50586  0.48161  1.0000
  H   H281      1.0  0.08159  0.32107  0.34322  1.0000
  H   H282      1.0  0.11633  0.32630  0.29445  1.0000
  C   C252      1.0  0.12206  0.63248  0.02823  1.0000
  S   S66       1.0  0.08538  0.32469  0.22356  1.0000
  C   C253      1.0  0.19704  0.39307  0.20579  1.0000
  C   C254      1.0  0.98472  0.47340  0.24874  1.0000
  H   H283      1.0  0.08413  0.52807  0.38592  1.0000
  C   C255      1.0  0.14334  0.31907  0.13453  1.0000
  C   C256      1.0  0.96947  0.45890  0.45479  1.0000
  H   H284      1.0  0.19273  0.34099  0.03753  1.0000
  H   H285      1.0  0.17558  0.32439  0.08296  1.0000
  C   C257      1.0  0.05336  0.34486  0.25843  1.0000
  H   H286      1.0  0.01344  0.52908  0.29392  1.0000
  H   H287      1.0  0.19177  0.39741  0.18530  1.0000
  H   H288      1.0  0.18278  0.34120  0.19060  1.0000
  H   H289      1.0  0.05984  0.33626  0.26047  1.0000
  H   H290      1.0  0.09785  0.61486  0.02117  1.0000
  C   C258      1.0  0.20801  0.36978  0.12149  1.0000
  C   C259      1.0  0.19848  0.36984  0.23444  1.0000
  H   H291      1.0  0.06303  0.47938  0.45961  1.0000
  C   C260      1.0  0.08478  0.51984  0.43583  1.0000
  C   C261      1.0  0.15791  0.34893  0.49223  1.0000
  H   H292      1.0  0.17017  0.37368  0.23329  1.0000
  H   H293      1.0  0.00089  0.58535  0.32663  1.0000
  H   H294      1.0  0.00505  0.58350  0.43960  1.0000
  H   H295      1.0  0.09132  0.62262  0.44940  1.0000
  C   C262      1.0  0.08893  0.54894  0.44428  1.0000
  C   C263      1.0  0.97908  0.47540  0.44650  1.0000
  H   H296      1.0  0.08346  0.37741  0.29325  1.0000
  H   H297      1.0  0.04419  0.34159  0.27847  1.0000
  C   C264      1.0  0.10553  0.62778  0.02645  1.0000
  H   H298      1.0  0.06535  0.41694  0.26371  1.0000
  C   C265      1.0  0.99708  0.47954  0.27122  1.0000
  H   H299      1.0  0.06635  0.54001  0.02784  1.0000
  H   H300      1.0  0.01071  0.38165  0.15999  1.0000
  H   H301      1.0  0.98236  0.50275  0.31944  1.0000
  H   H302      1.0  0.00584  0.49474  0.31403  1.0000
  H   H303      1.0  0.14840  0.32840  0.11477  1.0000
  H   H304      1.0  0.07817  0.39699  0.26712  1.0000
  C   C266      1.0  0.17358  0.36797  0.21126  1.0000
  C   C267      1.0  0.05886  0.52988  0.04325  1.0000
  H   H305      1.0  0.02038  0.60872  0.34860  1.0000
  C   C268      1.0  0.02230  0.60082  0.36780  1.0000
  H   H306      1.0  0.07845  0.35555  0.29472  1.0000
  H   H307      1.0  0.00734  0.47598  0.26902  1.0000
  H   H308      1.0  0.03395  0.60857  0.37926  1.0000
  H   H309      1.0  0.06617  0.50093  0.36513  1.0000
  H   H310      1.0  0.19361  0.35610  0.23825  1.0000
  C   C269      1.0  0.06780  0.49013  0.44371  1.0000
  H   H311      1.0  0.18429  0.34071  0.49715  1.0000
  H   H312      1.0  0.10608  0.52742  0.48720  1.0000
  H   H313      1.0  0.98519  0.42420  0.06506  1.0000
  H   H314      1.0  0.16823  0.35426  0.21516  1.0000
  C   C270      1.0  0.09891  0.63979  0.03024  1.0000
  H   H315      1.0  0.20492  0.34691  0.09593  1.0000
  Fe  Fe30      1.0  0.21671  0.39120  0.01040  1.0000
  H   H316      1.0  0.16409  0.36277  0.49563  1.0000
  H   H317      1.0  0.21034  0.39900  0.20365  1.0000
  C   C271      1.0  0.97636  0.56994  0.33218  1.0000
  H   H318      1.0  0.20895  0.39063  0.15002  1.0000
  C   C272      1.0  0.06345  0.48848  0.41104  1.0000
  H   H319      1.0  0.10878  0.54896  0.49097  1.0000
  S   S67       1.0  0.21632  0.39827  0.36881  1.0000
  H   H320      1.0  0.12031  0.55365  0.43754  1.0000
  H   H321      1.0  0.97990  0.49999  0.01452  1.0000
  H   H322      1.0  0.02401  0.50846  0.49632  1.0000
  H   H323      1.0  0.14546  0.32616  0.15806  1.0000
  Fe  Fe31      1.0  0.20887  0.38937  0.49092  1.0000
  C   C273      1.0  0.19327  0.34233  0.14328  1.0000
  C   C274      1.0  0.98127  0.39465  0.13468  1.0000
  H   H324      1.0  0.14488  0.34635  0.49203  1.0000
  S   S68       1.0  0.21276  0.33450  0.46567  1.0000
  H   H325      1.0  0.14865  0.32423  0.30806  1.0000
  H   H326      1.0  0.21483  0.37762  0.10159  1.0000
  H   H327      1.0  0.12948  0.32255  0.26591  1.0000
  H   H328      1.0  0.13892  0.32000  0.47313  1.0000
  C   C275      1.0  0.13841  0.31822  0.32529  1.0000
  C   C276      1.0  0.97116  0.47784  0.25070  1.0000
  H   H329      1.0  0.11489  0.64836  0.46334  1.0000
  C   C277      1.0  0.10385  0.64938  0.45634  1.0000
  C   C278      1.0  0.01740  0.51674  0.49283  1.0000
  H   H330      1.0  0.02648  0.52942  0.48720  1.0000
  H   H331      1.0  0.08608  0.63610  0.02789  1.0000
  S   S69       1.0  0.03346  0.52736  0.00342  1.0000
  H   H332      1.0  0.97567  0.45098  0.46122  1.0000
  H   H333      1.0  0.97159  0.48819  0.18963  1.0000
  C   C279      1.0  0.97212  0.48651  0.43780  1.0000
  C   C280      1.0  0.13204  0.64927  0.03339  1.0000
  C   C281      1.0  0.97070  0.48869  0.27693  1.0000
  H   H334      1.0  0.00065  0.50548  0.00482  1.0000
  C   C282      1.0  0.20570  0.32335  0.50223  1.0000
  Fe  Fe32      1.0  0.03084  0.56177  0.91310  1.0000
  S   S70       1.0  0.05453  0.57592  0.88817  1.0000
  S   S71       1.0  0.00710  0.56188  0.89712  1.0000
  Fe  Fe33      1.0  0.04510  0.54692  0.96413  1.0000
  S   S72       1.0  0.07005  0.55950  0.94291  1.0000
  N   N18       1.0  0.98591  0.50439  0.96335  1.0000
  Fe  Fe34      1.0  0.06450  0.58280  0.93865  1.0000
  S   S73       1.0  0.08568  0.60791  0.94789  1.0000
  Fe  Fe35      1.0  0.05866  0.55215  0.89368  1.0000
  S   S74       1.0  0.07070  0.54320  0.85225  1.0000
  S   S75       1.0  0.04021  0.57055  0.96345  1.0000
  S   S76       1.0  0.03432  0.53767  0.91495  1.0000
  Fe  Fe36      1.0  0.12116  0.38387  0.70890  1.0000
  S   S77       1.0  0.12639  0.36375  0.68060  1.0000
  S   S78       1.0  0.10454  0.39341  0.68148  1.0000
  Fe  Fe37      1.0  0.14062  0.38114  0.76701  1.0000
  S   S79       1.0  0.14702  0.36121  0.74292  1.0000
  S   S80       1.0  0.14694  0.38763  0.82028  1.0000
  Fe  Fe38      1.0  0.15159  0.37660  0.69761  1.0000
  S   S81       1.0  0.17360  0.37631  0.67011  1.0000
  Fe  Fe39      1.0  0.12146  0.34977  0.72771  1.0000
  H   H335      1.0  0.11765  0.33016  0.64727  1.0000
  S   S82       1.0  0.14710  0.39785  0.72286  1.0000
  S   S83       1.0  0.11432  0.36860  0.75497  1.0000
  Fe  Fe40      1.0  0.02418  0.44730  0.66386  1.0000
  S   S84       1.0  0.04625  0.44867  0.63582  1.0000
  S   S85       1.0  0.00064  0.42487  0.66576  1.0000
  Fe  Fe41      1.0  0.04124  0.48149  0.69714  1.0000
  S   S86       1.0  0.06468  0.48584  0.67090  1.0000
  S   S87       1.0  0.03330  0.49640  0.73504  1.0000
  Fe  Fe42      1.0  0.04937  0.47544  0.62644  1.0000
  S   S88       1.0  0.05271  0.48297  0.57296  1.0000
  Fe  Fe43      1.0  0.05967  0.45872  0.68208  1.0000
  S   S89       1.0  0.07714  0.45057  0.70976  1.0000
  S   S90       1.0  0.02638  0.47315  0.65188  1.0000
  S   S91       1.0  0.03719  0.45531  0.71093  1.0000
  C   C283      1.0  0.99004  0.52271  0.96648  1.0000
  C   C284      1.0  0.03304  0.40419  0.64890  1.0000
  H   H336      1.0  0.08624  0.52051  0.89864  1.0000
  C   C285      1.0  0.16508  0.38847  0.83739  1.0000
  C   C286      1.0  0.16647  0.38884  0.87155  1.0000
  C   C287      1.0  0.18080  0.38984  0.88606  1.0000
  C   C288      1.0  0.19403  0.39085  0.86648  1.0000
  C   C289      1.0  0.19258  0.39033  0.83233  1.0000
  C   C290      1.0  0.17813  0.38894  0.81783  1.0000
  H   H337      1.0  0.15648  0.38856  0.88692  1.0000
  H   H338      1.0  0.18179  0.39036  0.91236  1.0000
  H   H339      1.0  0.10659  0.35181  0.86455  1.0000
  H   H340      1.0  0.17724  0.38870  0.79153  1.0000
  C   C291      1.0  0.18514  0.38881  0.56195  1.0000
  C   C292      1.0  0.17240  0.39168  0.57745  1.0000
  C   C293      1.0  0.16832  0.38733  0.61030  1.0000
  C   C294      1.0  0.17719  0.38038  0.62802  1.0000
  C   C295      1.0  0.18974  0.37722  0.61234  1.0000
  C   C296      1.0  0.19362  0.38127  0.57932  1.0000
  H   H341      1.0  0.16573  0.39744  0.56408  1.0000
  H   H342      1.0  0.15866  0.38985  0.62220  1.0000
  H   H343      1.0  0.19667  0.37187  0.62597  1.0000
  H   H344      1.0  0.04594  0.42219  0.70181  1.0000
  C   C297      1.0  0.08504  0.43497  0.70080  1.0000
  C   C298      1.0  0.09472  0.43177  0.72399  1.0000
  C   C299      1.0  0.10105  0.41937  0.71830  1.0000
  C   C300      1.0  0.09774  0.40994  0.68930  1.0000
  C   C301      1.0  0.08810  0.41320  0.66607  1.0000
  C   C302      1.0  0.08182  0.42564  0.67170  1.0000
  H   H345      1.0  0.09738  0.43893  0.74654  1.0000
  H   H346      1.0  0.10841  0.41702  0.73642  1.0000
  H   H347      1.0  0.08543  0.40597  0.64358  1.0000
  H   H348      1.0  0.07460  0.42808  0.65343  1.0000
  C   C303      1.0  0.05996  0.53457  0.53293  1.0000
  C   C304      1.0  0.06143  0.53260  0.56649  1.0000
  C   C305      1.0  0.05884  0.51679  0.57931  1.0000
  C   C306      1.0  0.05503  0.50287  0.55851  1.0000
  C   C307      1.0  0.05347  0.50482  0.52496  1.0000
  C   C308      1.0  0.21388  0.42272  0.59909  1.0000
  H   H349      1.0  0.06466  0.54338  0.58269  1.0000
  H   H350      1.0  0.06016  0.51545  0.60516  1.0000
  H   H351      1.0  0.04993  0.35615  0.65830  1.0000
  H   H352      1.0  0.99439  0.48795  0.93586  1.0000
  C   C309      1.0  0.06021  0.52909  0.82105  1.0000
  C   C310      1.0  0.06880  0.52649  0.79391  1.0000
  C   C311      1.0  0.06077  0.51605  0.76776  1.0000
  C   C312      1.0  0.04407  0.50816  0.76861  1.0000
  C   C313      1.0  0.03550  0.51056  0.79596  1.0000
  C   C314      1.0  0.04352  0.52083  0.82224  1.0000
  H   H353      1.0  0.08172  0.53284  0.79287  1.0000
  H   H354      1.0  0.06742  0.51462  0.74645  1.0000
  H   H355      1.0  0.02255  0.50460  0.79671  1.0000
  H   H356      1.0  0.03678  0.52258  0.84313  1.0000
  C   C315      1.0  0.08831  0.62945  0.95104  1.0000
  H   H357      1.0  0.02555  0.41148  0.64384  1.0000
  H   H358      1.0  0.99122  0.52914  0.53516  1.0000
  C   C316      1.0  0.07564  0.63444  0.95878  1.0000
  C   C317      1.0  0.20308  0.42146  0.62488  1.0000
  H   H359      1.0  0.06361  0.62508  0.96146  1.0000
  H   H360      1.0  0.98468  0.43376  0.55618  1.0000
  H   H361      1.0  0.01336  0.51592  0.72964  1.0000
  C   C318      1.0  0.99180  0.43060  0.60461  1.0000
  C   C319      1.0  0.98676  0.42284  0.63474  1.0000
  C   C320      1.0  0.06283  0.38515  0.71896  1.0000
  C   C321      1.0  0.20897  0.33145  0.53263  1.0000
  H   H362      1.0  0.11007  0.51777  0.87259  1.0000
  H   H363      1.0  0.00437  0.43808  0.60014  1.0000
  H   H364      1.0  0.07013  0.36556  0.70174  1.0000
  C   C322      1.0  0.12609  0.32445  0.64061  1.0000
  C   C323      1.0  0.99359  0.54469  0.87509  1.0000
  C   C324      1.0  0.99822  0.53222  0.86169  1.0000
  C   C325      1.0  0.98722  0.51887  0.84374  1.0000
  H   H365      1.0  0.14742  0.35359  0.85071  1.0000
  H   H366      1.0  0.01032  0.53300  0.86455  1.0000
  S   S92       1.0  0.06349  0.55471  0.51807  1.0000
  C   C326      1.0  0.05056  0.36656  0.67410  1.0000
  H   H367      1.0  0.99095  0.50940  0.83300  1.0000
  H   H368      1.0  0.08940  0.32506  0.84640  1.0000
  H   H369      1.0  0.21024  0.42492  0.57530  1.0000
  H   H370      1.0  0.97428  0.55331  0.88066  1.0000
  H   H371      1.0  0.02627  0.53860  0.54417  1.0000
  H   H372      1.0  0.08669  0.33028  0.76200  1.0000
  C   C327      1.0  0.01365  0.38647  0.68746  1.0000
  H   H373      1.0  0.12743  0.36456  0.86442  1.0000
  H   H374      1.0  0.02526  0.41902  0.69979  1.0000
  H   H375      1.0  0.18151  0.33736  0.70363  1.0000
  C   C328      1.0  0.99736  0.50156  0.93988  1.0000
  C   C329      1.0  0.10389  0.64191  0.94799  1.0000
  N   N19       1.0  0.07986  0.48067  0.79229  1.0000
  C   C330      1.0  0.08954  0.49102  0.76505  1.0000
  C   C331      1.0  0.08590  0.46742  0.79927  1.0000
  C   C332      1.0  0.06314  0.47226  0.78086  1.0000
  C   C333      1.0  0.08128  0.49129  0.82178  1.0000
  C   C334      1.0  0.09655  0.50037  0.83540  1.0000
  C   C335      1.0  0.06784  0.49299  0.83775  1.0000
  C   C336      1.0  0.09827  0.51068  0.86294  1.0000
  C   C337      1.0  0.06971  0.50321  0.86547  1.0000
  C   C338      1.0  0.08488  0.51215  0.87785  1.0000
  H   H376      1.0  0.10259  0.49624  0.76995  1.0000
  H   H377      1.0  0.08802  0.48361  0.74190  1.0000
  H   H378      1.0  0.08600  0.50171  0.76035  1.0000
  H   H379      1.0  0.09885  0.47262  0.80509  1.0000
  H   H380      1.0  0.08456  0.45885  0.77789  1.0000
  H   H381      1.0  0.07927  0.45970  0.82031  1.0000
  H   H382      1.0  0.05802  0.48150  0.77373  1.0000
  H   H383      1.0  0.06253  0.46429  0.75891  1.0000
  H   H384      1.0  0.05520  0.46384  0.79973  1.0000
  H   H385      1.0  0.10731  0.49971  0.82462  1.0000
  H   H386      1.0  0.05578  0.48696  0.82892  1.0000
  H   H387      1.0  0.05940  0.50479  0.87674  1.0000
  C   C339      1.0  0.14944  0.31817  0.65446  1.0000
  H   H388      1.0  0.12210  0.32920  0.80484  1.0000
  N   N20       1.0  0.00757  0.51726  0.52192  1.0000
  N   N21       1.0  0.03484  0.56565  0.79031  1.0000
  C   C340      1.0  0.03008  0.57626  0.81383  1.0000
  C   C341      1.0  0.04605  0.55993  0.80739  1.0000
  C   C342      1.0  0.04355  0.57629  0.76262  1.0000
  C   C343      1.0  0.02110  0.55109  0.77767  1.0000
  C   C344      1.0  0.02374  0.53894  0.75716  1.0000
  C   C345      1.0  0.00486  0.54884  0.78404  1.0000
  C   C346      1.0  0.01098  0.52520  0.74466  1.0000
  C   C347      1.0  0.99221  0.53518  0.77093  1.0000
  C   C348      1.0  0.99524  0.52328  0.75167  1.0000
  H   H389      1.0  0.02331  0.56885  0.83512  1.0000
  H   H390      1.0  0.04067  0.58667  0.82404  1.0000
  H   H391      1.0  0.02260  0.58218  0.80228  1.0000
  H   H392      1.0  0.03986  0.55155  0.82798  1.0000
  H   H393      1.0  0.05639  0.57055  0.81771  1.0000
  H   H394      1.0  0.05149  0.55310  0.79109  1.0000
  H   H395      1.0  0.05380  0.58761  0.77115  1.0000
  H   H396      1.0  0.04862  0.56949  0.74529  1.0000
  H   H397      1.0  0.03545  0.58055  0.74863  1.0000
  H   H398      1.0  0.03571  0.53984  0.75075  1.0000
  H   H399      1.0  0.00154  0.55723  0.79961  1.0000
  C   C349      1.0  0.98156  0.45534  0.69874  1.0000
  C   C350      1.0  0.13839  0.32578  0.66184  1.0000
  H   H400      1.0  0.05048  0.49406  0.50878  1.0000
  C   C351      1.0  0.03352  0.41265  0.70493  1.0000
  S   S93       1.0  0.21282  0.39372  0.88340  1.0000
  H   H401      1.0  0.21634  0.34466  0.53404  1.0000
  S   S94       1.0  0.11131  0.32143  0.72883  1.0000
  Fe  Fe44      1.0  0.21660  0.38808  0.93607  1.0000
  C   C352      1.0  0.04130  0.38901  0.68905  1.0000
  H   H402      1.0  0.05481  0.40453  0.73000  1.0000
  C   C353      1.0  0.06184  0.37171  0.69872  1.0000
  H   H403      1.0  0.10886  0.33995  0.81153  1.0000
  H   H404      1.0  0.98497  0.44888  0.67883  1.0000
  H   H405      1.0  0.11381  0.63823  0.94219  1.0000
  C   C354      1.0  0.11044  0.32202  0.86561  1.0000
  H   H406      1.0  0.97036  0.47894  0.77024  1.0000
  C   C355      1.0  0.99681  0.49996  0.53051  1.0000
  H   H407      1.0  0.18559  0.35942  0.51876  1.0000
  C   C356      1.0  0.15622  0.34417  0.55000  1.0000
  H   H408      1.0  0.04580  0.41247  0.64415  1.0000
  H   H409      1.0  0.17714  0.34365  0.66468  1.0000
  H   H410      1.0  0.99861  0.46396  0.56040  1.0000
  S   S95       1.0  0.19911  0.37358  0.97518  1.0000
  H   H411      1.0  0.00533  0.39301  0.68387  1.0000
  H   H412      1.0  0.00745  0.54123  0.50851  1.0000
  C   C357      1.0  0.98063  0.42824  0.57981  1.0000
  H   H413      1.0  0.02686  0.51914  0.55435  1.0000
  H   H414      1.0  0.01154  0.52508  0.57234  1.0000
  H   H415      1.0  0.99852  0.48447  0.75770  1.0000
  C   C358      1.0  0.17966  0.34553  0.51886  1.0000
  C   C359      1.0  0.99895  0.52825  0.51427  1.0000
  C   C360      1.0  0.20631  0.41786  0.65622  1.0000
  C   C361      1.0  0.13904  0.34132  0.86046  1.0000
  C   C362      1.0  0.15466  0.32122  0.51400  1.0000
  C   C363      1.0  0.99340  0.46693  0.71769  1.0000
  N   N22       1.0  0.16158  0.31873  0.67859  1.0000
  H   H416      1.0  0.14291  0.33937  0.55127  1.0000
  C   C364      1.0  0.11851  0.35195  0.87099  1.0000
  H   H417      1.0  0.14141  0.34176  0.88707  1.0000
  N   N23       1.0  0.16192  0.33964  0.51842  1.0000
  N   N24       1.0  0.03064  0.39799  0.68290  1.0000
  H   H418      1.0  0.03141  0.40893  0.73098  1.0000
  H   H419      1.0  0.13903  0.33265  0.68444  1.0000
  H   H420      1.0  0.01604  0.49209  0.54462  1.0000
  C   C365      1.0  0.97792  0.54368  0.87046  1.0000
  H   H421      1.0  0.00208  0.52932  0.97743  1.0000
  H   H422      1.0  0.11873  0.35087  0.89798  1.0000
  H   H423      1.0  0.16080  0.35797  0.55369  1.0000
  S   S96       1.0  0.19000  0.39480  0.52093  1.0000
  H   H424      1.0  0.20273  0.39114  0.81697  1.0000
  H   H425      1.0  0.98535  0.51249  0.74238  1.0000
  H   H426      1.0  0.14252  0.33156  0.84842  1.0000
  H   H427      1.0  0.16470  0.34294  0.69969  1.0000
  H   H428      1.0  0.20521  0.32884  0.58471  1.0000
  Fe  Fe45      1.0  0.21469  0.35888  0.97924  1.0000
  H   H429      1.0  0.07192  0.38933  0.73757  1.0000
  H   H430      1.0  0.20333  0.37884  0.56754  1.0000
  H   H431      1.0  0.19756  0.41622  0.67580  1.0000
  C   C366      1.0  0.00325  0.48855  0.54210  1.0000
  C   C367      1.0  0.04034  0.37497  0.66940  1.0000
  C   C368      1.0  0.05587  0.52059  0.51219  1.0000
  H   H432      1.0  0.02969  0.39391  0.63046  1.0000
  H   H433      1.0  0.97990  0.53353  0.77656  1.0000
  H   H434      1.0  0.01143  0.38119  0.71249  1.0000
  H   H435      1.0  0.18401  0.34162  0.54105  1.0000
  H   H436      1.0  0.03183  0.37055  0.64990  1.0000
  H   H437      1.0  0.16029  0.33909  0.57118  1.0000
  H   H438      1.0  0.19181  0.42268  0.62031  1.0000
  C   C369      1.0  0.97680  0.46667  0.54766  1.0000
  H   H439      1.0  0.00588  0.46930  0.71262  1.0000
  C   C370      1.0  0.01845  0.52531  0.54938  1.0000
  H   H440      1.0  0.12978  0.35165  0.80875  1.0000
  S   S97       1.0  0.20495  0.33058  0.97829  1.0000
  C   C371      1.0  0.05285  0.39382  0.71421  1.0000
  H   H441      1.0  0.00990  0.50727  0.94886  1.0000
  H   H442      1.0  0.01006  0.37582  0.66978  1.0000
  N   N25       1.0  0.12205  0.33842  0.85411  1.0000
  C   C372      1.0  0.17163  0.33637  0.68700  1.0000
  H   H443      1.0  0.99734  0.50716  0.91568  1.0000
  H   H444      1.0  0.97388  0.50135  0.51772  1.0000
  C   C373      1.0  0.99335  0.47225  0.55085  1.0000
  C   C374      1.0  0.98919  0.47539  0.74316  1.0000
  C   C375      1.0  0.97306  0.47209  0.75014  1.0000
  H   H445      1.0  0.98109  0.52543  0.98211  1.0000
  H   H446      1.0  0.99073  0.52882  0.94255  1.0000
  C   C376      1.0  0.97989  0.49378  0.52697  1.0000
  C   C377      1.0  0.12061  0.33980  0.81836  1.0000
  C   C378      1.0  0.20270  0.32244  0.56131  1.0000
  C   C379      1.0  0.97045  0.41300  0.64011  1.0000
  H   H447      1.0  0.97307  0.51145  0.90836  1.0000
  C   C380      1.0  0.97154  0.51789  0.83910  1.0000
  C   C381      1.0  0.98831  0.49839  0.99577  1.0000
  H   H448      1.0  0.98687  0.48504  0.99474  1.0000
  C   C382      1.0  0.97010  0.47737  0.53552  1.0000
  C   C383      1.0  0.96938  0.49578  0.95117  1.0000
  H   H449      1.0  0.96915  0.45402  0.55468  1.0000
  Fe  Fe46      1.0  0.15812  0.91484  0.34625  1.0000
  S   S98       1.0  0.15511  0.89456  0.38255  1.0000
  S   S99       1.0  0.18031  0.93896  0.35551  1.0000
  Fe  Fe47      1.0  0.12864  0.89139  0.30845  1.0000
  S   S100      1.0  0.12331  0.87013  0.34316  1.0000
  S   S101      1.0  0.11381  0.88944  0.26335  1.0000
  Fe  Fe48      1.0  0.12890  0.88972  0.38277  1.0000
  S   S102      1.0  0.11791  0.88832  0.43365  1.0000
  Fe  Fe49      1.0  0.14989  0.87675  0.34000  1.0000
  S   S103      1.0  0.15680  0.85432  0.33599  1.0000
  S   S104      1.0  0.13200  0.91080  0.34840  1.0000
  S   S105      1.0  0.15508  0.89709  0.30322  1.0000
  Fe  Fe50      1.0  0.05834  0.82087  0.06628  1.0000
  S   S106      1.0  0.07722  0.81281  0.08590  1.0000
  H   H450      1.0  0.09516  0.80107  0.47183  1.0000
  Fe  Fe51      1.0  0.03194  0.79948  0.11437  1.0000
  S   S107      1.0  0.04916  0.78991  0.13655  1.0000
  S   S108      1.0  0.00757  0.79106  0.14155  1.0000
  Fe  Fe52      1.0  0.06752  0.81621  0.13546  1.0000
  S   S109      1.0  0.08247  0.82177  0.18150  1.0000
  Fe  Fe53      1.0  0.05747  0.78732  0.08566  1.0000
  S   S110      1.0  0.06049  0.76331  0.07195  1.0000
  S   S111      1.0  0.04992  0.82628  0.11607  1.0000
  S   S112      1.0  0.03895  0.79491  0.06315  1.0000
  Fe  Fe54      1.0  0.12696  0.71179  0.46984  1.0000
  S   S113      1.0  0.12681  0.72910  0.42919  1.0000
  H   H451      1.0  0.15587  0.76435  0.10416  1.0000
  H   H452      1.0  0.13931  0.84917  0.15229  1.0000
  Fe  Fe55      1.0  0.21058  0.80702  0.17097  1.0000
  S   S114      1.0  0.16592  0.73437  0.04119  1.0000
  Fe  Fe56      1.0  0.11660  0.74111  0.46797  1.0000
  H   H453      1.0  0.11935  0.74854  0.11468  1.0000
  Fe  Fe57      1.0  0.15086  0.74650  0.44765  1.0000
  S   S115      1.0  0.17237  0.76632  0.42215  1.0000
  C   C384      1.0  0.16435  0.95859  0.44529  1.0000
  H   H454      1.0  0.13815  0.86728  0.25820  1.0000
  C   C385      1.0  0.15867  0.97177  0.44580  1.0000
  C   C386      1.0  0.09440  0.75305  0.02001  1.0000
  H   H455      1.0  0.18438  0.83831  0.19908  1.0000
  S   S116      1.0  0.19471  0.80916  0.21231  1.0000
  C   C387      1.0  0.17674  0.76795  0.37964  1.0000
  C   C388      1.0  0.18922  0.78239  0.36787  1.0000
  H   H456      1.0  0.14390  0.79239  0.15484  1.0000
  H   H457      1.0  0.10435  0.87885  0.49786  1.0000
  C   C389      1.0  0.17184  0.75738  0.32389  1.0000
  C   C390      1.0  0.16795  0.75551  0.35747  1.0000
  C   C391      1.0  0.18441  0.77175  0.31210  1.0000
  C   C392      1.0  0.12542  0.75456  0.09163  1.0000
  H   H458      1.0  0.16520  0.74755  0.30692  1.0000
  H   H459      1.0  0.15835  0.74431  0.36617  1.0000
  C   C393      1.0  0.17607  0.75352  0.06241  1.0000
  C   C394      1.0  0.18227  0.75337  0.09351  1.0000
  S   S117      1.0  0.09786  0.75150  0.45806  1.0000
  C   C395      1.0  0.19135  0.78371  0.09816  1.0000
  C   C396      1.0  0.18535  0.78385  0.06687  1.0000
  C   C397      1.0  0.17775  0.76886  0.04911  1.0000
  H   H460      1.0  0.13450  0.94492  0.47438  1.0000
  H   H461      1.0  0.18658  0.79564  0.05633  1.0000
  H   H462      1.0  0.17329  0.76922  0.02504  1.0000
  C   C398      1.0  0.08873  0.66637  0.44610  1.0000
  C   C399      1.0  0.10315  0.66534  0.45525  1.0000
  H   H463      1.0  0.08794  0.67849  0.44499  1.0000
  C   C400      1.0  0.98759  0.77827  0.12962  1.0000
  C   C401      1.0  0.98375  0.77272  0.09744  1.0000
  S   S118      1.0  0.21422  0.85720  0.24151  1.0000
  H   H464      1.0  0.99302  0.77641  0.07870  1.0000
  H   H465      1.0  0.97793  0.77774  0.17841  1.0000
  C   C402      1.0  0.07695  0.76539  0.04602  1.0000
  C   C403      1.0  0.08104  0.75152  0.03993  1.0000
  C   C404      1.0  0.14716  0.83300  0.43848  1.0000
  H   H466      1.0  0.12405  0.83223  0.36035  1.0000
  H   H467      1.0  0.20942  0.96702  0.36999  1.0000
  C   C405      1.0  0.08620  0.78075  0.03184  1.0000
  H   H468      1.0  0.07390  0.73959  0.05072  1.0000
  H   H469      1.0  0.15720  0.83022  0.42932  1.0000
  H   H470      1.0  0.12973  0.86077  0.42712  1.0000
  H   H471      1.0  0.08300  0.79144  0.03589  1.0000
  C   C406      1.0  0.19861  0.85638  0.26874  1.0000
  C   C407      1.0  0.18810  0.84116  0.28154  1.0000
  C   C408      1.0  0.17542  0.84073  0.30244  1.0000
  C   C409      1.0  0.17308  0.85546  0.31039  1.0000
  C   C410      1.0  0.18358  0.87069  0.29756  1.0000
  C   C411      1.0  0.19639  0.87116  0.27695  1.0000
  H   H472      1.0  0.18973  0.82972  0.27530  1.0000
  H   H473      1.0  0.16733  0.82891  0.31223  1.0000
  H   H474      1.0  0.18193  0.88213  0.30377  1.0000
  C   C412      1.0  0.10421  0.87038  0.24173  1.0000
  C   C413      1.0  0.09714  0.87051  0.21160  1.0000
  C   C414      1.0  0.09004  0.85567  0.19309  1.0000
  C   C415      1.0  0.09010  0.84060  0.20455  1.0000
  C   C416      1.0  0.09695  0.84044  0.23488  1.0000
  C   C417      1.0  0.10388  0.85522  0.25350  1.0000
  H   H475      1.0  0.09729  0.88219  0.20237  1.0000
  H   H476      1.0  0.08484  0.85597  0.16973  1.0000
  H   H477      1.0  0.09696  0.82880  0.24399  1.0000
  H   H478      1.0  0.10906  0.85489  0.27684  1.0000
  C   C418      1.0  0.10202  0.87011  0.44786  1.0000
  C   C419      1.0  0.98381  0.73413  0.11297  1.0000
  H   H479      1.0  0.15067  0.93998  0.39269  1.0000
  C   C420      1.0  0.07668  0.84139  0.47213  1.0000
  C   C421      1.0  0.08090  0.84271  0.43876  1.0000
  C   C422      1.0  0.09357  0.85694  0.42667  1.0000
  S   S119      1.0  0.06188  0.83749  0.02220  1.0000
  H   H480      1.0  0.09436  0.83973  0.03434  1.0000
  H   H481      1.0  0.07425  0.83270  0.42213  1.0000
  H   H482      1.0  0.09663  0.85783  0.40092  1.0000
  C   C423      1.0  0.20033  0.97199  0.36617  1.0000
  C   C424      1.0  0.18467  0.96095  0.35830  1.0000
  C   C425      1.0  0.17311  0.96767  0.35324  1.0000
  H   H483      1.0  0.11198  0.84428  0.47033  1.0000
  H   H484      1.0  0.16109  0.95949  0.34666  1.0000
  N   N26       1.0  0.00986  0.74082  0.08029  1.0000
  C   C426      1.0  0.01687  0.72798  0.07600  1.0000
  C   C427      1.0  0.01400  0.75162  0.05106  1.0000
  C   C428      1.0  0.01770  0.75156  0.10866  1.0000
  C   C429      1.0  0.99222  0.73251  0.08416  1.0000
  C   C430      1.0  0.98289  0.72234  0.05858  1.0000
  H   H485      1.0  0.13370  0.92406  0.47479  1.0000
  H   H486      1.0  0.20450  0.88297  0.26707  1.0000
  C   C431      1.0  0.09787  0.86875  0.48128  1.0000
  H   H487      1.0  0.06433  0.65271  0.43091  1.0000
  H   H488      1.0  0.01273  0.72034  0.05344  1.0000
  H   H489      1.0  0.03022  0.73381  0.07399  1.0000
  H   H490      1.0  0.20418  0.78216  0.45812  1.0000
  C   C432      1.0  0.14804  0.68479  0.01217  1.0000
  H   H491      1.0  0.02724  0.75832  0.04796  1.0000
  H   H492      1.0  0.00864  0.76123  0.05296  1.0000
  H   H493      1.0  0.03091  0.75763  0.10490  1.0000
  H   H494      1.0  0.01333  0.76185  0.11268  1.0000
  H   H495      1.0  0.01577  0.74422  0.13143  1.0000
  H   H496      1.0  0.14915  0.94039  0.49681  1.0000
  N   N27       1.0  0.15287  0.94090  0.44477  1.0000
  H   H497      1.0  0.09834  0.81904  0.39065  1.0000
  C   C433      1.0  0.18127  0.96330  0.44480  1.0000
  H   H498      1.0  0.17310  0.82581  0.14593  1.0000
  N   N28       1.0  0.03520  0.83042  0.21430  1.0000
  C   C434      1.0  0.02184  0.81984  0.23575  1.0000
  C   C435      1.0  0.02804  0.83578  0.18661  1.0000
  C   C436      1.0  0.04361  0.82003  0.20055  1.0000
  C   C437      1.0  0.04663  0.84454  0.23333  1.0000
  C   C438      1.0  0.05061  0.86160  0.22527  1.0000
  C   C439      1.0  0.05450  0.84140  0.26047  1.0000
  C   C440      1.0  0.06181  0.87458  0.24330  1.0000
  C   C441      1.0  0.06566  0.85447  0.27831  1.0000
  C   C442      1.0  0.06931  0.87102  0.26973  1.0000
  H   H499      1.0  0.01557  0.82735  0.24758  1.0000
  H   H500      1.0  0.01280  0.80940  0.22172  1.0000
  H   H501      1.0  0.02599  0.81391  0.25540  1.0000
  H   H502      1.0  0.02104  0.84324  0.19518  1.0000
  H   H503      1.0  0.01961  0.82485  0.17264  1.0000
  H   H504      1.0  0.03738  0.84324  0.16867  1.0000
  H   H505      1.0  0.04816  0.81412  0.21959  1.0000
  H   H506      1.0  0.03567  0.80966  0.18476  1.0000
  H   H507      1.0  0.05419  0.82780  0.18561  1.0000
  H   H508      1.0  0.04546  0.86530  0.20485  1.0000
  H   H509      1.0  0.05235  0.82878  0.26768  1.0000
  H   H510      1.0  0.06499  0.88750  0.23638  1.0000
  H   H511      1.0  0.07186  0.85180  0.29840  1.0000
  H   H512      1.0  0.07834  0.88111  0.28304  1.0000
  H   H513      1.0  0.13361  0.87928  0.20869  1.0000
  H   H514      1.0  0.14478  0.65231  0.03425  1.0000
  H   H515      1.0  0.13276  0.78038  0.04981  1.0000
  H   H516      1.0  0.00983  0.74446  0.02803  1.0000
  C   C443      1.0  0.13174  0.85026  0.43717  1.0000
  C   C444      1.0  0.14589  0.68201  0.07071  1.0000
  H   H517      1.0  0.15170  0.91548  0.44404  1.0000
  C   C445      1.0  0.11288  0.78119  0.10130  1.0000
  C   C446      1.0  0.12573  0.66193  0.03645  1.0000
  H   H518      1.0  0.13206  0.74704  0.08127  1.0000
  C   C447      1.0  0.13735  0.87017  0.19473  1.0000
  H   H519      1.0  0.12625  0.85874  0.19139  1.0000
  H   H520      1.0  0.10834  0.77568  0.40714  1.0000
  H   H521      1.0  0.15186  0.85710  0.25970  1.0000
  H   H522      1.0  0.13285  0.84669  0.24065  1.0000
  H   H523      1.0  0.17237  0.88149  0.23483  1.0000
  H   H524      1.0  0.07283  0.76388  0.46894  1.0000
  C   C448      1.0  0.07532  0.65168  0.43809  1.0000
  C   C449      1.0  0.14249  0.78018  0.06569  1.0000
  H   H525      1.0  0.11601  0.75329  0.07363  1.0000
  C   C450      1.0  0.15541  0.83688  0.14653  1.0000
  H   H526      1.0  0.98971  0.74186  0.13354  1.0000
  C   C451      1.0  0.13118  0.81143  0.36651  1.0000
  C   C452      1.0  0.16339  0.88269  0.21808  1.0000
  S   S120      1.0  0.12465  0.72826  0.01052  1.0000
  H   H527      1.0  0.17353  0.85609  0.22944  1.0000
  C   C453      1.0  0.10414  0.78954  0.11677  1.0000
  C   C454      1.0  0.20546  0.79113  0.47884  1.0000
  H   H528      1.0  0.14876  0.77328  0.05173  1.0000
  H   H529      1.0  0.15395  0.69540  0.07465  1.0000
  H   H530      1.0  0.98845  0.72040  0.03609  1.0000
  C   C455      1.0  0.16810  0.83368  0.15925  1.0000
  S   S121      1.0  0.14034  0.75959  0.48327  1.0000
  H   H531      1.0  0.11965  0.68864  0.06331  1.0000
  C   C456      1.0  0.14298  0.93767  0.41517  1.0000
  C   C457      1.0  0.14212  0.93747  0.47397  1.0000
  N   N29       1.0  0.14983  0.86647  0.21208  1.0000
  C   C458      1.0  0.16069  0.92864  0.44441  1.0000
  H   H532      1.0  0.13773  0.67795  0.09240  1.0000
  C   C459      1.0  0.12817  0.69138  0.04216  1.0000
  C   C460      1.0  0.14915  0.84727  0.16350  1.0000
  C   C461      1.0  0.14457  0.84650  0.42568  1.0000
  H   H533      1.0  0.12148  0.69079  0.01940  1.0000
  C   C462      1.0  0.15003  0.77213  0.11644  1.0000
  H   H534      1.0  0.15114  0.79334  0.06895  1.0000
  H   H535      1.0  0.15963  0.78487  0.11901  1.0000
  H   H536      1.0  0.18111  0.74159  0.10400  1.0000
  H   H537      1.0  0.15619  0.67796  0.01092  1.0000
  C   C463      1.0  0.13697  0.82322  0.46299  1.0000
  H   H538      1.0  0.14621  0.76676  0.14115  1.0000
  N   N30       1.0  0.13625  0.77228  0.09758  1.0000
  C   C464      1.0  0.18981  0.76838  0.11141  1.0000
  H   H539      1.0  0.13107  0.77777  0.32761  1.0000
  H   H540      1.0  0.16841  0.92997  0.42216  1.0000
  H   H541      1.0  0.13668  0.70462  0.04515  1.0000
  H   H542      1.0  0.20269  0.79544  0.32547  1.0000
  H   H543      1.0  0.10818  0.77452  0.07890  1.0000
  S   S122      1.0  0.12064  0.68339  0.46542  1.0000
  H   H544      1.0  0.14233  0.81786  0.35336  1.0000
  H   H545      1.0  0.16298  0.79129  0.39011  1.0000
  C   C465      1.0  0.14290  0.85905  0.24398  1.0000
  C   C466      1.0  0.12737  0.78146  0.11436  1.0000
  H   H546      1.0  0.15042  0.83132  0.12330  1.0000
  H   H547      1.0  0.15590  0.69838  0.01338  1.0000
  C   C467      1.0  0.17445  0.84070  0.18917  1.0000
  H   H548      1.0  0.19924  0.79928  0.47126  1.0000
  Fe  Fe58      1.0  0.20648  0.79565  0.24190  1.0000
  H   H549      1.0  0.15051  0.77816  0.33734  1.0000
  H   H550      1.0  0.15206  0.79903  0.41849  1.0000
  H   H551      1.0  0.14194  0.76407  0.38773  1.0000
  H   H552      1.0  0.19438  0.76809  0.13546  1.0000
  H   H553      1.0  0.13077  0.77051  0.41752  1.0000
  C   C468      1.0  0.15410  0.79726  0.39206  1.0000
  C   C469      1.0  0.13302  0.77000  0.39077  1.0000
  H   H554      1.0  0.01370  0.71932  0.09706  1.0000
  H   H555      1.0  0.14600  0.96920  0.44576  1.0000
  H   H556      1.0  0.12179  0.76130  0.37924  1.0000
  C   C470      1.0  0.13285  0.79112  0.14337  1.0000
  C   C471      1.0  0.14230  0.78495  0.34090  1.0000
  H   H557      1.0  0.15997  0.80980  0.38082  1.0000
  N   N31       1.0  0.13888  0.78690  0.37601  1.0000
  C   C472      1.0  0.12076  0.81981  0.37038  1.0000
  S   S123      1.0  0.06068  0.82321  0.48608  1.0000
  N   N32       1.0  0.13664  0.67972  0.04033  1.0000
  H   H558      1.0  0.16809  0.93003  0.46640  1.0000
  H   H559      1.0  0.18678  0.95427  0.44327  1.0000
  C   C473      1.0  0.97519  0.77352  0.15345  1.0000
  C   C474      1.0  0.10967  0.79867  0.14539  1.0000
  C   C475      1.0  0.12402  0.79950  0.15861  1.0000
  H   H560      1.0  0.10282  0.80511  0.15730  1.0000
  C   C476      1.0  0.12739  0.79528  0.37965  1.0000
  H   H561      1.0  0.13413  0.92448  0.41417  1.0000
  H   H562      1.0  0.19608  0.79210  0.38482  1.0000
  S   S124      1.0  0.19991  0.80293  0.11998  1.0000
  H   H563      1.0  0.15248  0.85405  0.40670  1.0000
  H   H564      1.0  0.09295  0.78887  0.10648  1.0000
  H   H565      1.0  0.14830  0.79716  0.32854  1.0000
  C   C477      1.0  0.19298  0.78435  0.33424  1.0000
  H   H566      1.0  0.12831  0.80671  0.18084  1.0000
  H   H567      1.0  0.15926  0.89209  0.22978  1.0000
  C   C478      1.0  0.11242  0.78798  0.39659  1.0000
  H   H568      1.0  0.09071  0.79060  0.41316  1.0000
  C   C479      1.0  0.08536  0.85439  0.49345  1.0000
  S   S125      1.0  0.15214  0.72855  0.48571  1.0000
  C   C480      1.0  0.10630  0.81241  0.38746  1.0000
  H   H569      1.0  0.14179  0.87586  0.17050  1.0000
  H   H570      1.0  0.16974  0.88809  0.19485  1.0000
  S   S126      1.0  0.18905  0.77318  0.26971  1.0000
  C   C481      1.0  0.15564  0.85492  0.19380  1.0000
  C   C482      1.0  0.09434  0.84517  0.01086  1.0000
  C   C483      1.0  0.16825  0.85103  0.20631  1.0000
  C   C484      1.0  0.10210  0.79648  0.40031  1.0000
  C   C485      1.0  0.19171  0.98015  0.44494  1.0000
  C   C486      1.0  0.12160  0.84070  0.46184  1.0000
  H   H571      1.0  0.15370  0.67477  0.07022  1.0000
  H   H572      1.0  0.13963  0.81293  0.47178  1.0000
  H   H573      1.0  0.09745  0.74229  0.01537  1.0000
  C   C487      1.0  0.09659  0.81011  0.49232  1.0000
  H   H574      1.0  0.13598  0.94570  0.41399  1.0000
  C   C488      1.0  0.09121  0.75875  0.49357  1.0000
  H   H575      1.0  0.17493  0.77957  0.49495  1.0000
  C   C489      1.0  0.12394  0.82697  0.47573  1.0000
  Fe  Fe59      1.0  0.21539  0.83241  0.22685  1.0000
  C   C490      1.0  0.09957  0.78229  0.01205  1.0000
  H   H576      1.0  0.10279  0.66529  0.03610  1.0000
  C   C491      1.0  0.10372  0.76847  0.00615  1.0000
  C   C492      1.0  0.07836  0.76396  0.49211  1.0000
  H   H577      1.0  0.21841  0.79913  0.48129  1.0000
  H   H578      1.0  0.09205  0.81957  0.48410  1.0000
  H   H579      1.0  0.17938  0.76158  0.48762  1.0000
  C   C493      1.0  0.10877  0.65664  0.03497  1.0000
  H   H580      1.0  0.11645  0.79423  0.49640  1.0000
  H   H581      1.0  0.20457  0.76116  0.49515  1.0000
  H   H582      1.0  0.20456  0.98350  0.44351  1.0000
  H   H583      1.0  0.11974  0.85248  0.00246  1.0000
  Fe  Fe60      1.0  0.14698  0.90730  0.83946  1.0000
  S   S127      1.0  0.15724  0.89596  0.87710  1.0000
  S   S128      1.0  0.15654  0.93536  0.82721  1.0000
  Fe  Fe61      1.0  0.12325  0.87300  0.81544  1.0000
  S   S129      1.0  0.13227  0.85963  0.85134  1.0000
  S   S130      1.0  0.10272  0.85335  0.78767  1.0000
  Fe  Fe62      1.0  0.13184  0.87860  0.88863  1.0000
  S   S131      1.0  0.12759  0.86908  0.94098  1.0000
  Fe  Fe63      1.0  0.15684  0.87742  0.83783  1.0000
  S   S132      1.0  0.17658  0.86754  0.83878  1.0000
  S   S133      1.0  0.12120  0.89128  0.85385  1.0000
  S   S134      1.0  0.14822  0.88957  0.79883  1.0000
  Fe  Fe64      1.0  0.05553  0.81655  0.53974  1.0000
  S   S135      1.0  0.07564  0.81685  0.57060  1.0000
  H   H584      1.0  0.07968  0.88583  0.72727  1.0000
  Fe  Fe65      1.0  0.03003  0.80081  0.59428  1.0000
  S   S136      1.0  0.04880  0.79980  0.62879  1.0000
  S   S137      1.0  0.00434  0.79633  0.61230  1.0000
  Fe  Fe66      1.0  0.06402  0.82572  0.61175  1.0000
  S   S138      1.0  0.07947  0.84880  0.64088  1.0000
  Fe  Fe67      1.0  0.05902  0.79111  0.58480  1.0000
  S   S139      1.0  0.07041  0.77215  0.58758  1.0000
  S   S140      1.0  0.04488  0.82749  0.57957  1.0000
  S   S141      1.0  0.03922  0.78996  0.55157  1.0000
  Fe  Fe68      1.0  0.11896  0.71030  0.96740  1.0000
  S   S142      1.0  0.11907  0.73030  0.93288  1.0000
  H   H585      1.0  0.15132  0.83498  0.98395  1.0000
  C   C494      1.0  0.11767  0.80395  0.51555  1.0000
  S   S143      1.0  0.15337  0.75515  0.96484  1.0000
  S   S144      1.0  0.14570  0.75189  0.57156  1.0000
  Fe  Fe69      1.0  0.12716  0.74838  0.97482  1.0000
  N   N33       1.0  0.15300  0.83736  0.93154  1.0000
  Fe  Fe70      1.0  0.14529  0.73580  0.92487  1.0000
  S   S145      1.0  0.15265  0.74050  0.87141  1.0000
  C   C495      1.0  0.20071  0.79460  0.53649  1.0000
  S   S146      1.0  0.14475  0.71457  0.95679  1.0000
  H   H586      1.0  0.13406  0.82055  0.96228  1.0000
  H   H587      1.0  0.20680  0.95304  0.82636  1.0000
  C   C496      1.0  0.08033  0.85284  0.96866  1.0000
  S   S147      1.0  0.20300  0.80487  0.72574  1.0000
  C   C497      1.0  0.16985  0.75742  0.85741  1.0000
  C   C498      1.0  0.18333  0.76478  0.87683  1.0000
  H   H588      1.0  0.16861  0.79276  0.95357  1.0000
  C   C499      1.0  0.19805  0.78204  0.83100  1.0000
  C   C500      1.0  0.18419  0.77556  0.81241  1.0000
  C   C501      1.0  0.17028  0.76299  0.82528  1.0000
  H   H589      1.0  0.18316  0.76057  0.90157  1.0000
  H   H590      1.0  0.18381  0.86412  0.71966  1.0000
  H   H591      1.0  0.18431  0.77997  0.78793  1.0000
  H   H592      1.0  0.15987  0.75740  0.81014  1.0000
  C   C502      1.0  0.16404  0.75891  0.59282  1.0000
  C   C503      1.0  0.17556  0.75205  0.58689  1.0000
  C   C504      1.0  0.18977  0.75770  0.60499  1.0000
  C   C505      1.0  0.19268  0.77034  0.62894  1.0000
  C   C506      1.0  0.18115  0.77715  0.63498  1.0000
  C   C507      1.0  0.16686  0.77136  0.61715  1.0000
  H   H593      1.0  0.17339  0.74222  0.56872  1.0000
  H   H594      1.0  0.18324  0.78689  0.65331  1.0000
  H   H595      1.0  0.15798  0.77666  0.62208  1.0000
  H   H596      1.0  0.19087  0.74344  0.68180  1.0000
  S   S148      1.0  0.21091  0.77723  0.65049  1.0000
  H   H597      1.0  0.11887  0.66837  0.95060  1.0000
  C   C508      1.0  0.98580  0.77843  0.61159  1.0000
  H   H598      1.0  0.21087  0.95270  0.78311  1.0000
  C   C509      1.0  0.98450  0.76309  0.59762  1.0000
  H   H599      1.0  0.10955  0.79733  0.53610  1.0000
  H   H600      1.0  0.99503  0.76174  0.58719  1.0000
  C   C510      1.0  0.07900  0.76830  0.55091  1.0000
  C   C511      1.0  0.09225  0.76374  0.55209  1.0000
  H   H601      1.0  0.03790  0.71666  0.57085  1.0000
  C   C512      1.0  0.07723  0.72414  0.58879  1.0000
  C   C513      1.0  0.18019  0.80666  0.91101  1.0000
  S   S149      1.0  0.20762  0.84991  0.71016  1.0000
  H   H602      1.0  0.09785  0.76390  0.57513  1.0000
  C   C514      1.0  0.21177  0.80738  0.58920  1.0000
  H   H603      1.0  0.10914  0.75399  0.86054  1.0000
  H   H604      1.0  0.20173  0.76309  0.53808  1.0000
  C   C515      1.0  0.19829  0.85395  0.74582  1.0000
  C   C516      1.0  0.20227  0.85025  0.77665  1.0000
  C   C517      1.0  0.19547  0.85447  0.80489  1.0000
  C   C518      1.0  0.18446  0.86217  0.80255  1.0000
  C   C519      1.0  0.18012  0.86548  0.77175  1.0000
  C   C520      1.0  0.18708  0.86142  0.74345  1.0000
  H   H605      1.0  0.07800  0.87234  0.78049  1.0000
  C   C521      1.0  0.19454  0.73856  0.82453  1.0000
  H   H606      1.0  0.17159  0.87136  0.76969  1.0000
  C   C522      1.0  0.09782  0.85197  0.74573  1.0000
  C   C523      1.0  0.08647  0.83683  0.73357  1.0000
  C   C524      1.0  0.08124  0.83543  0.70113  1.0000
  C   C525      1.0  0.08705  0.84930  0.68067  1.0000
  C   C526      1.0  0.09860  0.86436  0.69263  1.0000
  C   C527      1.0  0.10409  0.86567  0.72492  1.0000
  H   H607      1.0  0.08155  0.82618  0.74951  1.0000
  H   H608      1.0  0.07251  0.82370  0.69225  1.0000
  H   H609      1.0  0.10316  0.87517  0.67701  1.0000
  H   H610      1.0  0.11275  0.87741  0.73401  1.0000
  C   C528      1.0  0.10899  0.85976  0.96225  1.0000
  H   H611      1.0  0.06937  0.85323  0.95944  1.0000
  H   H612      1.0  0.17427  0.83982  0.88089  1.0000
  H   H613      1.0  0.04302  0.69153  0.56726  1.0000
  H   H614      1.0  0.08223  0.85352  0.51920  1.0000
  C   C529      1.0  0.09468  0.85981  0.95015  1.0000
  C   C530      1.0  0.17159  0.71696  0.80049  1.0000
  H   H615      1.0  0.16587  0.90808  0.72078  1.0000
  S   S150      1.0  0.12087  0.77103  0.98218  1.0000
  H   H616      1.0  0.09472  0.86552  0.92690  1.0000
  C   C531      1.0  0.17991  0.95261  0.87297  1.0000
  C   C532      1.0  0.17122  0.95353  0.84578  1.0000
  H   H617      1.0  0.17833  0.91925  0.82656  1.0000
  H   H618      1.0  0.17735  0.94065  0.88424  1.0000
  C   C533      1.0  0.19745  0.77688  0.86348  1.0000
  C   C534      1.0  0.10683  0.65905  0.95292  1.0000
  C   C535      1.0  0.11457  0.82943  0.53064  1.0000
  C   C536      1.0  0.13858  0.77271  0.87500  1.0000
  H   H619      1.0  0.09695  0.75344  0.64724  1.0000
  C   C537      1.0  0.17723  0.90916  0.73076  1.0000
  H   H620      1.0  0.12727  0.83678  0.53713  1.0000
  C   C538      1.0  0.20658  0.77043  0.51554  1.0000
  H   H621      1.0  0.19073  0.94602  0.79882  1.0000
  N   N34       1.0  0.19584  0.74675  0.73341  1.0000
  H   H622      1.0  0.21008  0.75716  0.79292  1.0000
  H   H623      1.0  0.11401  0.76997  0.91334  1.0000
  N   N35       1.0  0.03500  0.84065  0.68747  1.0000
  C   C539      1.0  0.01841  0.83695  0.69961  1.0000
  C   C540      1.0  0.03720  0.84997  0.65647  1.0000
  C   C541      1.0  0.03667  0.82463  0.67958  1.0000
  C   C542      1.0  0.04664  0.84980  0.71290  1.0000
  C   C543      1.0  0.04600  0.84252  0.74394  1.0000
  C   C544      1.0  0.05905  0.86579  0.70764  1.0000
  C   C545      1.0  0.05711  0.85067  0.76805  1.0000
  C   C546      1.0  0.06998  0.87390  0.73209  1.0000
  C   C547      1.0  0.06906  0.86633  0.76214  1.0000
  H   H624      1.0  0.01683  0.84868  0.70691  1.0000
  H   H625      1.0  0.00941  0.83042  0.68062  1.0000
  H   H626      1.0  0.01521  0.82859  0.72107  1.0000
  H   H627      1.0  0.03583  0.86209  0.66034  1.0000
  H   H628      1.0  0.02829  0.84270  0.63790  1.0000
  H   H629      1.0  0.04921  0.85244  0.64511  1.0000
  H   H630      1.0  0.03393  0.81613  0.70076  1.0000
  H   H631      1.0  0.02846  0.81757  0.65976  1.0000
  H   H632      1.0  0.04914  0.82700  0.67132  1.0000
  H   H633      1.0  0.03714  0.83027  0.74956  1.0000
  H   H634      1.0  0.06096  0.87209  0.68453  1.0000
  H   H635      1.0  0.05680  0.84467  0.79117  1.0000
  C   C548      1.0  0.16396  0.85528  0.93313  1.0000
  C   C549      1.0  0.14168  0.83504  0.90465  1.0000
  H   H636      1.0  0.17623  0.71943  0.85199  1.0000
  H   H637      1.0  0.15738  0.86351  0.93966  1.0000
  H   H638      1.0  0.14803  0.83930  0.88088  1.0000
  H   H639      1.0  0.13403  0.84234  0.90923  1.0000
  H   H640      1.0  0.13353  0.82172  0.90179  1.0000
  H   H641      1.0  0.07100  0.74102  0.62226  1.0000
  H   H642      1.0  0.97489  0.76695  0.52842  1.0000
  C   C550      1.0  0.16081  0.81289  0.94490  1.0000
  H   H643      1.0  0.15286  0.80932  0.96597  1.0000
  C   C551      1.0  0.14349  0.83344  0.96257  1.0000
  H   H644      1.0  0.19857  0.75226  0.60039  1.0000
  C   C552      1.0  0.16226  0.82673  0.92507  1.0000
  H   H645      1.0  0.19661  0.76935  0.71121  1.0000
  N   N36       1.0  0.11346  0.81768  0.50304  1.0000
  C   C553      1.0  0.11896  0.78179  0.89915  1.0000
  C   C554      1.0  0.09833  0.75895  0.52356  1.0000
  H   H646      1.0  0.10884  0.78585  0.89616  1.0000
  H   H647      1.0  0.18925  0.90624  0.83314  1.0000
  H   H648      1.0  0.20475  0.82701  0.60756  1.0000
  C   C555      1.0  0.17283  0.82979  0.89757  1.0000
  H   H649      1.0  0.12802  0.79124  0.91479  1.0000
  H   H650      1.0  0.05405  0.69521  0.60459  1.0000
  H   H651      1.0  0.19888  0.85185  0.82864  1.0000
  C   C556      1.0  0.96947  0.74947  0.59685  1.0000
  C   C557      1.0  0.05511  0.69790  0.57797  1.0000
  H   H652      1.0  0.16811  0.97024  0.81079  1.0000
  H   H653      1.0  0.13355  0.76094  0.88928  1.0000
  C   C558      1.0  0.17664  0.72375  0.76952  1.0000
  H   H654      1.0  0.14837  0.78170  0.88986  1.0000
  N   N37       1.0  0.06164  0.71619  0.57229  1.0000
  C   C559      1.0  0.19386  0.76291  0.73505  1.0000
  C   C560      1.0  0.06384  0.71913  0.53660  1.0000
  C   C561      1.0  0.10514  0.72697  0.59463  1.0000
  H   H655      1.0  0.20121  0.74459  0.84604  1.0000
  H   H656      1.0  0.17528  0.76680  0.52845  1.0000
  H   H657      1.0  0.10836  0.75513  0.52497  1.0000
  C   C562      1.0  0.16976  0.80314  0.93794  1.0000
  H   H658      1.0  0.18976  0.82260  0.86972  1.0000
  N   N38       1.0  0.12618  0.77935  0.86756  1.0000
  H   H659      1.0  0.17358  0.73546  0.70751  1.0000
  C   C563      1.0  0.17469  0.96932  0.83186  1.0000
  H   H660      1.0  0.97266  0.79161  0.63584  1.0000
  C   C564      1.0  0.14385  0.82549  0.81339  1.0000
  H   H661      1.0  0.11931  0.74525  0.62941  1.0000
  H   H662      1.0  0.17339  0.85745  0.95158  1.0000
  H   H663      1.0  0.08833  0.80328  0.51248  1.0000
  C   C565      1.0  0.11367  0.76636  0.84818  1.0000
  C   C566      1.0  0.09423  0.66398  0.96165  1.0000
  H   H664      1.0  0.14387  0.76953  0.85233  1.0000
  H   H665      1.0  0.18712  0.79908  0.90573  1.0000
  C   C567      1.0  0.19188  0.96727  0.88588  1.0000
  C   C568      1.0  0.20270  0.94575  0.80327  1.0000
  Fe  Fe71      1.0  0.14011  0.74078  0.52012  1.0000
  H   H666      1.0  0.06200  0.77221  0.51961  1.0000
  H   H667      1.0  0.13004  0.80875  0.52527  1.0000
  C   C569      1.0  0.18627  0.90129  0.71500  1.0000
  S   S151      1.0  0.09735  0.68522  0.97151  1.0000
  N   N39       1.0  0.20218  0.92845  0.80557  1.0000
  H   H668      1.0  0.16051  0.70609  0.80345  1.0000
  H   H669      1.0  0.13701  0.84198  0.96687  1.0000
  H   H670      1.0  0.16677  0.82354  0.81313  1.0000
  C   C570      1.0  0.10872  0.85239  0.99266  1.0000
  H   H671      1.0  0.11968  0.82419  0.81675  1.0000
  C   C571      1.0  0.21028  0.79569  0.56417  1.0000
  C   C572      1.0  0.13252  0.79522  0.84919  1.0000
  H   H672      1.0  0.15758  0.79762  0.84327  1.0000
  H   H673      1.0  0.10667  0.79424  0.00128  1.0000
  H   H674      1.0  0.14822  0.83711  0.79990  1.0000
  H   H675      1.0  0.08906  0.71017  0.56113  1.0000
  C   C573      1.0  0.14881  0.80290  0.83856  1.0000
  H   H676      1.0  0.11850  0.76461  0.82373  1.0000
  C   C574      1.0  0.09023  0.71949  0.57991  1.0000
  C   C575      1.0  0.07999  0.73639  0.61410  1.0000
  H   H677      1.0  0.20195  0.77167  0.75319  1.0000
  C   C576      1.0  0.12217  0.80331  0.84069  1.0000
  H   H678      1.0  0.06876  0.65516  0.97104  1.0000
  C   C577      1.0  0.12780  0.81821  0.82306  1.0000
  H   H679      1.0  0.10958  0.79815  0.84744  1.0000
  H   H680      1.0  0.98628  0.79703  0.54255  1.0000
  H   H681      1.0  0.18702  0.72443  0.70334  1.0000
  C   C578      1.0  0.07223  0.76870  0.52076  1.0000
  H   H682      1.0  0.17001  0.86002  0.90933  1.0000
  C   C579      1.0  0.15431  0.81783  0.82103  1.0000
  C   C580      1.0  0.09497  0.74373  0.62878  1.0000
  H   H683      1.0  0.19383  0.92558  0.85578  1.0000
  C   C581      1.0  0.97186  0.77984  0.62499  1.0000
  C   C582      1.0  0.18636  0.73697  0.70546  1.0000
  C   C583      1.0  0.19083  0.73837  0.76529  1.0000
  C   C584      1.0  0.20066  0.90231  0.72828  1.0000
  H   H684      1.0  0.18554  0.80600  0.51513  1.0000
  C   C585      1.0  0.20603  0.91112  0.75750  1.0000
  C   C586      1.0  0.10756  0.73916  0.61882  1.0000
  H   H685      1.0  0.11504  0.72356  0.58680  1.0000
  H   H686      1.0  0.16902  0.71752  0.74946  1.0000
  H   H687      1.0  0.10831  0.82275  0.55301  1.0000
  C   C587      1.0  0.18049  0.72438  0.82792  1.0000
  C   C588      1.0  0.19960  0.74558  0.79382  1.0000
  H   H688      1.0  0.10308  0.76957  0.84427  1.0000
  H   H689      1.0  0.10898  0.83848  0.52507  1.0000
  C   C589      1.0  0.18168  0.81993  0.89080  1.0000
  C   C590      1.0  0.19043  0.91950  0.83138  1.0000
  H   H690      1.0  0.18133  0.76111  0.74197  1.0000
  H   H691      1.0  0.19846  0.96637  0.90697  1.0000
  N   N40       1.0  0.19866  0.78226  0.50966  1.0000
  H   H692      1.0  0.04661  0.72034  0.61043  1.0000
  H   H693      1.0  0.14149  0.68241  0.98873  1.0000
  S   S152      1.0  0.11513  0.72292  0.50729  1.0000
  H   H694      1.0  0.05348  0.73637  0.57968  1.0000
  H   H695      1.0  0.17486  0.92361  0.77157  1.0000
  C   C591      1.0  0.18254  0.91809  0.75985  1.0000
  H   H696      1.0  0.06285  0.69181  0.56678  1.0000
  C   C592      1.0  0.04941  0.72266  0.58395  1.0000
  H   H697      1.0  0.06845  0.73271  0.53136  1.0000
  C   C593      1.0  0.19297  0.80606  0.53542  1.0000
  H   H698      1.0  0.20811  0.78194  0.87813  1.0000
  C   C594      1.0  0.19715  0.91941  0.77411  1.0000
  H   H699      1.0  0.20745  0.89578  0.71636  1.0000
  C   C595      1.0  0.20379  0.81823  0.58766  1.0000
  H   H700      1.0  0.18199  0.89412  0.69277  1.0000
  C   C596      1.0  0.08007  0.84550  0.99910  1.0000
  H   H701      1.0  0.21647  0.78741  0.56766  1.0000
  C   C597      1.0  0.18136  0.77217  0.50507  1.0000
  H   H702      1.0  0.21086  0.84446  0.77877  1.0000
  H   H703      1.0  0.07246  0.71424  0.52522  1.0000
  C   C598      1.0  0.97337  0.79038  0.54149  1.0000
  C   C599      1.0  0.19528  0.98310  0.87212  1.0000
  C   C600      1.0  0.07863  0.65155  0.96431  1.0000
  Fe  Fe72      1.0  0.15045  0.73377  0.99789  1.0000
  C   C601      1.0  0.19444  0.81761  0.56075  1.0000
  H   H704      1.0  0.18820  0.82604  0.55975  1.0000
  H   H705      1.0  0.21679  0.75575  0.70164  1.0000
  S   S153      1.0  0.21660  0.79570  0.81418  1.0000
  C   C602      1.0  0.21294  0.75000  0.72613  1.0000
  H   H706      1.0  0.05238  0.71315  0.52336  1.0000
  H   H707      1.0  0.21884  0.80772  0.61042  1.0000
  H   H708      1.0  0.21702  0.91094  0.76679  1.0000
  H   H709      1.0  0.21513  0.73823  0.72659  1.0000
  C   C603      1.0  0.21822  0.92973  0.81607  1.0000
  Fe  Fe73      1.0  0.21848  0.79843  0.68847  1.0000
  H   H710      1.0  0.21833  0.91716  0.82089  1.0000
  C   C604      1.0  0.18657  0.98400  0.84494  1.0000
  H   H711      1.0  0.39935  0.12899  0.44581  1.0000
  Fe  Fe74      1.0  0.25205  0.06298  0.40751  1.0000
  S   S154      1.0  0.24648  0.08531  0.42046  1.0000
  S   S155      1.0  0.27760  0.06486  0.41323  1.0000
  C   C605      1.0  0.44446  0.10252  0.44498  1.0000
  Fe  Fe75      1.0  0.23318  0.08008  0.37316  1.0000
  H   H712      1.0  0.34132  0.07360  0.07458  1.0000
  C   C606      1.0  0.40399  0.08738  0.04381  1.0000
  S   S156      1.0  0.24012  0.05860  0.35846  1.0000
  Fe  Fe76      1.0  0.24189  0.13841  0.16505  1.0000
  S   S157      1.0  0.26324  0.14707  0.13100  1.0000
  H   H713      1.0  0.31092  0.07392  0.42715  1.0000
  S   S158      1.0  0.24994  0.17459  0.10353  1.0000
  Fe  Fe77      1.0  0.24628  0.14776  0.09247  1.0000
  S   S159      1.0  0.25190  0.13921  0.04234  1.0000
  Fe  Fe78      1.0  0.26559  0.17307  0.14437  1.0000
  S   S160      1.0  0.29081  0.19312  0.14676  1.0000
  S   S161      1.0  0.24545  0.16449  0.18173  1.0000
  Fe  Fe79      1.0  0.44435  0.02001  0.06887  1.0000
  S   S162      1.0  0.44926  0.03988  0.10768  1.0000
  S   S163      1.0  0.42372  0.99486  0.06489  1.0000
  Fe  Fe80      1.0  0.45657  0.05827  0.06652  1.0000
  S   S164      1.0  0.45127  0.08210  0.06981  1.0000
  H   H714      1.0  0.42010  0.13266  0.44812  1.0000
  C   C607      1.0  0.28418  0.05244  0.01657  1.0000
  H   H715      1.0  0.25971  0.09097  0.03480  1.0000
  S   S165      1.0  0.39407  0.13903  0.04161  1.0000
  Fe  Fe81      1.0  0.37319  0.14000  0.07164  1.0000
  H   H716      1.0  0.45714  0.10960  0.44058  1.0000
  S   S166      1.0  0.37053  0.14842  0.12347  1.0000
  Fe  Fe82      1.0  0.37918  0.14424  0.46759  1.0000
  S   S167      1.0  0.38348  0.14919  0.41319  1.0000
  C   C608      1.0  0.32404  0.25131  0.18930  1.0000
  H   H717      1.0  0.33337  0.25816  0.17209  1.0000
  C   C609      1.0  0.37865  0.31334  0.36247  1.0000
  S   S168      1.0  0.35912  0.11236  0.06612  1.0000
  Fe  Fe83      1.0  0.39197  0.22772  0.30563  1.0000
  S   S169      1.0  0.37531  0.24142  0.30733  1.0000
  S   S170      1.0  0.40107  0.22140  0.35272  1.0000
  Fe  Fe84      1.0  0.39347  0.22762  0.23135  1.0000
  S   S171      1.0  0.37694  0.24120  0.22758  1.0000
  S   S172      1.0  0.40425  0.22120  0.18508  1.0000
  Fe  Fe85      1.0  0.39127  0.25797  0.26826  1.0000
  S   S173      1.0  0.39635  0.28604  0.26410  1.0000
  Fe  Fe86      1.0  0.36253  0.22372  0.26678  1.0000
  S   S174      1.0  0.33553  0.20988  0.27054  1.0000
  S   S175      1.0  0.40893  0.24551  0.26919  1.0000
  S   S176      1.0  0.37816  0.20892  0.26792  1.0000
  C   C610      1.0  0.41328  0.30384  0.27736  1.0000
  C   C611      1.0  0.42485  0.30246  0.29789  1.0000
  S   S177      1.0  0.23620  0.11414  0.19257  1.0000
  H   H718      1.0  0.45351  0.06941  0.20183  1.0000
  H   H719      1.0  0.42380  0.29023  0.30577  1.0000
  H   H720      1.0  0.42031  0.05770  0.04758  1.0000
  C   C612      1.0  0.37972  0.16901  0.13897  1.0000
  C   C613      1.0  0.39225  0.18142  0.12236  1.0000
  C   C614      1.0  0.39964  0.19746  0.13657  1.0000
  C   C615      1.0  0.39437  0.20123  0.16710  1.0000
  C   C616      1.0  0.38159  0.18891  0.18321  1.0000
  C   C617      1.0  0.37439  0.17285  0.16933  1.0000
  H   H721      1.0  0.39643  0.17859  0.09891  1.0000
  H   H722      1.0  0.40951  0.20697  0.12391  1.0000
  H   H723      1.0  0.37744  0.19160  0.20671  1.0000
  H   H724      1.0  0.36487  0.16328  0.18259  1.0000
  C   C618      1.0  0.38683  0.16930  0.39794  1.0000
  C   C619      1.0  0.38178  0.17081  0.36639  1.0000
  C   C620      1.0  0.38521  0.18670  0.35288  1.0000
  C   C621      1.0  0.39437  0.20121  0.37027  1.0000
  C   C622      1.0  0.39926  0.19966  0.40190  1.0000
  C   C623      1.0  0.39530  0.18381  0.41589  1.0000
  H   H725      1.0  0.37514  0.15964  0.35241  1.0000
  H   H726      1.0  0.38107  0.18768  0.32879  1.0000
  H   H727      1.0  0.40629  0.21079  0.41560  1.0000
  H   H728      1.0  0.39928  0.18284  0.44016  1.0000
  C   C624      1.0  0.43281  0.08369  0.06015  1.0000
  C   C625      1.0  0.43152  0.09937  0.06269  1.0000
  C   C626      1.0  0.41720  0.10122  0.05464  1.0000
  C   C627      1.0  0.44004  0.19821  0.26731  1.0000
  H   H729      1.0  0.23471  0.10818  0.08504  1.0000
  C   C628      1.0  0.38888  0.15733  0.24695  1.0000
  H   H730      1.0  0.44171  0.11017  0.07069  1.0000
  H   H731      1.0  0.41642  0.11334  0.05667  1.0000
  C   C629      1.0  0.32634  0.25253  0.22365  1.0000
  C   C630      1.0  0.31122  0.10247  0.48586  1.0000
  H   H732      1.0  0.41420  0.30878  0.36480  1.0000
  H   H733      1.0  0.32814  0.14321  0.06338  1.0000
  H   H734      1.0  0.43575  0.00014  0.13098  1.0000
  C   C631      1.0  0.30322  0.19672  0.18106  1.0000
  C   C632      1.0  0.29721  0.18967  0.21137  1.0000
  C   C633      1.0  0.30729  0.19369  0.23856  1.0000
  C   C634      1.0  0.32348  0.20452  0.23550  1.0000
  C   C635      1.0  0.32957  0.21125  0.20500  1.0000
  C   C636      1.0  0.31942  0.20749  0.17799  1.0000
  H   H735      1.0  0.28473  0.18144  0.21404  1.0000
  H   H736      1.0  0.30251  0.18848  0.26213  1.0000
  H   H737      1.0  0.34199  0.21963  0.20236  1.0000
  H   H738      1.0  0.32408  0.21316  0.15470  1.0000
  C   C637      1.0  0.24061  0.12110  0.01939  1.0000
  H   H739      1.0  0.42456  0.13702  0.01328  1.0000
  C   C638      1.0  0.30945  0.24074  0.17600  1.0000
  C   C639      1.0  0.43319  0.10907  0.43645  1.0000
  Fe  Fe87      1.0  0.22945  0.16418  0.13972  1.0000
  C   C640      1.0  0.23832  0.10683  0.30297  1.0000
  H   H740      1.0  0.38527  0.09367  0.46610  1.0000
  H   H741      1.0  0.28795  0.09599  0.00746  1.0000
  H   H742      1.0  0.32920  0.09399  0.46682  1.0000
  C   C641      1.0  0.24220  0.12553  0.25665  1.0000
  C   C642      1.0  0.24232  0.12298  0.29048  1.0000
  H   H743      1.0  0.35048  0.16551  0.08198  1.0000
  H   H744      1.0  0.38489  0.08389  0.42642  1.0000
  H   H745      1.0  0.24519  0.13800  0.24741  1.0000
  C   C643      1.0  0.29528  0.10088  0.48347  1.0000
  C   C644      1.0  0.29043  0.07961  0.44097  1.0000
  C   C645      1.0  0.28489  0.08948  0.46128  1.0000
  H   H746      1.0  0.23944  0.07706  0.13956  1.0000
  H   H747      1.0  0.28496  0.14298  0.02306  1.0000
  C   C646      1.0  0.31692  0.09289  0.46515  1.0000
  C   C647      1.0  0.30653  0.08148  0.44280  1.0000
  H   H748      1.0  0.27252  0.08804  0.46052  1.0000
  C   C648      1.0  0.39896  0.17145  0.26415  1.0000
  C   C649      1.0  0.29416  0.14749  0.04137  1.0000
  H   H749      1.0  0.39972  0.07726  0.46597  1.0000
  C   C650      1.0  0.42486  0.21382  0.24878  1.0000
  H   H750      1.0  0.39550  0.17270  0.28916  1.0000
  H   H751      1.0  0.45636  0.09203  0.14154  1.0000
  H   H752      1.0  0.26903  0.11641  0.10845  1.0000
  H   H753      1.0  0.43765  0.12128  0.42544  1.0000
  H   H754      1.0  0.40642  0.12059  0.47901  1.0000
  H   H755      1.0  0.22757  0.26425  0.04898  1.0000
  H   H756      1.0  0.29099  0.10843  0.49916  1.0000
  H   H757      1.0  0.46275  0.05771  0.17818  1.0000
  H   H758      1.0  0.38510  0.29193  0.36567  1.0000
  H   H759      1.0  0.27430  0.05476  0.02803  1.0000
  C   C651      1.0  0.41654  0.10022  0.44272  1.0000
  H   H760      1.0  0.39750  0.11633  0.39025  1.0000
  H   H761      1.0  0.35657  0.18011  0.11490  1.0000
  C   C652      1.0  0.41954  0.06984  0.04965  1.0000
  S   S178      1.0  0.38582  0.08900  0.03197  1.0000
  H   H762      1.0  0.43962  0.18665  0.27942  1.0000
  H   H763      1.0  0.31383  0.24301  0.26984  1.0000
  C   C653      1.0  0.23724  0.10230  0.10687  1.0000
  H   H764      1.0  0.27305  0.10149  0.08283  1.0000
  H   H765      1.0  0.39515  0.06091  0.03311  1.0000
  C   C654      1.0  0.25086  0.08590  0.12863  1.0000
  H   H766      1.0  0.44538  0.19852  0.24250  1.0000
  C   C655      1.0  0.46638  0.00707  0.46341  1.0000
  H   H767      1.0  0.38425  0.14401  0.20088  1.0000
  N   N41       1.0  0.34158  0.26364  0.23871  1.0000
  C   C656      1.0  0.35486  0.27124  0.21461  1.0000
  C   C657      1.0  0.33899  0.27739  0.25677  1.0000
  C   C658      1.0  0.34703  0.25411  0.26198  1.0000
  H   H768      1.0  0.35234  0.27982  0.19783  1.0000
  H   H769      1.0  0.36635  0.27890  0.22675  1.0000
  H   H770      1.0  0.35722  0.26142  0.19998  1.0000
  H   H771      1.0  0.33468  0.28475  0.24022  1.0000
  H   H772      1.0  0.35026  0.28614  0.26816  1.0000
  H   H773      1.0  0.32989  0.27260  0.27675  1.0000
  H   H774      1.0  0.34754  0.24276  0.24989  1.0000
  H   H775      1.0  0.35917  0.26166  0.27154  1.0000
  H   H776      1.0  0.33901  0.24982  0.28373  1.0000
  C   C659      1.0  0.38943  0.30545  0.36415  1.0000
  C   C660      1.0  0.40660  0.11145  0.39811  1.0000
  H   H777      1.0  0.41842  0.12136  0.39186  1.0000
  C   C661      1.0  0.29345  0.15892  0.06510  1.0000
  N   N42       1.0  0.24829  0.09381  0.09865  1.0000
  C   C662      1.0  0.22630  0.05621  0.02453  1.0000
  Fe  Fe88      1.0  0.37898  0.11182  0.03288  1.0000
  C   C663      1.0  0.32882  0.17752  0.13813  1.0000
  S   S179      1.0  0.36618  0.11714  0.48057  1.0000
  C   C664      1.0  0.34034  0.07402  0.00989  1.0000
  H   H778      1.0  0.28882  0.22436  0.24555  1.0000
  H   H779      1.0  0.34522  0.05112  0.04750  1.0000
  C   C665      1.0  0.23436  0.09323  0.28129  1.0000
  H   H780      1.0  0.33857  0.18182  0.15639  1.0000
  C   C666      1.0  0.23409  0.09576  0.24748  1.0000
  C   C667      1.0  0.38790  0.09607  0.43951  1.0000
  H   H781      1.0  0.32442  0.03713  0.04992  1.0000
  C   C668      1.0  0.33157  0.15119  0.13217  1.0000
  C   C669      1.0  0.40784  0.12309  0.45235  1.0000
  S   S180      1.0  0.22464  0.13733  0.12551  1.0000
  C   C670      1.0  0.24112  0.08088  0.07310  1.0000
  H   H782      1.0  0.44833  0.08218  0.46750  1.0000
  H   H783      1.0  0.44640  0.31570  0.32502  1.0000
  H   H784      1.0  0.21972  0.06656  0.10188  1.0000
  C   C671      1.0  0.24115  0.06893  0.01819  1.0000
  N   N43       1.0  0.28869  0.12247  0.36823  1.0000
  C   C672      1.0  0.28475  0.12985  0.33888  1.0000
  C   C673      1.0  0.28414  0.10432  0.36143  1.0000
  C   C674      1.0  0.27861  0.12443  0.39580  1.0000
  C   C675      1.0  0.30582  0.13035  0.37717  1.0000
  C   C676      1.0  0.31710  0.14447  0.36070  1.0000
  C   C677      1.0  0.31157  0.12422  0.40387  1.0000
  C   C678      1.0  0.33309  0.15180  0.37054  1.0000
  C   C679      1.0  0.32753  0.13165  0.41352  1.0000
  C   C680      1.0  0.33828  0.14541  0.39687  1.0000
  H   H785      1.0  0.29180  0.12863  0.31708  1.0000
  H   H786      1.0  0.27187  0.12342  0.33247  1.0000
  H   H787      1.0  0.28678  0.14325  0.34292  1.0000
  H   H788      1.0  0.29197  0.10217  0.34203  1.0000
  H   H789      1.0  0.27147  0.09820  0.35337  1.0000
  H   H790      1.0  0.28495  0.09733  0.38328  1.0000
  H   H791      1.0  0.28206  0.13785  0.40270  1.0000
  H   H792      1.0  0.26565  0.11935  0.38949  1.0000
  H   H793      1.0  0.27958  0.11765  0.41789  1.0000
  H   H794      1.0  0.31391  0.15016  0.34028  1.0000
  H   H795      1.0  0.30371  0.11366  0.41767  1.0000
  H   H796      1.0  0.34152  0.16261  0.35782  1.0000
  H   H797      1.0  0.33160  0.12676  0.43415  1.0000
  H   H798      1.0  0.35065  0.15115  0.40451  1.0000
  H   H799      1.0  0.34646  0.18426  0.08100  1.0000
  C   C681      1.0  0.31307  0.24275  0.24356  1.0000
  C   C682      1.0  0.40526  0.07171  0.04145  1.0000
  H   H800      1.0  0.25651  0.09540  0.14813  1.0000
  S   S181      1.0  0.23036  0.04469  0.43363  1.0000
  C   C683      1.0  0.22778  0.10461  0.49411  1.0000
  C   C684      1.0  0.42333  0.07808  0.46682  1.0000
  N   N44       1.0  0.40485  0.10745  0.43342  1.0000
  C   C685      1.0  0.26396  0.10691  0.08872  1.0000
  C   C686      1.0  0.41195  0.08456  0.45866  1.0000
  H   H801      1.0  0.26272  0.11397  0.06722  1.0000
  C   C687      1.0  0.22432  0.11190  0.02573  1.0000
  H   H802      1.0  0.37938  0.10154  0.43095  1.0000
  H   H803      1.0  0.42691  0.21188  0.31271  1.0000
  C   C688      1.0  0.45897  0.06850  0.17763  1.0000
  S   S182      1.0  0.44941  0.03816  0.02763  1.0000
  C   C689      1.0  0.43953  0.08702  0.46000  1.0000
  H   H804      1.0  0.40672  0.20120  0.30095  1.0000
  H   H805      1.0  0.36589  0.30586  0.36304  1.0000
  H   H806      1.0  0.41805  0.18961  0.31579  1.0000
  C   C690      1.0  0.41864  0.20027  0.30037  1.0000
  C   C691      1.0  0.31825  0.15948  0.08934  1.0000
  H   H807      1.0  0.41274  0.21407  0.24655  1.0000
  H   H808      1.0  0.25870  0.07888  0.12345  1.0000
  C   C692      1.0  0.41283  0.18350  0.24898  1.0000
  H   H809      1.0  0.40515  0.10015  0.38301  1.0000
  C   C693      1.0  0.31861  0.14784  0.06472  1.0000
  H   H810      1.0  0.44850  0.20916  0.28106  1.0000
  H   H811      1.0  0.42600  0.18917  0.20241  1.0000
  C   C694      1.0  0.39228  0.15474  0.21444  1.0000
  H   H812      1.0  0.30013  0.06499  0.05413  1.0000
  H   H813      1.0  0.22560  0.09371  0.11735  1.0000
  H   H814      1.0  0.42990  0.21455  0.22361  1.0000
  C   C695      1.0  0.23794  0.11188  0.23502  1.0000
  N   N45       1.0  0.42383  0.19862  0.26627  1.0000
  C   C696      1.0  0.30525  0.16485  0.08883  1.0000
  H   H815      1.0  0.31735  0.17177  0.15222  1.0000
  C   C697      1.0  0.29860  0.23214  0.22995  1.0000
  H   H816      1.0  0.33502  0.14249  0.11633  1.0000
  H   H817      1.0  0.37823  0.14843  0.25879  1.0000
  H   H818      1.0  0.23124  0.08074  0.29060  1.0000
  S   S183      1.0  0.36140  0.14667  0.02961  1.0000
  H   H819      1.0  0.43245  0.22553  0.26172  1.0000
  H   H820      1.0  0.24538  0.13357  0.30712  1.0000
  C   C698      1.0  0.34677  0.17422  0.09718  1.0000
  H   H821      1.0  0.41966  0.06634  0.47972  1.0000
  C   C699      1.0  0.40576  0.16627  0.19893  1.0000
  H   H822      1.0  0.43626  0.30989  0.15371  1.0000
  H   H823      1.0  0.30388  0.17369  0.10638  1.0000
  H   H824      1.0  0.30729  0.13313  0.02252  1.0000
  H   H825      1.0  0.32892  0.18898  0.12611  1.0000
  H   H826      1.0  0.28571  0.22255  0.18569  1.0000
  C   C700      1.0  0.22610  0.06757  0.07889  1.0000
  H   H827      1.0  0.31973  0.14388  0.14378  1.0000
  N   N46       1.0  0.33105  0.16557  0.11389  1.0000
  H   H828      1.0  0.34065  0.15535  0.15171  1.0000
  C   C701      1.0  0.30671  0.14196  0.04116  1.0000
  C   C702      1.0  0.41590  0.18045  0.21581  1.0000
  S   S184      1.0  0.36214  0.15230  0.49647  1.0000
  Fe  Fe89      1.0  0.22398  0.06706  0.44319  1.0000
  N   N47       1.0  0.32846  0.06150  0.03132  1.0000
  H   H829      1.0  0.32641  0.08097  0.06259  1.0000
  H   H830      1.0  0.28493  0.04727  0.49123  1.0000
  S   S185      1.0  0.23825  0.10434  0.34578  1.0000
  H   H831      1.0  0.22710  0.27249  0.08942  1.0000
  H   H832      1.0  0.45311  0.30981  0.25041  1.0000
  H   H833      1.0  0.28366  0.16323  0.06512  1.0000
  C   C703      1.0  0.42722  0.98736  0.12863  1.0000
  C   C704      1.0  0.45414  0.99478  0.48085  1.0000
  C   C705      1.0  0.32913  0.06949  0.06399  1.0000
  C   C706      1.0  0.24850  0.08118  0.04191  1.0000
  H   H834      1.0  0.24240  0.11236  0.12538  1.0000
  H   H835      1.0  0.43729  0.29454  0.20330  1.0000
  C   C707      1.0  0.44382  0.30799  0.20217  1.0000
  C   C708      1.0  0.29679  0.23115  0.19625  1.0000
  H   H836      1.0  0.32064  0.06070  0.08166  1.0000
  Fe  Fe90      1.0  0.34846  0.11896  0.02252  1.0000
  H   H837      1.0  0.44932  0.06496  0.15919  1.0000
  H   H838      1.0  0.33500  0.04161  0.01136  1.0000
  H   H839      1.0  0.30802  0.23952  0.14974  1.0000
  S   S186      1.0  0.32136  0.10847  0.02158  1.0000
  H   H840      1.0  0.23068  0.08510  0.23096  1.0000
  H   H841      1.0  0.33718  0.08509  0.00706  1.0000
  H   H842      1.0  0.40806  0.16446  0.17331  1.0000
  H   H843      1.0  0.45911  0.09964  0.18290  1.0000
  H   H844      1.0  0.21998  0.19429  0.09617  1.0000
  H   H845      1.0  0.45357  0.98565  0.26150  1.0000
  H   H846      1.0  0.25744  0.04461  0.47961  1.0000
  H   H847      1.0  0.23089  0.10370  0.46870  1.0000
  C   C709      1.0  0.26394  0.05280  0.49930  1.0000
  H   H848      1.0  0.23891  0.13156  0.49584  1.0000
  C   C710      1.0  0.33344  0.04720  0.03517  1.0000
  C   C711      1.0  0.23574  0.30958  0.01036  1.0000
  C   C712      1.0  0.29917  0.05824  0.03135  1.0000
  H   H849      1.0  0.35259  0.07858  0.02014  1.0000
  C   C713      1.0  0.46536  0.09681  0.16132  1.0000
  C   C714      1.0  0.21950  0.26496  0.06928  1.0000
  H   H850      1.0  0.22319  0.18346  0.50198  1.0000
  C   C715      1.0  0.43767  0.31697  0.30881  1.0000
  C   C716      1.0  0.40583  0.31496  0.36370  1.0000
  C   C717      1.0  0.31241  0.05566  0.01641  1.0000
  H   H851      1.0  0.23008  0.28339  0.00887  1.0000
  H   H852      1.0  0.45161  0.99549  0.02041  1.0000
  C   C718      1.0  0.22777  0.29327  0.02169  1.0000
  H   H853      1.0  0.22040  0.04714  0.00558  1.0000
  C   C719      1.0  0.46668  0.98640  0.42343  1.0000
  H   H854      1.0  0.46547  0.98550  0.02493  1.0000
  C   C720      1.0  0.44320  0.31668  0.17436  1.0000
  C   C721      1.0  0.45274  0.31662  0.22872  1.0000
  H   H855      1.0  0.21910  0.14251  0.23000  1.0000
  H   H856      1.0  0.43982  0.98816  0.67734  1.0000
  Fe  Fe91      1.0  0.25510  0.05706  0.90207  1.0000
  S   S187      1.0  0.24702  0.07805  0.89534  1.0000
  S   S188      1.0  0.28156  0.06271  0.90661  1.0000
  H   H857      1.0  0.22379  0.09231  0.85471  1.0000
  C   C722      1.0  0.43839  0.10739  0.53198  1.0000
  N   N48       1.0  0.46744  0.10213  0.64179  1.0000
  S   S189      1.0  0.23367  0.04222  0.93299  1.0000
  S   S190      1.0  0.24430  0.04361  0.85592  1.0000
  C   C723      1.0  0.29128  0.14139  0.54314  1.0000
  S   S191      1.0  0.24237  0.13398  0.65556  1.0000
  H   H858      1.0  0.31533  0.07861  0.91643  1.0000
  S   S192      1.0  0.24889  0.17166  0.63090  1.0000
  Fe  Fe92      1.0  0.23338  0.14540  0.61606  1.0000
  S   S193      1.0  0.23539  0.14170  0.56137  1.0000
  Fe  Fe93      1.0  0.25647  0.16031  0.67272  1.0000
  S   S194      1.0  0.28180  0.16283  0.68406  1.0000
  S   S195      1.0  0.23693  0.16187  0.70602  1.0000
  Fe  Fe94      1.0  0.45214  0.02760  0.56869  1.0000
  S   S196      1.0  0.45149  0.04906  0.59938  1.0000
  S   S197      1.0  0.43329  0.00141  0.56390  1.0000
  H   H859      1.0  0.24948  0.08996  0.51450  1.0000
  C   C724      1.0  0.42442  0.11095  0.53078  1.0000
  Fe  Fe95      1.0  0.22249  0.13606  0.68671  1.0000
  H   H860      1.0  0.44665  0.26862  0.65001  1.0000
  H   H861      1.0  0.26090  0.12295  0.98865  1.0000
  C   C725      1.0  0.24204  0.07363  0.57232  1.0000
  Fe  Fe96      1.0  0.37863  0.15572  0.53861  1.0000
  H   H862      1.0  0.26647  0.13053  0.79844  1.0000
  S   S198      1.0  0.38054  0.17913  0.56727  1.0000
  H   H863      1.0  0.24307  0.19824  0.54659  1.0000
  S   S199      1.0  0.39499  0.16000  0.95738  1.0000
  H   H864      1.0  0.34612  0.17429  0.62974  1.0000
  S   S200      1.0  0.39125  0.10205  0.53736  1.0000
  Fe  Fe97      1.0  0.35037  0.12574  0.51232  1.0000
  S   S201      1.0  0.36573  0.12949  0.55643  1.0000
  Fe  Fe98      1.0  0.37274  0.20875  0.81792  1.0000
  S   S202      1.0  0.36934  0.23303  0.81355  1.0000
  S   S203      1.0  0.36053  0.19190  0.86081  1.0000
  Fe  Fe99      1.0  0.38734  0.21180  0.74866  1.0000
  S   S204      1.0  0.38457  0.23602  0.73892  1.0000
  S   S205      1.0  0.39902  0.19830  0.71545  1.0000
  Fe  Fe100     1.0  0.39391  0.24369  0.78988  1.0000
  S   S206      1.0  0.41557  0.26758  0.80366  1.0000
  Fe  Fe101     1.0  0.36031  0.22346  0.76337  1.0000
  S   S207      1.0  0.33689  0.22508  0.74899  1.0000
  S   S208      1.0  0.39799  0.21987  0.79830  1.0000
  S   S209      1.0  0.36247  0.19876  0.76886  1.0000
  C   C726      1.0  0.42087  0.28969  0.80139  1.0000
  C   C727      1.0  0.41057  0.29667  0.78906  1.0000
  H   H865      1.0  0.24665  0.06964  0.99418  1.0000
  H   H866      1.0  0.40035  0.12938  0.95663  1.0000
  H   H867      1.0  0.39887  0.28853  0.78056  1.0000
  H   H868      1.0  0.46027  0.29899  0.64560  1.0000
  C   C728      1.0  0.38452  0.18311  0.60931  1.0000
  C   C729      1.0  0.39208  0.17471  0.62701  1.0000
  C   C730      1.0  0.39620  0.17928  0.65975  1.0000
  C   C731      1.0  0.39237  0.19191  0.67530  1.0000
  C   C732      1.0  0.38427  0.19988  0.65794  1.0000
  C   C733      1.0  0.38060  0.19567  0.62494  1.0000
  H   H869      1.0  0.39523  0.16509  0.61518  1.0000
  H   H870      1.0  0.40251  0.17310  0.67303  1.0000
  H   H871      1.0  0.38131  0.20965  0.66961  1.0000
  H   H872      1.0  0.37487  0.20233  0.61134  1.0000
  C   C734      1.0  0.38524  0.16867  0.93046  1.0000
  C   C735      1.0  0.39411  0.17911  0.90512  1.0000
  C   C736      1.0  0.38672  0.18627  0.88349  1.0000
  C   C737      1.0  0.37039  0.18307  0.88708  1.0000
  C   C738      1.0  0.36149  0.17252  0.91226  1.0000
  C   C739      1.0  0.36887  0.16534  0.93384  1.0000
  H   H873      1.0  0.40677  0.18177  0.90231  1.0000
  H   H874      1.0  0.39369  0.19437  0.86421  1.0000
  H   H875      1.0  0.34887  0.17001  0.91530  1.0000
  H   H876      1.0  0.36191  0.15733  0.95323  1.0000
  C   C740      1.0  0.43767  0.09161  0.54174  1.0000
  H   H877      1.0  0.24519  0.06124  0.50994  1.0000
  H   H878      1.0  0.43731  0.09841  0.61670  1.0000
  C   C741      1.0  0.40948  0.09869  0.53934  1.0000
  C   C742      1.0  0.40881  0.08300  0.54955  1.0000
  C   C743      1.0  0.42279  0.07946  0.55082  1.0000
  Fe  Fe102     1.0  0.22774  0.17089  0.66212  1.0000
  H   H879      1.0  0.33806  0.17209  0.54221  1.0000
  H   H880      1.0  0.24064  0.17817  0.56201  1.0000
  H   H881      1.0  0.42198  0.06727  0.55838  1.0000
  C   C744      1.0  0.22359  0.13699  0.80420  1.0000
  C   C745      1.0  0.23234  0.12037  0.50956  1.0000
  H   H882      1.0  0.44563  0.00706  0.62977  1.0000
  C   C746      1.0  0.29707  0.18074  0.70038  1.0000
  C   C747      1.0  0.29429  0.19489  0.71056  1.0000
  C   C748      1.0  0.30672  0.20859  0.72476  1.0000
  C   C749      1.0  0.32197  0.20822  0.72881  1.0000
  C   C750      1.0  0.32478  0.19415  0.71807  1.0000
  C   C751      1.0  0.31235  0.18044  0.70411  1.0000
  H   H883      1.0  0.28256  0.19523  0.70775  1.0000
  H   H884      1.0  0.30448  0.21946  0.73288  1.0000
  H   H885      1.0  0.33649  0.19378  0.72077  1.0000
  H   H886      1.0  0.31455  0.16950  0.69639  1.0000
  H   H887      1.0  0.42160  0.23041  0.73922  1.0000
  C   C752      1.0  0.28141  0.07502  0.54783  1.0000
  H   H888      1.0  0.42269  0.14706  0.92552  1.0000
  C   C753      1.0  0.44802  0.27611  0.67200  1.0000
  C   C754      1.0  0.28819  0.06538  0.52997  1.0000
  H   H889      1.0  0.44984  0.99869  0.50312  1.0000
  H   H890      1.0  0.35109  0.18301  0.57415  1.0000
  H   H891      1.0  0.26158  0.10123  0.60048  1.0000
  H   H892      1.0  0.42177  0.24699  0.65767  1.0000
  H   H893      1.0  0.40344  0.11149  0.94109  1.0000
  C   C755      1.0  0.29397  0.09244  0.98732  1.0000
  S   S210      1.0  0.39704  0.14973  0.50815  1.0000
  C   C756      1.0  0.23378  0.09033  0.78330  1.0000
  H   H894      1.0  0.44245  0.14770  0.93067  1.0000
  H   H895      1.0  0.45368  0.00112  0.96746  1.0000
  C   C757      1.0  0.29259  0.07708  0.93660  1.0000
  C   C758      1.0  0.28493  0.08240  0.96178  1.0000
  H   H896      1.0  0.33271  0.18595  0.56887  1.0000
  C   C759      1.0  0.24377  0.14660  0.84548  1.0000
  C   C760      1.0  0.31843  0.09304  0.96105  1.0000
  C   C761      1.0  0.30936  0.08264  0.93599  1.0000
  H   H897      1.0  0.27202  0.07823  0.96223  1.0000
  H   H898      1.0  0.44445  0.08355  0.65626  1.0000
  H   H899      1.0  0.33134  0.09724  0.96037  1.0000
  C   C762      1.0  0.23995  0.10143  0.97522  1.0000
  H   H900      1.0  0.45293  0.30494  0.74802  1.0000
  H   H901      1.0  0.41304  0.09533  0.97085  1.0000
  H   H902      1.0  0.44985  0.11691  0.52502  1.0000
  H   H903      1.0  0.24154  0.12098  0.72647  1.0000
  C   C763      1.0  0.43606  0.30058  0.81227  1.0000
  C   C764      1.0  0.44406  0.27950  0.72994  1.0000
  C   C765      1.0  0.43478  0.09238  0.97835  1.0000
  C   C766      1.0  0.41877  0.24487  0.68406  1.0000
  H   H904      1.0  0.39735  0.07343  0.55632  1.0000
  C   C767      1.0  0.25706  0.06241  0.51688  1.0000
  Fe  Fe103     1.0  0.22192  0.02989  0.88583  1.0000
  H   H905      1.0  0.30049  0.06695  0.53409  1.0000
  C   C768      1.0  0.46588  0.99712  0.92528  1.0000
  C   C769      1.0  0.45757  0.30383  0.69652  1.0000
  H   H906      1.0  0.34118  0.06898  0.98510  1.0000
  N   N49       1.0  0.29406  0.09615  0.82613  1.0000
  C   C770      1.0  0.30119  0.08355  0.83092  1.0000
  C   C771      1.0  0.28081  0.09310  0.85021  1.0000
  C   C772      1.0  0.28691  0.09320  0.79314  1.0000
  C   C773      1.0  0.30635  0.11323  0.83111  1.0000
  C   C774      1.0  0.31466  0.11770  0.86105  1.0000
  C   C775      1.0  0.31048  0.12581  0.80686  1.0000
  C   C776      1.0  0.32667  0.13357  0.86602  1.0000
  C   C777      1.0  0.32253  0.14164  0.81211  1.0000
  C   C778      1.0  0.33067  0.14547  0.84151  1.0000
  H   H907      1.0  0.30517  0.08354  0.85637  1.0000
  H   H908      1.0  0.29233  0.07056  0.82641  1.0000
  H   H909      1.0  0.31170  0.08580  0.81429  1.0000
  H   H910      1.0  0.28488  0.09418  0.87584  1.0000
  H   H911      1.0  0.27154  0.08019  0.84740  1.0000
  H   H912      1.0  0.27475  0.10195  0.84707  1.0000
  H   H913      1.0  0.29613  0.09486  0.77359  1.0000
  H   H914      1.0  0.27770  0.08022  0.79041  1.0000
  H   H915      1.0  0.28045  0.10157  0.78854  1.0000
  H   H916      1.0  0.31203  0.10887  0.88081  1.0000
  H   H917      1.0  0.30470  0.12372  0.78352  1.0000
  H   H918      1.0  0.33308  0.13662  0.88886  1.0000
  H   H919      1.0  0.32570  0.15096  0.79308  1.0000
  H   H920      1.0  0.34022  0.15764  0.84526  1.0000
  N   N50       1.0  0.32980  0.16251  0.59055  1.0000
  C   C779      1.0  0.33305  0.16925  0.62446  1.0000
  C   C780      1.0  0.33683  0.14966  0.58641  1.0000
  C   C781      1.0  0.33822  0.17647  0.56796  1.0000
  C   C782      1.0  0.31252  0.15520  0.58275  1.0000
  C   C783      1.0  0.30743  0.14761  0.55175  1.0000
  C   C784      1.0  0.30038  0.15598  0.60468  1.0000
  H   H921      1.0  0.23153  0.21505  0.57534  1.0000
  C   C785      1.0  0.28425  0.14966  0.59585  1.0000
  C   C786      1.0  0.27971  0.14247  0.56511  1.0000
  H   H922      1.0  0.32703  0.15935  0.64275  1.0000
  S   S211      1.0  0.22130  0.19412  0.66116  1.0000
  H   H923      1.0  0.32909  0.17981  0.62880  1.0000
  H   H924      1.0  0.33016  0.13841  0.60128  1.0000
  H   H925      1.0  0.27046  0.04009  0.97462  1.0000
  S   S212      1.0  0.24437  0.08118  0.80669  1.0000
  Fe  Fe104     1.0  0.38088  0.14340  0.99871  1.0000
  H   H926      1.0  0.29300  0.03563  0.94713  1.0000
  C   C787      1.0  0.40678  0.12098  0.96117  1.0000
  H   H927      1.0  0.31598  0.14665  0.53371  1.0000
  H   H928      1.0  0.30296  0.16160  0.62874  1.0000
  H   H929      1.0  0.43816  0.24772  0.75519  1.0000
  H   H930      1.0  0.27525  0.15063  0.61288  1.0000
  H   H931      1.0  0.46618  0.99492  0.58839  1.0000
  N   N51       1.0  0.25820  0.08424  0.55934  1.0000
  H   H932      1.0  0.31869  0.21547  0.83188  1.0000
  C   C788      1.0  0.28196  0.04413  0.98653  1.0000
  C   C789      1.0  0.30972  0.04723  0.98568  1.0000
  C   C790      1.0  0.26554  0.07375  0.54191  1.0000
  C   C791      1.0  0.45038  0.12690  0.97105  1.0000
  H   H933      1.0  0.24528  0.15891  0.79958  1.0000
  H   H934      1.0  0.24255  0.06339  0.58764  1.0000
  H   H935      1.0  0.29795  0.20169  0.83748  1.0000
  C   C792      1.0  0.45133  0.09992  0.98172  1.0000
  H   H936      1.0  0.34964  0.15457  0.59371  1.0000
  C   C793      1.0  0.21977  0.12100  0.85480  1.0000
  Fe  Fe105     1.0  0.23508  0.06408  0.85033  1.0000
  H   H937      1.0  0.25516  0.15563  0.85382  1.0000
  H   H938      1.0  0.33291  0.18094  0.81529  1.0000
  H   H939      1.0  0.21936  0.13840  0.78026  1.0000
  H   H940      1.0  0.31927  0.04517  0.97241  1.0000
  C   C794      1.0  0.31070  0.09751  0.98734  1.0000
  C   C795      1.0  0.23468  0.11100  0.74280  1.0000
  C   C796      1.0  0.23823  0.14852  0.81501  1.0000
  C   C797      1.0  0.21966  0.21081  0.56539  1.0000
  C   C798      1.0  0.42960  0.13917  0.93089  1.0000
  H   H941      1.0  0.27957  0.10337  0.57903  1.0000
  H   H942      1.0  0.27806  0.13418  0.85349  1.0000
  H   H943      1.0  0.22356  0.16466  0.51941  1.0000
  C   C799      1.0  0.23558  0.18805  0.56311  1.0000
  H   H944      1.0  0.32418  0.18114  0.87195  1.0000
  S   S213      1.0  0.36696  0.11609  0.98825  1.0000
  H   H945      1.0  0.45806  0.09239  0.98783  1.0000
  H   H946      1.0  0.42876  0.07899  0.98180  1.0000
  H   H947      1.0  0.28780  0.13597  0.51907  1.0000
  H   H948      1.0  0.33861  0.20318  0.81606  1.0000
  H   H949      1.0  0.44415  0.29538  0.82193  1.0000
  H   H950      1.0  0.23329  0.06780  0.55264  1.0000
  C   C800      1.0  0.41536  0.31425  0.78801  1.0000
  H   H951      1.0  0.32623  0.19097  0.78433  1.0000
  H   H952      1.0  0.29876  0.17967  0.77266  1.0000
  H   H953      1.0  0.24610  0.09747  0.95595  1.0000
  C   C801      1.0  0.27618  0.14216  0.80506  1.0000
  C   C802      1.0  0.43745  0.99413  0.62739  1.0000
  H   H954      1.0  0.25041  0.10402  0.54784  1.0000
  C   C803      1.0  0.28266  0.14429  0.83614  1.0000
  C   C804      1.0  0.22009  0.10719  0.56025  1.0000
  H   H955      1.0  0.30888  0.18924  0.88274  1.0000
  C   C805      1.0  0.44587  0.11111  0.61970  1.0000
  C   C806      1.0  0.44364  0.24150  0.69258  1.0000
  N   N52       1.0  0.43323  0.25016  0.70458  1.0000
  S   S214      1.0  0.45564  0.08768  0.54130  1.0000
  H   H956      1.0  0.42526  0.12314  0.52327  1.0000
  H   H957      1.0  0.30767  0.20452  0.79794  1.0000
  H   H958      1.0  0.32885  0.20291  0.87115  1.0000
  H   H959      1.0  0.24373  0.31197  0.98925  1.0000
  S   S215      1.0  0.45969  0.04287  0.52306  1.0000
  C   C807      1.0  0.42790  0.24428  0.73828  1.0000
  H   H960      1.0  0.23664  0.08101  0.58742  1.0000
  H   H961      1.0  0.40194  0.11461  0.98468  1.0000
  H   H962      1.0  0.43745  0.22763  0.69484  1.0000
  H   H963      1.0  0.46349  0.10570  0.69286  1.0000
  H   H964      1.0  0.42780  0.13005  0.91035  1.0000
  C   C808      1.0  0.28212  0.15503  0.78254  1.0000
  C   C809      1.0  0.27946  0.05429  0.50581  1.0000
  C   C810      1.0  0.42587  0.10202  0.97193  1.0000
  C   C811      1.0  0.26774  0.09397  0.58726  1.0000
  C   C812      1.0  0.24249  0.10317  0.76169  1.0000
  C   C813      1.0  0.44190  0.26855  0.70250  1.0000
  C   C814      1.0  0.46158  0.11506  0.63169  1.0000
  C   C815      1.0  0.46658  0.14473  0.62369  1.0000
  H   H965      1.0  0.26834  0.10503  0.52697  1.0000
  H   H966      1.0  0.45487  0.24554  0.70680  1.0000
  H   H967      1.0  0.41108  0.25185  0.69112  1.0000
  H   H968      1.0  0.43978  0.27505  0.75416  1.0000
  C   C816      1.0  0.42981  0.98818  0.59779  1.0000
  H   H969      1.0  0.27718  0.15334  0.75816  1.0000
  H   H970      1.0  0.29956  0.16016  0.86936  1.0000
  H   H971      1.0  0.26722  0.13794  0.55826  1.0000
  C   C817      1.0  0.29471  0.04161  0.97105  1.0000
  C   C818      1.0  0.29500  0.15939  0.84502  1.0000
  C   C819      1.0  0.22866  0.12170  0.54272  1.0000
  C   C820      1.0  0.43343  0.11968  0.96829  1.0000
  Fe  Fe106     1.0  0.38292  0.12295  0.52320  1.0000
  N   N53       1.0  0.42440  0.13042  0.96242  1.0000
  H   H972      1.0  0.41132  0.23127  0.68657  1.0000
  H   H973      1.0  0.33680  0.14541  0.56064  1.0000
  Fe  Fe107     1.0  0.22461  0.06232  0.92185  1.0000
  H   H974      1.0  0.25535  0.10706  0.75937  1.0000
  N   N54       1.0  0.31422  0.18907  0.83112  1.0000
  C   C821      1.0  0.30934  0.20320  0.82440  1.0000
  C   C822      1.0  0.31908  0.19054  0.86582  1.0000
  C   C823      1.0  0.32855  0.19106  0.81078  1.0000
  C   C824      1.0  0.30115  0.17291  0.82278  1.0000
  C   C825      1.0  0.29445  0.17015  0.79115  1.0000
  C   C826      1.0  0.44077  0.12366  0.61038  1.0000
  H   H975      1.0  0.23710  0.19288  0.58877  1.0000
  C   C827      1.0  0.45578  0.29349  0.66917  1.0000
  Fe  Fe108     1.0  0.46127  0.06494  0.55509  1.0000
  H   H976      1.0  0.46541  0.99881  0.71916  1.0000
  H   H977      1.0  0.28906  0.08370  0.56542  1.0000
  H   H978      1.0  0.41931  0.24956  0.74828  1.0000
  H   H979      1.0  0.23161  0.10281  0.89253  1.0000
  H   H980      1.0  0.42022  0.15086  0.98635  1.0000
  C   C828      1.0  0.25652  0.09633  0.53619  1.0000
  C   C829      1.0  0.23477  0.13301  0.86507  1.0000
  C   C830      1.0  0.22371  0.09212  0.98179  1.0000
  H   H981      1.0  0.45696  0.14021  0.96843  1.0000
  H   H982      1.0  0.42877  0.12031  0.60105  1.0000
  C   C831      1.0  0.45108  0.14042  0.61237  1.0000
  H   H983      1.0  0.44705  0.15006  0.60484  1.0000
  H   H984      1.0  0.44702  0.24389  0.66640  1.0000
  H   H985      1.0  0.45085  0.08130  0.61484  1.0000
  C   C832      1.0  0.45171  0.29685  0.72679  1.0000
  H   H986      1.0  0.44021  0.15206  0.98939  1.0000
  H   H987      1.0  0.26973  0.08557  0.60533  1.0000
  H   H988      1.0  0.23970  0.13186  0.88823  1.0000
  C   C833      1.0  0.42751  0.14312  0.98899  1.0000
  C   C834      1.0  0.24833  0.11587  0.99388  1.0000
  C   C835      1.0  0.21940  0.09007  0.51172  1.0000
  C   C836      1.0  0.45913  0.11714  0.97786  1.0000
  C   C837      1.0  0.45499  0.08489  0.64030  1.0000
  H   H989      1.0  0.45965  0.07548  0.64865  1.0000
  S   S216      1.0  0.32327  0.11603  0.51607  1.0000
  C   C838      1.0  0.45720  0.99204  0.95451  1.0000
  C   C839      1.0  0.22040  0.09609  0.87899  1.0000
  C   C840      1.0  0.46874  0.99079  0.73471  1.0000
  H   H990      1.0  0.46341  0.31731  0.69430  1.0000
  H   H991      1.0  0.41006  0.35654  0.30261  1.0000
  S   S217      1.0  0.45059  0.38859  0.27030  1.0000
  H   H992      1.0  0.35017  0.45802  0.01832  1.0000
  Fe  Fe109     1.0  0.44719  0.40546  0.30916  1.0000
  S   S218      1.0  0.42406  0.40950  0.31125  1.0000
  S   S219      1.0  0.45645  0.39473  0.34943  1.0000
  C   C841      1.0  0.46025  0.34332  0.20011  1.0000
  Fe  Fe110     1.0  0.24461  0.39830  0.47406  1.0000
  H   H993      1.0  0.42798  0.36044  0.32507  1.0000
  H   H994      1.0  0.46848  0.49309  0.01789  1.0000
  C   C842      1.0  0.42004  0.56236  0.34885  1.0000
  H   H995      1.0  0.40333  0.51905  0.01528  1.0000
  H   H996      1.0  0.44117  0.47702  0.01811  1.0000
  H   H997      1.0  0.45625  0.51250  0.46751  1.0000
  S   S220      1.0  0.23887  0.38022  0.43139  1.0000
  Fe  Fe111     1.0  0.36352  0.45923  0.43666  1.0000
  S   S221      1.0  0.38154  0.45755  0.47195  1.0000
  S   S222      1.0  0.33867  0.43867  0.42723  1.0000
  Fe  Fe112     1.0  0.38798  0.49155  0.40719  1.0000
  S   S223      1.0  0.40758  0.49272  0.44081  1.0000
  S   S224      1.0  0.39148  0.51030  0.36679  1.0000
  Fe  Fe113     1.0  0.39945  0.46519  0.43064  1.0000
  S   S225      1.0  0.42007  0.45666  0.42783  1.0000
  H   H998      1.0  0.46513  0.59428  0.25898  1.0000
  H   H999      1.0  0.45128  0.49051  0.23012  1.0000
  S   S226      1.0  0.38115  0.46446  0.39403  1.0000
  S   S227      1.0  0.36930  0.48653  0.44773  1.0000
  Fe  Fe114     1.0  0.45615  0.53829  0.21986  1.0000
  S   S228      1.0  0.45171  0.56068  0.20281  1.0000
  S   S229      1.0  0.44985  0.52291  0.26656  1.0000
  Fe  Fe115     1.0  0.44950  0.54907  0.15224  1.0000
  S   S230      1.0  0.42946  0.54621  0.11709  1.0000
  S   S231      1.0  0.45163  0.52595  0.17064  1.0000
  C   C843      1.0  0.42164  0.51037  0.02855  1.0000
  C   C844      1.0  0.41235  0.51999  0.03283  1.0000
  C   C845      1.0  0.41496  0.53110  0.05980  1.0000
  C   C846      1.0  0.42690  0.53274  0.08258  1.0000
  C   C847      1.0  0.43633  0.52332  0.07788  1.0000
  C   C848      1.0  0.43372  0.51224  0.05104  1.0000
  C   C849      1.0  0.37704  0.50875  0.11799  1.0000
  H   H1000     1.0  0.40766  0.53841  0.06313  1.0000
  H   H1001     1.0  0.44564  0.52453  0.09502  1.0000
  H   H1002     1.0  0.44112  0.50504  0.04783  1.0000
  C   C850      1.0  0.40764  0.51376  0.33876  1.0000
  C   C851      1.0  0.40871  0.52290  0.31017  1.0000
  C   C852      1.0  0.42163  0.52598  0.28783  1.0000
  C   C853      1.0  0.43362  0.52006  0.29412  1.0000
  C   C854      1.0  0.43270  0.51127  0.32305  1.0000
  C   C855      1.0  0.41970  0.50796  0.34505  1.0000
  H   H1003     1.0  0.39948  0.52753  0.30524  1.0000
  H   H1004     1.0  0.42220  0.53279  0.26568  1.0000
  H   H1005     1.0  0.44209  0.50697  0.32860  1.0000
  H   H1006     1.0  0.41910  0.50106  0.36709  1.0000
  C   C856      1.0  0.28812  0.42249  0.47519  1.0000
  C   C857      1.0  0.29092  0.41400  0.44786  1.0000
  C   C858      1.0  0.30652  0.41884  0.43423  1.0000
  C   C859      1.0  0.31954  0.43231  0.44743  1.0000
  C   C860      1.0  0.31675  0.44083  0.47477  1.0000
  H   H1007     1.0  0.37434  0.50387  0.01046  1.0000
  H   H1008     1.0  0.28107  0.40368  0.43725  1.0000
  H   H1009     1.0  0.30848  0.41208  0.41321  1.0000
  H   H1010     1.0  0.45088  0.44865  0.30177  1.0000
  N   N55       1.0  0.36167  0.48255  0.04044  1.0000
  C   C861      1.0  0.42284  0.42237  0.34393  1.0000
  C   C862      1.0  0.40933  0.42645  0.34758  1.0000
  C   C863      1.0  0.40836  0.43706  0.37318  1.0000
  C   C864      1.0  0.42086  0.44348  0.39533  1.0000
  C   C865      1.0  0.43435  0.43934  0.39168  1.0000
  C   C866      1.0  0.43537  0.42884  0.36598  1.0000
  H   H1011     1.0  0.39959  0.42142  0.33060  1.0000
  H   H1012     1.0  0.39789  0.44014  0.37599  1.0000
  H   H1013     1.0  0.44404  0.44428  0.40877  1.0000
  H   H1014     1.0  0.44588  0.42581  0.36323  1.0000
  C   C867      1.0  0.43924  0.33306  0.29918  1.0000
  C   C868      1.0  0.42788  0.33442  0.27803  1.0000
  H   H1015     1.0  0.42150  0.37700  0.31867  1.0000
  H   H1016     1.0  0.42906  0.34659  0.26969  1.0000
  H   H1017     1.0  0.40617  0.32119  0.25143  1.0000
  N   N56       1.0  0.40738  0.35919  0.35447  1.0000
  C   C869      1.0  0.41772  0.36765  0.38232  1.0000
  H   H1018     1.0  0.42882  0.47956  0.26154  1.0000
  C   C870      1.0  0.39483  0.36622  0.35226  1.0000
  H   H1019     1.0  0.45031  0.34026  0.15124  1.0000
  H   H1020     1.0  0.33924  0.47848  0.01721  1.0000
  H   H1021     1.0  0.24894  0.41998  0.39411  1.0000
  H   H1022     1.0  0.43971  0.54277  0.38999  1.0000
  H   H1023     1.0  0.44624  0.48911  0.28660  1.0000
  C   C871      1.0  0.42639  0.44816  0.26732  1.0000
  H   H1024     1.0  0.42226  0.38155  0.38040  1.0000
  H   H1025     1.0  0.41101  0.36409  0.40594  1.0000
  H   H1026     1.0  0.42849  0.36449  0.38364  1.0000
  S   S232      1.0  0.45550  0.35094  0.31447  1.0000
  C   C872      1.0  0.44870  0.46042  0.30345  1.0000
  C   C873      1.0  0.41155  0.33236  0.36111  1.0000
  C   C874      1.0  0.46620  0.48333  0.19817  1.0000
  C   C875      1.0  0.46142  0.47658  0.46904  1.0000
  Fe  Fe116     1.0  0.21986  0.36259  0.46495  1.0000
  C   C876      1.0  0.36712  0.50081  0.09191  1.0000
  Fe  Fe117     1.0  0.46164  0.37911  0.30930  1.0000
  H   H1027     1.0  0.37523  0.33603  0.35843  1.0000
  H   H1028     1.0  0.45636  0.44354  0.24978  1.0000
  H   H1029     1.0  0.42881  0.57838  0.30857  1.0000
  C   C877      1.0  0.45598  0.48092  0.22542  1.0000
  C   C878      1.0  0.46386  0.48882  0.49416  1.0000
  C   C879      1.0  0.37127  0.49029  0.06956  1.0000
  C   C880      1.0  0.38579  0.48813  0.07526  1.0000
  H   H1030     1.0  0.42915  0.43677  0.26387  1.0000
  C   C881      1.0  0.38424  0.33077  0.35983  1.0000
  H   H1031     1.0  0.45370  0.55641  0.27172  1.0000
  H   H1032     1.0  0.43631  0.50623  0.48467  1.0000
  C   C882      1.0  0.37115  0.49011  0.01073  1.0000
  H   H1033     1.0  0.44097  0.49263  0.45666  1.0000
  C   C883      1.0  0.45131  0.33407  0.17321  1.0000
  C   C884      1.0  0.40094  0.34081  0.35878  1.0000
  H   H1034     1.0  0.45246  0.59840  0.28898  1.0000
  N   N57       1.0  0.31129  0.45754  0.36734  1.0000
  C   C885      1.0  0.31939  0.44628  0.35659  1.0000
  C   C886      1.0  0.31242  0.46924  0.34054  1.0000
  C   C887      1.0  0.32033  0.46779  0.39529  1.0000
  C   C888      1.0  0.29423  0.44743  0.37525  1.0000
  C   C889      1.0  0.28735  0.44716  0.40693  1.0000
  C   C890      1.0  0.28395  0.43722  0.35085  1.0000
  C   C891      1.0  0.27118  0.43742  0.41341  1.0000
  C   C892      1.0  0.26780  0.42751  0.35767  1.0000
  C   C893      1.0  0.26144  0.42763  0.38888  1.0000
  H   H1035     1.0  0.31479  0.43978  0.33312  1.0000
  H   H1036     1.0  0.33259  0.45313  0.35338  1.0000
  H   H1037     1.0  0.31762  0.43643  0.37498  1.0000
  H   H1038     1.0  0.30732  0.46260  0.31744  1.0000
  H   H1039     1.0  0.32512  0.47746  0.33483  1.0000
  H   H1040     1.0  0.30587  0.47744  0.34724  1.0000
  H   H1041     1.0  0.33314  0.47515  0.38870  1.0000
  H   H1042     1.0  0.31512  0.47684  0.40420  1.0000
  H   H1043     1.0  0.32060  0.45981  0.41594  1.0000
  H   H1044     1.0  0.29423  0.45404  0.42742  1.0000
  H   H1045     1.0  0.28836  0.43653  0.32637  1.0000
  H   H1046     1.0  0.26622  0.43718  0.43785  1.0000
  H   H1047     1.0  0.26012  0.41971  0.33883  1.0000
  H   H1048     1.0  0.36855  0.46118  0.03735  1.0000
  H   H1049     1.0  0.41753  0.44545  0.28794  1.0000
  S   S233      1.0  0.26864  0.41701  0.49330  1.0000
  H   H1050     1.0  0.40018  0.38008  0.34900  1.0000
  H   H1051     1.0  0.44989  0.47062  0.45775  1.0000
  H   H1052     1.0  0.40683  0.49467  0.10472  1.0000
  C   C894      1.0  0.34627  0.48490  0.03906  1.0000
  C   C895      1.0  0.44978  0.55968  0.34996  1.0000
  H   H1053     1.0  0.46039  0.47094  0.30777  1.0000
  H   H1054     1.0  0.37395  0.51710  0.13427  1.0000
  C   C896      1.0  0.30115  0.43589  0.48859  1.0000
  H   H1055     1.0  0.32658  0.45123  0.48520  1.0000
  H   H1056     1.0  0.44106  0.45916  0.32579  1.0000
  H   H1057     1.0  0.39922  0.51310  0.14215  1.0000
  H   H1058     1.0  0.41342  0.54517  0.38887  1.0000
  C   C897      1.0  0.41713  0.36344  0.32392  1.0000
  C   C898      1.0  0.43198  0.57108  0.32606  1.0000
  H   H1059     1.0  0.38726  0.36390  0.37488  1.0000
  H   H1060     1.0  0.46098  0.55799  0.35108  1.0000
  H   H1061     1.0  0.42442  0.33911  0.36027  1.0000
  C   C899      1.0  0.39550  0.49599  0.10159  1.0000
  C   C900      1.0  0.44725  0.56992  0.32585  1.0000
  C   C901      1.0  0.45208  0.46657  0.24540  1.0000
  S   S234      1.0  0.23137  0.37556  0.01657  1.0000
  H   H1062     1.0  0.35645  0.50339  0.08943  1.0000
  H   H1063     1.0  0.40832  0.56302  0.34816  1.0000
  S   S235      1.0  0.22677  0.40917  0.45973  1.0000
  H   H1064     1.0  0.38704  0.36101  0.33082  1.0000
  C   C902      1.0  0.43773  0.55098  0.37251  1.0000
  H   H1065     1.0  0.42039  0.44964  0.24488  1.0000
  C   C903      1.0  0.45904  0.45493  0.23627  1.0000
  C   C904      1.0  0.42290  0.55232  0.37196  1.0000
  C   C905      1.0  0.39123  0.50641  0.12271  1.0000
  H   H1066     1.0  0.42777  0.47476  0.30379  1.0000
  N   N58       1.0  0.44094  0.46331  0.27392  1.0000
  H   H1067     1.0  0.39016  0.48096  0.05858  1.0000
  C   C906      1.0  0.43575  0.47729  0.28170  1.0000
  H   H1068     1.0  0.33853  0.47957  0.06087  1.0000
  H   H1069     1.0  0.35108  0.45820  0.06216  1.0000
  C   C907      1.0  0.35774  0.46424  0.03964  1.0000
  H   H1070     1.0  0.22027  0.33021  0.06319  1.0000
  H   H1071     1.0  0.34823  0.49834  0.03690  1.0000
  Fe  Fe118     1.0  0.38871  0.48523  0.48024  1.0000
  H   H1072     1.0  0.43721  0.45516  0.01176  1.0000
  H   H1073     1.0  0.43120  0.47001  0.49538  1.0000
  C   C908      1.0  0.46445  0.56593  0.28322  1.0000
  C   C909      1.0  0.44587  0.50166  0.47723  1.0000
  H   H1074     1.0  0.44598  0.36426  0.21399  1.0000
  C   C910      1.0  0.41494  0.31993  0.26750  1.0000
  N   N59       1.0  0.46004  0.57850  0.30151  1.0000
  H   H1075     1.0  0.44484  0.57993  0.26284  1.0000
  H   H1076     1.0  0.46050  0.38262  0.19520  1.0000
  C   C911      1.0  0.22260  0.31987  0.05220  1.0000
  H   H1077     1.0  0.44937  0.36501  0.17062  1.0000
  Fe  Fe119     1.0  0.21979  0.38988  0.41935  1.0000
  C   C912      1.0  0.45540  0.36869  0.19448  1.0000
  C   C913      1.0  0.45531  0.58818  0.27718  1.0000
  C   C914      1.0  0.46085  0.33401  0.22792  1.0000
  C   C915      1.0  0.23309  0.32284  0.02550  1.0000
  H   H1078     1.0  0.38258  0.48813  0.00890  1.0000
  H   H1079     1.0  0.23882  0.33540  0.01593  1.0000
  H   H1080     1.0  0.46720  0.33984  0.24976  1.0000
  N   N60       1.0  0.46791  0.36183  0.19894  1.0000
  H   H1081     1.0  0.46864  0.36671  0.25085  1.0000
  N   N61       1.0  0.40570  0.52976  0.67656  1.0000
  S   S236      1.0  0.45672  0.39189  0.77570  1.0000
  C   C916      1.0  0.41906  0.54588  0.66874  1.0000
  C   C917      1.0  0.37457  0.50708  0.59580  1.0000
  S   S237      1.0  0.44876  0.42625  0.82176  1.0000
  H   H1082     1.0  0.25113  0.40544  0.55539  1.0000
  C   C918      1.0  0.37189  0.49923  0.62593  1.0000
  H   H1083     1.0  0.43471  0.46464  0.77020  1.0000
  S   S238      1.0  0.23306  0.40724  0.97095  1.0000
  H   H1084     1.0  0.44032  0.48763  0.73088  1.0000
  C   C919      1.0  0.39656  0.53288  0.70472  1.0000
  H   H1085     1.0  0.42689  0.55104  0.69011  1.0000
  H   H1086     1.0  0.46581  0.49802  0.69940  1.0000
  H   H1087     1.0  0.44466  0.50955  0.54026  1.0000
  S   S239      1.0  0.23092  0.37199  0.93775  1.0000
  Fe  Fe120     1.0  0.36498  0.46304  0.93678  1.0000
  S   S240      1.0  0.38124  0.45768  0.97166  1.0000
  S   S241      1.0  0.33935  0.46043  0.95098  1.0000
  Fe  Fe121     1.0  0.39171  0.47669  0.88447  1.0000
  S   S242      1.0  0.40965  0.47271  0.91618  1.0000
  S   S243      1.0  0.39905  0.48174  0.83089  1.0000
  Fe  Fe122     1.0  0.39041  0.44805  0.92774  1.0000
  S   S244      1.0  0.39820  0.42638  0.93138  1.0000
  Fe  Fe123     1.0  0.39966  0.48291  0.95818  1.0000
  H   H1088     1.0  0.38929  0.52845  0.56811  1.0000
  S   S245      1.0  0.37260  0.45105  0.89381  1.0000
  S   S246      1.0  0.38309  0.48923  0.92534  1.0000
  Fe  Fe124     1.0  0.45646  0.55174  0.71378  1.0000
  C   C920      1.0  0.45141  0.48709  0.95785  1.0000
  S   S247      1.0  0.43836  0.54892  0.75503  1.0000
  H   H1089     1.0  0.45409  0.45188  0.77776  1.0000
  S   S248      1.0  0.45156  0.55577  0.59116  1.0000
  C   C921      1.0  0.30671  0.44445  0.96179  1.0000
  C   C922      1.0  0.41156  0.50962  0.54728  1.0000
  H   H1090     1.0  0.41488  0.52470  0.50453  1.0000
  C   C923      1.0  0.43158  0.53796  0.54224  1.0000
  C   C924      1.0  0.43682  0.53750  0.57411  1.0000
  C   C925      1.0  0.42980  0.52279  0.59198  1.0000
  C   C926      1.0  0.41707  0.50902  0.57882  1.0000
  N   N62       1.0  0.44994  0.47090  0.97198  1.0000
  H   H1091     1.0  0.43696  0.54928  0.52820  1.0000
  H   H1092     1.0  0.43391  0.52217  0.61621  1.0000
  H   H1093     1.0  0.41124  0.49795  0.59338  1.0000
  C   C927      1.0  0.41157  0.50088  0.81288  1.0000
  C   C928      1.0  0.41160  0.51627  0.82397  1.0000
  C   C929      1.0  0.42015  0.53095  0.80635  1.0000
  C   C930      1.0  0.42906  0.53045  0.77806  1.0000
  C   C931      1.0  0.42956  0.51518  0.76773  1.0000
  C   C932      1.0  0.42060  0.50043  0.78473  1.0000
  H   H1094     1.0  0.40455  0.51674  0.84538  1.0000
  H   H1095     1.0  0.41966  0.54270  0.81451  1.0000
  H   H1096     1.0  0.43653  0.51466  0.74626  1.0000
  H   H1097     1.0  0.42055  0.48855  0.77601  1.0000
  C   C933      1.0  0.29169  0.41424  0.96372  1.0000
  C   C934      1.0  0.30627  0.41215  0.95840  1.0000
  C   C935      1.0  0.32094  0.42606  0.95463  1.0000
  C   C936      1.0  0.32125  0.44234  0.95611  1.0000
  S   S249      1.0  0.46059  0.38792  0.85334  1.0000
  C   C937      1.0  0.29204  0.43053  0.96556  1.0000
  C   C938      1.0  0.43646  0.47909  0.51565  1.0000
  H   H1098     1.0  0.33196  0.42416  0.95037  1.0000
  H   H1099     1.0  0.45412  0.60349  0.81138  1.0000
  H   H1100     1.0  0.26408  0.43698  0.56247  1.0000
  C   C939      1.0  0.43552  0.42663  0.85372  1.0000
  C   C940      1.0  0.42713  0.43715  0.85088  1.0000
  C   C941      1.0  0.41587  0.43730  0.87489  1.0000
  C   C942      1.0  0.41282  0.42681  0.90183  1.0000
  C   C943      1.0  0.42145  0.41651  0.90510  1.0000
  C   C944      1.0  0.43293  0.41657  0.88128  1.0000
  H   H1101     1.0  0.42911  0.44503  0.82974  1.0000
  H   H1102     1.0  0.40918  0.44516  0.87192  1.0000
  H   H1103     1.0  0.41923  0.40848  0.92607  1.0000
  H   H1104     1.0  0.43967  0.40875  0.88415  1.0000
  H   H1105     1.0  0.40342  0.37515  0.76705  1.0000
  H   H1106     1.0  0.46497  0.42278  0.53403  1.0000
  C   C945      1.0  0.39706  0.53031  0.61791  1.0000
  H   H1107     1.0  0.45255  0.32630  0.81974  1.0000
  C   C946      1.0  0.38180  0.50682  0.65219  1.0000
  H   H1108     1.0  0.42691  0.54437  0.64860  1.0000
  H   H1109     1.0  0.41458  0.55561  0.66177  1.0000
  C   C947      1.0  0.39485  0.52249  0.64888  1.0000
  S   S250      1.0  0.45606  0.53415  0.67241  1.0000
  C   C948      1.0  0.41911  0.52402  0.52872  1.0000
  S   S251      1.0  0.41896  0.49593  0.99564  1.0000
  H   H1110     1.0  0.44119  0.44506  0.95570  1.0000
  C   C949      1.0  0.25517  0.43596  0.58250  1.0000
  H   H1111     1.0  0.28104  0.43244  0.97005  1.0000
  H   H1112     1.0  0.38962  0.37346  0.87631  1.0000
  S   S252      1.0  0.43562  0.34725  0.79763  1.0000
  C   C950      1.0  0.45707  0.46184  0.76032  1.0000
  H   H1113     1.0  0.37642  0.39204  0.89424  1.0000
  H   H1114     1.0  0.36727  0.50091  0.57509  1.0000
  H   H1115     1.0  0.37938  0.50013  0.67496  1.0000
  H   H1116     1.0  0.46146  0.58952  0.83089  1.0000
  C   C951      1.0  0.38700  0.52264  0.59192  1.0000
  H   H1117     1.0  0.23211  0.43464  0.54218  1.0000
  Fe  Fe125     1.0  0.24656  0.39030  0.97442  1.0000
  H   H1118     1.0  0.46080  0.49109  0.93825  1.0000
  H   H1119     1.0  0.45136  0.46022  0.92440  1.0000
  H   H1120     1.0  0.45436  0.49732  0.97644  1.0000
  H   H1121     1.0  0.24255  0.41593  0.64256  1.0000
  C   C952      1.0  0.23411  0.42283  0.54457  1.0000
  H   H1122     1.0  0.38706  0.52118  0.71395  1.0000
  H   H1123     1.0  0.22275  0.41208  0.53909  1.0000
  C   C953      1.0  0.44089  0.31817  0.81105  1.0000
  H   H1124     1.0  0.45854  0.50118  0.55427  1.0000
  C   C954      1.0  0.46522  0.60196  0.81898  1.0000
  H   H1125     1.0  0.22300  0.41311  0.68663  1.0000
  N   N63       1.0  0.45062  0.49392  0.50492  1.0000
  H   H1126     1.0  0.36229  0.48703  0.62868  1.0000
  S   S253      1.0  0.39431  0.49282  0.53343  1.0000
  H   H1127     1.0  0.42892  0.39025  0.83851  1.0000
  H   H1128     1.0  0.39070  0.54152  0.69803  1.0000
  H   H1129     1.0  0.46476  0.51824  0.52546  1.0000
  Fe  Fe126     1.0  0.45759  0.37159  0.80804  1.0000
  H   H1130     1.0  0.46534  0.57655  0.78165  1.0000
  C   C955      1.0  0.44584  0.46904  0.75606  1.0000
  S   S254      1.0  0.27355  0.39603  0.96739  1.0000
  C   C956      1.0  0.43052  0.32515  0.79904  1.0000
  H   H1131     1.0  0.26093  0.43521  0.60574  1.0000
  H   H1132     1.0  0.45632  0.58825  0.76011  1.0000
  H   H1133     1.0  0.41605  0.37557  0.86726  1.0000
  H   H1134     1.0  0.40135  0.34790  0.81185  1.0000
  H   H1135     1.0  0.38448  0.35371  0.80637  1.0000
  H   H1136     1.0  0.40421  0.40175  0.78644  1.0000
  H   H1137     1.0  0.39154  0.35237  0.84651  1.0000
  C   C957      1.0  0.23162  0.41745  0.63668  1.0000
  H   H1138     1.0  0.42608  0.36865  0.83583  1.0000
  C   C958      1.0  0.44335  0.45775  0.94639  1.0000
  N   N64       1.0  0.24001  0.42129  0.57738  1.0000
  S   S255      1.0  0.22695  0.37977  0.50863  1.0000
  H   H1139     1.0  0.30620  0.39964  0.95702  1.0000
  H   H1140     1.0  0.25303  0.44779  0.58323  1.0000
  Fe  Fe127     1.0  0.46284  0.55671  0.64058  1.0000
  C   C959      1.0  0.44898  0.48198  0.73403  1.0000
  H   H1141     1.0  0.30676  0.45695  0.96310  1.0000
  C   C960      1.0  0.45493  0.50623  0.53242  1.0000
  S   S256      1.0  0.46119  0.57391  0.68139  1.0000
  H   H1142     1.0  0.39071  0.41960  0.80568  1.0000
  H   H1143     1.0  0.37676  0.41500  0.85933  1.0000
  H   H1144     1.0  0.43152  0.45705  0.93781  1.0000
  N   N65       1.0  0.26447  0.41425  0.87457  1.0000
  C   C961      1.0  0.25806  0.39568  0.87590  1.0000
  C   C962      1.0  0.25798  0.42025  0.90346  1.0000
  C   C963      1.0  0.25817  0.41879  0.84472  1.0000
  C   C964      1.0  0.28221  0.42217  0.87442  1.0000
  C   C965      1.0  0.29014  0.43984  0.87251  1.0000
  C   C966      1.0  0.29208  0.41285  0.87693  1.0000
  C   C967      1.0  0.30686  0.44767  0.87319  1.0000
  C   C968      1.0  0.30880  0.42081  0.87717  1.0000
  C   C969      1.0  0.31616  0.43817  0.87546  1.0000
  H   H1145     1.0  0.24469  0.39015  0.87560  1.0000
  H   H1146     1.0  0.26227  0.39020  0.85466  1.0000
  H   H1147     1.0  0.26150  0.39133  0.89887  1.0000
  H   H1148     1.0  0.26229  0.41690  0.92643  1.0000
  H   H1149     1.0  0.24464  0.41460  0.90425  1.0000
  H   H1150     1.0  0.26145  0.43401  0.90379  1.0000
  H   H1151     1.0  0.26325  0.41508  0.82235  1.0000
  H   H1152     1.0  0.24482  0.41247  0.84377  1.0000
  H   H1153     1.0  0.26090  0.43241  0.84352  1.0000
  H   H1154     1.0  0.28345  0.44778  0.87127  1.0000
  H   H1155     1.0  0.28721  0.39943  0.87977  1.0000
  H   H1156     1.0  0.31267  0.46120  0.87280  1.0000
  H   H1157     1.0  0.31608  0.41352  0.88006  1.0000
  H   H1158     1.0  0.32910  0.44431  0.87704  1.0000
  C   C970      1.0  0.41286  0.51785  0.68665  1.0000
  H   H1159     1.0  0.40451  0.53856  0.72584  1.0000
  H   H1160     1.0  0.42217  0.52349  0.70539  1.0000
  H   H1161     1.0  0.41861  0.51396  0.66551  1.0000
  H   H1162     1.0  0.40390  0.50633  0.69773  1.0000
  H   H1163     1.0  0.40681  0.54206  0.61262  1.0000
  N   N66       1.0  0.40633  0.37423  0.81898  1.0000
  C   C971      1.0  0.41299  0.37715  0.78511  1.0000
  C   C972      1.0  0.41987  0.37729  0.84118  1.0000
  C   C973      1.0  0.39539  0.35633  0.82105  1.0000
  C   C974      1.0  0.39781  0.38518  0.82895  1.0000
  C   C975      1.0  0.39791  0.39869  0.80960  1.0000
  C   C976      1.0  0.38968  0.38299  0.85966  1.0000
  C   C977      1.0  0.39015  0.40910  0.82033  1.0000
  C   C978      1.0  0.38202  0.39351  0.87016  1.0000
  C   C979      1.0  0.38222  0.40651  0.85052  1.0000
  H   H1164     1.0  0.42235  0.38999  0.78234  1.0000
  H   H1165     1.0  0.41903  0.36847  0.77819  1.0000
  H   H1166     1.0  0.24287  0.42303  0.52488  1.0000
  C   C980      1.0  0.24353  0.40590  0.57694  1.0000
  H   H1167     1.0  0.36438  0.48474  0.98815  1.0000
  H   H1168     1.0  0.25023  0.40495  0.59862  1.0000
  Fe  Fe128     1.0  0.46152  0.40844  0.81985  1.0000
  C   C981      1.0  0.46336  0.48780  0.71627  1.0000
  H   H1169     1.0  0.43996  0.48633  0.94720  1.0000
  H   H1170     1.0  0.29917  0.44255  0.50975  1.0000
  H   H1171     1.0  0.42652  0.48268  0.52502  1.0000
  H   H1172     1.0  0.23228  0.39449  0.57605  1.0000
  C   C982      1.0  0.46572  0.47233  0.98410  1.0000
  H   H1173     1.0  0.42590  0.46494  0.99089  1.0000
  H   H1174     1.0  0.40722  0.31943  0.77860  1.0000
  C   C983      1.0  0.22060  0.41598  0.66217  1.0000
  C   C984      1.0  0.22844  0.42050  0.60417  1.0000
  C   C985      1.0  0.43810  0.46682  0.99943  1.0000
  H   H1175     1.0  0.43963  0.47234  0.53536  1.0000
  H   H1176     1.0  0.46604  0.43476  0.75668  1.0000
  C   C986      1.0  0.46800  0.58860  0.76890  1.0000
  H   H1177     1.0  0.46845  0.45195  0.95489  1.0000
  H   H1178     1.0  0.44226  0.83954  0.39215  1.0000
  S   S257      1.0  0.45484  0.92647  0.50243  1.0000
  C   C987      1.0  0.45951  0.97900  0.27441  1.0000
  H   H1179     1.0  0.45490  0.95363  0.01299  1.0000
  C   C988      1.0  0.46406  0.84588  0.34422  1.0000
  Fe  Fe129     1.0  0.24042  0.81743  0.21491  1.0000
  S   S258      1.0  0.26731  0.82388  0.22352  1.0000
  S   S259      1.0  0.23051  0.83178  0.18296  1.0000
  Fe  Fe130     1.0  0.39298  0.91958  0.18465  1.0000
  S   S260      1.0  0.37740  0.90374  0.14506  1.0000
  S   S261      1.0  0.40716  0.94754  0.18824  1.0000
  Fe  Fe131     1.0  0.38894  0.88990  0.22694  1.0000
  S   S262      1.0  0.37312  0.87118  0.19058  1.0000
  S   S263      1.0  0.39463  0.88343  0.27751  1.0000
  Fe  Fe132     1.0  0.39064  0.88693  0.15257  1.0000
  S   S264      1.0  0.39784  0.87440  0.10938  1.0000
  Fe  Fe133     1.0  0.36055  0.88889  0.18528  1.0000
  S   S265      1.0  0.33364  0.88098  0.17472  1.0000
  S   S266      1.0  0.40749  0.90379  0.18940  1.0000
  S   S267      1.0  0.37514  0.90659  0.22439  1.0000
  H   H1180     1.0  0.42340  0.84781  0.36956  1.0000
  H   H1181     1.0  0.28965  0.81982  0.11010  1.0000
  C   C989      1.0  0.41974  0.98154  0.09883  1.0000
  C   C990      1.0  0.41367  0.88700  0.08339  1.0000
  C   C991      1.0  0.41913  0.87956  0.05750  1.0000
  H   H1182     1.0  0.31641  0.89647  0.22395  1.0000
  H   H1183     1.0  0.26494  0.85964  0.21852  1.0000
  C   C992      1.0  0.43326  0.91414  0.06690  1.0000
  C   C993      1.0  0.42081  0.90435  0.08801  1.0000
  H   H1184     1.0  0.41367  0.86615  0.05375  1.0000
  C   C994      1.0  0.30773  0.91429  0.24555  1.0000
  H   H1185     1.0  0.43868  0.92753  0.07076  1.0000
  H   H1186     1.0  0.41672  0.91024  0.10780  1.0000
  C   C995      1.0  0.41417  0.89211  0.29359  1.0000
  C   C996      1.0  0.41622  0.89159  0.32741  1.0000
  C   C997      1.0  0.43166  0.89792  0.34087  1.0000
  C   C998      1.0  0.44517  0.90471  0.32048  1.0000
  C   C999      1.0  0.44313  0.90506  0.28665  1.0000
  C   C1000     1.0  0.42771  0.89886  0.27325  1.0000
  H   H1187     1.0  0.40580  0.88622  0.34326  1.0000
  H   H1188     1.0  0.43308  0.89755  0.36693  1.0000
  H   H1189     1.0  0.45354  0.91017  0.27069  1.0000
  H   H1190     1.0  0.42631  0.89903  0.24715  1.0000
  C   C1001     1.0  0.31545  0.86468  0.18826  1.0000
  C   C1002     1.0  0.31472  0.85477  0.21529  1.0000
  C   C1003     1.0  0.29994  0.84232  0.22545  1.0000
  C   C1004     1.0  0.28563  0.83963  0.20897  1.0000
  C   C1005     1.0  0.28636  0.84953  0.18190  1.0000
  C   C1006     1.0  0.30115  0.86197  0.17175  1.0000
  H   H1191     1.0  0.32554  0.85671  0.22843  1.0000
  H   H1192     1.0  0.29958  0.83475  0.24636  1.0000
  H   H1193     1.0  0.27556  0.84758  0.16870  1.0000
  H   H1194     1.0  0.30150  0.86957  0.15088  1.0000
  C   C1007     1.0  0.35802  0.84390  0.09709  1.0000
  C   C1008     1.0  0.41220  0.96015  0.15312  1.0000
  H   H1195     1.0  0.27380  0.86371  0.30631  1.0000
  C   C1009     1.0  0.42620  0.93999  0.29748  1.0000
  C   C1010     1.0  0.40506  0.95418  0.12306  1.0000
  C   C1011     1.0  0.44364  0.85684  0.33444  1.0000
  C   C1012     1.0  0.43875  0.90673  0.04103  1.0000
  H   H1196     1.0  0.39643  0.94144  0.12082  1.0000
  H   H1197     1.0  0.27110  0.90552  0.27979  1.0000
  H   H1198     1.0  0.41017  0.85657  0.27487  1.0000
  C   C1013     1.0  0.29487  0.91658  0.26125  1.0000
  C   C1014     1.0  0.29234  0.88447  0.24325  1.0000
  S   S268      1.0  0.46174  0.89520  0.42919  1.0000
  C   C1015     1.0  0.28065  0.90283  0.26800  1.0000
  C   C1016     1.0  0.25702  0.86425  0.23336  1.0000
  H   H1199     1.0  0.24729  0.88359  0.27098  1.0000
  N   N67       1.0  0.34502  0.85027  0.09421  1.0000
  C   C1017     1.0  0.40874  0.96489  0.09605  1.0000
  H   H1200     1.0  0.42364  0.94791  0.44935  1.0000
  C   C1018     1.0  0.27901  0.88627  0.25929  1.0000
  C   C1019     1.0  0.26757  0.85853  0.28310  1.0000
  C   C1020     1.0  0.43165  0.88937  0.03641  1.0000
  H   H1201     1.0  0.25450  0.87359  0.21863  1.0000
  N   N68       1.0  0.43459  0.96511  0.48887  1.0000
  H   H1202     1.0  0.24077  0.86362  0.28904  1.0000
  H   H1203     1.0  0.29189  0.87235  0.23538  1.0000
  H   H1204     1.0  0.33348  0.85701  0.05453  1.0000
  H   H1205     1.0  0.25644  0.84748  0.28900  1.0000
  N   N69       1.0  0.26406  0.87143  0.26516  1.0000
  H   H1206     1.0  0.40288  0.96032  0.07310  1.0000
  H   H1207     1.0  0.43574  0.88354  0.01652  1.0000
  C   C1021     1.0  0.30161  0.82419  0.11998  1.0000
  C   C1022     1.0  0.30645  0.89826  0.23653  1.0000
  H   H1208     1.0  0.31869  0.92496  0.24012  1.0000
  H   H1209     1.0  0.43091  0.93031  0.30315  1.0000
  C   C1023     1.0  0.35085  0.86766  0.10698  1.0000
  C   C1024     1.0  0.30354  0.82061  0.15218  1.0000
  H   H1210     1.0  0.43824  0.86573  0.25524  1.0000
  H   H1211     1.0  0.32017  0.82418  0.19081  1.0000
  H   H1212     1.0  0.43079  0.96847  0.23877  1.0000
  H   H1213     1.0  0.25620  0.88081  0.30861  1.0000
  H   H1214     1.0  0.34358  0.84124  0.15858  1.0000
  H   H1215     1.0  0.35308  0.85805  0.04493  1.0000
  H   H1216     1.0  0.24549  0.85340  0.23675  1.0000
  H   H1217     1.0  0.41348  0.93275  0.29073  1.0000
  S   S269      1.0  0.22605  0.81925  0.25978  1.0000
  C   C1025     1.0  0.25167  0.87516  0.28440  1.0000
  C   C1026     1.0  0.33214  0.83623  0.14663  1.0000
  C   C1027     1.0  0.41544  0.85138  0.32338  1.0000
  H   H1218     1.0  0.31249  0.83612  0.07620  1.0000
  H   H1219     1.0  0.33699  0.83790  0.04803  1.0000
  H   H1220     1.0  0.42391  0.93278  0.23389  1.0000
  H   H1221     1.0  0.43655  0.95102  0.03396  1.0000
  S   S270      1.0  0.22157  0.79230  0.19957  1.0000
  H   H1222     1.0  0.45931  0.86609  0.29175  1.0000
  H   H1223     1.0  0.34153  0.87306  0.10528  1.0000
  C   C1028     1.0  0.31492  0.83364  0.10075  1.0000
  C   C1029     1.0  0.42335  0.97673  0.15574  1.0000
  H   H1224     1.0  0.36187  0.87597  0.09374  1.0000
  C   C1030     1.0  0.45106  0.85271  0.39064  1.0000
  H   H1225     1.0  0.45498  0.83284  0.34236  1.0000
  H   H1226     1.0  0.29588  0.92912  0.26798  1.0000
  H   H1227     1.0  0.35389  0.86832  0.13317  1.0000
  H   H1228     1.0  0.44264  0.93276  0.24731  1.0000
  N   N70       1.0  0.45662  0.85746  0.35649  1.0000
  H   H1229     1.0  0.45020  0.96150  0.43022  1.0000
  H   H1230     1.0  0.41931  0.93877  0.48911  1.0000
  C   C1031     1.0  0.45424  0.97401  0.44043  1.0000
  Fe  Fe134     1.0  0.46797  0.91763  0.46294  1.0000
  C   C1032     1.0  0.34190  0.85073  0.05888  1.0000
  C   C1033     1.0  0.33068  0.83984  0.11350  1.0000
  C   C1034     1.0  0.44719  0.86173  0.30135  1.0000
  C   C1035     1.0  0.42732  0.85158  0.34486  1.0000
  H   H1231     1.0  0.35366  0.83030  0.09117  1.0000
  H   H1232     1.0  0.43858  0.94337  0.47131  1.0000
  H   H1233     1.0  0.46367  0.88383  0.36407  1.0000
  H   H1234     1.0  0.42609  0.97037  0.28162  1.0000
  H   H1235     1.0  0.27518  0.85335  0.26863  1.0000
  C   C1036     1.0  0.43613  0.94098  0.24210  1.0000
  C   C1037     1.0  0.43521  0.86149  0.28015  1.0000
  H   H1236     1.0  0.36324  0.84595  0.12188  1.0000
  N   N71       1.0  0.43540  0.95130  0.27085  1.0000
  H   H1237     1.0  0.44555  0.86112  0.40161  1.0000
  H   H1238     1.0  0.36842  0.85055  0.08053  1.0000
  C   C1038     1.0  0.42613  0.96145  0.26177  1.0000
  H   H1239     1.0  0.42625  0.94717  0.32031  1.0000
  C   C1039     1.0  0.45196  0.96160  0.28109  1.0000
  C   C1040     1.0  0.42065  0.97006  0.49230  1.0000
  C   C1041     1.0  0.42879  0.94811  0.47380  1.0000
  H   H1240     1.0  0.41338  0.95344  0.25661  1.0000
  H   H1241     1.0  0.29315  0.81360  0.16722  1.0000
  C   C1042     1.0  0.31879  0.82655  0.16542  1.0000
  S   S271      1.0  0.46484  0.91337  0.33589  1.0000
  H   H1242     1.0  0.40313  0.84777  0.33188  1.0000
  H   H1243     1.0  0.41633  0.97186  0.46802  1.0000
  C   C1043     1.0  0.41938  0.85631  0.29114  1.0000
  S   S272      1.0  0.45430  0.91985  0.01512  1.0000
  C   C1044     1.0  0.44760  0.97785  0.46987  1.0000
  H   H1244     1.0  0.44234  0.94894  0.22098  1.0000
  H   H1245     1.0  0.42893  0.98144  0.17887  1.0000
  C   C1045     1.0  0.45253  0.98323  0.02417  1.0000
  H   H1246     1.0  0.42079  0.96661  0.01779  1.0000
  H   H1247     1.0  0.46116  0.85372  0.40679  1.0000
  H   H1248     1.0  0.45693  0.94087  0.30106  1.0000
  C   C1046     1.0  0.44292  0.95414  0.00988  1.0000
  H   H1249     1.0  0.44712  0.97915  0.04883  1.0000
  C   C1047     1.0  0.46142  0.95415  0.29659  1.0000
  C   C1048     1.0  0.46519  0.96993  0.59240  1.0000
  S   S273      1.0  0.23709  0.83298  0.75530  1.0000
  H   H1250     1.0  0.42352  0.98195  0.50633  1.0000
  S   S274      1.0  0.23568  0.79724  0.72613  1.0000
  H   H1251     1.0  0.44394  0.97582  0.53587  1.0000
  Fe  Fe135     1.0  0.25023  0.82449  0.71588  1.0000
  S   S275      1.0  0.27728  0.83012  0.71145  1.0000
  S   S276      1.0  0.23374  0.82510  0.67588  1.0000
  Fe  Fe136     1.0  0.40302  0.92644  0.68253  1.0000
  S   S277      1.0  0.38474  0.91337  0.64459  1.0000
  S   S278      1.0  0.41903  0.95391  0.68640  1.0000
  Fe  Fe137     1.0  0.39691  0.89461  0.72015  1.0000
  S   S279      1.0  0.37846  0.87855  0.68454  1.0000
  S   S280      1.0  0.40098  0.88295  0.76658  1.0000
  Fe  Fe138     1.0  0.39550  0.89396  0.64553  1.0000
  S   S281      1.0  0.39911  0.88153  0.59848  1.0000
  Fe  Fe139     1.0  0.36883  0.89883  0.68606  1.0000
  S   S282      1.0  0.34217  0.89462  0.68862  1.0000
  S   S283      1.0  0.41486  0.90790  0.68095  1.0000
  S   S284      1.0  0.38622  0.91405  0.72413  1.0000
  Fe  Fe140     1.0  0.22136  0.80579  0.76242  1.0000
  H   H1252     1.0  0.35401  0.86845  0.82679  1.0000
  Fe  Fe141     1.0  0.21949  0.83150  0.71625  1.0000
  C   C1049     1.0  0.41487  0.89391  0.57219  1.0000
  C   C1050     1.0  0.41974  0.88643  0.54551  1.0000
  C   C1051     1.0  0.35395  0.84835  0.60298  1.0000
  C   C1052     1.0  0.42796  0.97041  0.99469  1.0000
  C   C1053     1.0  0.43462  0.92090  0.55558  1.0000
  C   C1054     1.0  0.42241  0.91119  0.57717  1.0000
  C   C1055     1.0  0.43217  0.89615  0.52414  1.0000
  H   H1253     1.0  0.46534  0.87109  0.83228  1.0000
  H   H1254     1.0  0.46623  0.94555  0.59020  1.0000
  H   H1255     1.0  0.41876  0.91710  0.59760  1.0000
  C   C1056     1.0  0.41855  0.89320  0.78944  1.0000
  C   C1057     1.0  0.42028  0.88658  0.81953  1.0000
  C   C1058     1.0  0.43411  0.89453  0.83830  1.0000
  C   C1059     1.0  0.44633  0.90912  0.82694  1.0000
  C   C1060     1.0  0.44467  0.91558  0.79672  1.0000
  C   C1061     1.0  0.43082  0.90775  0.77812  1.0000
  H   H1256     1.0  0.41086  0.87530  0.82841  1.0000
  H   H1257     1.0  0.43528  0.88941  0.86151  1.0000
  H   H1258     1.0  0.45418  0.92672  0.78764  1.0000
  H   H1259     1.0  0.42967  0.91292  0.75495  1.0000
  C   C1062     1.0  0.32427  0.87643  0.69455  1.0000
  C   C1063     1.0  0.32451  0.86071  0.70086  1.0000
  C   C1064     1.0  0.31002  0.84677  0.70594  1.0000
  C   C1065     1.0  0.29508  0.84828  0.70470  1.0000
  C   C1066     1.0  0.29483  0.86396  0.69815  1.0000
  C   C1067     1.0  0.30934  0.87793  0.69320  1.0000
  H   H1260     1.0  0.33580  0.85920  0.70179  1.0000
  H   H1261     1.0  0.31036  0.83471  0.71101  1.0000
  H   H1262     1.0  0.28347  0.86535  0.69705  1.0000
  H   H1263     1.0  0.30897  0.89000  0.68833  1.0000
  H   H1264     1.0  0.41047  0.96054  0.50578  1.0000
  C   C1068     1.0  0.42334  0.96670  0.65166  1.0000
  H   H1265     1.0  0.45180  0.95117  0.76367  1.0000
  C   C1069     1.0  0.35249  0.87477  0.61796  1.0000
  C   C1070     1.0  0.41602  0.96064  0.62180  1.0000
  H   H1266     1.0  0.35220  0.87874  0.55437  1.0000
  C   C1071     1.0  0.43416  0.98342  0.65428  1.0000
  H   H1267     1.0  0.40768  0.94779  0.61958  1.0000
  C   C1072     1.0  0.35502  0.88139  0.82201  1.0000
  C   C1073     1.0  0.35313  0.90109  0.78380  1.0000
  C   C1074     1.0  0.32104  0.85456  0.56485  1.0000
  S   S285      1.0  0.46407  0.91967  0.84898  1.0000
  H   H1268     1.0  0.45088  0.96017  0.52043  1.0000
  C   C1075     1.0  0.29815  0.85266  0.78526  1.0000
  H   H1269     1.0  0.29778  0.84895  0.54422  1.0000
  S   S286      1.0  0.46052  0.89249  0.93444  1.0000
  N   N72       1.0  0.34755  0.86101  0.59344  1.0000
  C   C1076     1.0  0.35535  0.86812  0.56180  1.0000
  H   H1270     1.0  0.42147  0.96148  0.97505  1.0000
  N   N73       1.0  0.34887  0.88297  0.78950  1.0000
  H   H1271     1.0  0.29731  0.83240  0.64215  1.0000
  C   C1077     1.0  0.32074  0.84513  0.62019  1.0000
  C   C1078     1.0  0.30426  0.84781  0.56535  1.0000
  C   C1079     1.0  0.29576  0.83983  0.59311  1.0000
  H   H1272     1.0  0.36576  0.88109  0.61876  1.0000
  C   C1080     1.0  0.30898  0.84552  0.79310  1.0000
  C   C1081     1.0  0.32004  0.87967  0.77973  1.0000
  C   C1082     1.0  0.45839  0.96471  0.94787  1.0000
  C   C1083     1.0  0.30399  0.83845  0.62042  1.0000
  H   H1273     1.0  0.32347  0.89260  0.77307  1.0000
  H   H1274     1.0  0.34758  0.88440  0.61251  1.0000
  H   H1275     1.0  0.41399  0.87306  0.54152  1.0000
  C   C1084     1.0  0.46071  0.96370  0.75997  1.0000
  H   H1276     1.0  0.34824  0.87027  0.64301  1.0000
  H   H1277     1.0  0.28276  0.83482  0.59366  1.0000
  H   H1278     1.0  0.32654  0.84406  0.64227  1.0000
  H   H1279     1.0  0.34993  0.90335  0.75871  1.0000
  H   H1280     1.0  0.28549  0.84487  0.78317  1.0000
  H   H1281     1.0  0.22764  0.93617  0.79742  1.0000
  C   C1085     1.0  0.30366  0.86968  0.77863  1.0000
  H   H1282     1.0  0.29520  0.87501  0.77139  1.0000
  C   C1086     1.0  0.32982  0.85341  0.59243  1.0000
  H   H1283     1.0  0.33332  0.84922  0.80017  1.0000
  H   H1284     1.0  0.44027  0.93422  0.55968  1.0000
  H   H1285     1.0  0.36733  0.85355  0.60222  1.0000
  H   H1286     1.0  0.32684  0.86075  0.54273  1.0000
  C   C1087     1.0  0.32538  0.85540  0.79454  1.0000
  H   H1287     1.0  0.34840  0.88511  0.84187  1.0000
  C   C1088     1.0  0.33142  0.87283  0.78807  1.0000
  H   H1288     1.0  0.36626  0.90841  0.78582  1.0000
  H   H1289     1.0  0.36870  0.87333  0.56336  1.0000
  H   H1290     1.0  0.34710  0.90654  0.80191  1.0000
  H   H1291     1.0  0.35211  0.85842  0.54211  1.0000
  H   H1292     1.0  0.34966  0.83724  0.58636  1.0000
  H   H1293     1.0  0.22120  0.75899  0.74366  1.0000
  H   H1294     1.0  0.41316  0.96677  0.57224  1.0000
  C   C1089     1.0  0.35737  0.87686  0.76429  1.0000
  H   H1295     1.0  0.35553  0.86354  0.76750  1.0000
  H   H1296     1.0  0.36802  0.88942  0.82415  1.0000
  H   H1297     1.0  0.30462  0.83218  0.79738  1.0000
  H   H1298     1.0  0.35336  0.87816  0.73945  1.0000
  C   C1090     1.0  0.44037  0.96386  0.52188  1.0000
  H   H1299     1.0  0.37054  0.88408  0.76489  1.0000
  H   H1300     1.0  0.35051  0.84395  0.62837  1.0000
  C   C1091     1.0  0.41918  0.97140  0.59499  1.0000
  C   C1092     1.0  0.45336  0.97575  0.96698  1.0000
  H   H1301     1.0  0.45583  0.95199  0.95507  1.0000
  C   C1093     1.0  0.43963  0.91346  0.52910  1.0000
  H   H1302     1.0  0.43093  0.95438  0.53697  1.0000
  C   C1094     1.0  0.46699  0.96989  0.91850  1.0000
  Fe  Fe142     1.0  0.46766  0.91277  0.97340  1.0000
  H   H1303     1.0  0.42805  0.98292  0.98870  1.0000
  H   H1304     1.0  0.46760  0.89005  0.81327  1.0000
  H   H1305     1.0  0.43592  0.94387  0.99288  1.0000
  H   H1306     1.0  0.22180  0.93705  0.83927  1.0000
  H   H1307     1.0  0.44597  0.97036  0.72738  1.0000
  H   H1308     1.0  0.45677  0.96692  0.61291  1.0000
  C   C1095     1.0  0.45743  0.97455  0.73947  1.0000
  H   H1309     1.0  0.21979  0.77706  0.51762  1.0000
  N   N74       1.0  0.44437  0.97082  0.99832  1.0000
  H   H1310     1.0  0.43590  0.89027  0.50379  1.0000
  Fe  Fe143     1.0  0.70111  0.13387  0.28425  1.0000
  H   H1311     1.0  0.49265  0.00132  0.48905  1.0000
  S   S287      1.0  0.67571  0.13077  0.30130  1.0000
  S   S288      1.0  0.70892  0.13180  0.23226  1.0000
  H   H1312     1.0  0.60034  0.10644  0.27073  1.0000
  Fe  Fe144     1.0  0.58224  0.06529  0.31588  1.0000
  S   S289      1.0  0.56634  0.04847  0.27743  1.0000
  S   S290      1.0  0.60843  0.06762  0.31085  1.0000
  Fe  Fe145     1.0  0.55331  0.06973  0.34944  1.0000
  S   S291      1.0  0.53566  0.05369  0.31287  1.0000
  S   S292      1.0  0.54475  0.08257  0.38997  1.0000
  Fe  Fe146     1.0  0.54878  0.03657  0.31806  1.0000
  S   S293      1.0  0.53510  0.00852  0.31469  1.0000
  Fe  Fe147     1.0  0.55452  0.06688  0.27528  1.0000
  S   S294      1.0  0.55065  0.07668  0.22640  1.0000
  S   S295      1.0  0.56537  0.05178  0.35716  1.0000
  S   S296      1.0  0.57144  0.08457  0.31136  1.0000
  C   C1096     1.0  0.70747  0.14757  0.37164  1.0000
  S   S297      1.0  0.48262  0.06109  0.06593  1.0000
  H   H1313     1.0  0.59885  0.12099  0.24171  1.0000
  C   C1097     1.0  0.47271  0.00289  0.43487  1.0000
  S   S298      1.0  0.48452  0.03868  0.15434  1.0000
  H   H1314     1.0  0.56546  0.00941  0.28789  1.0000
  C   C1098     1.0  0.53017  0.99590  0.34969  1.0000
  C   C1099     1.0  0.53679  0.00206  0.38009  1.0000
  C   C1100     1.0  0.50490  0.99019  0.01237  1.0000
  H   H1315     1.0  0.54449  0.01511  0.38303  1.0000
  H   H1316     1.0  0.65321  0.09769  0.22963  1.0000
  C   C1101     1.0  0.53188  0.07021  0.42096  1.0000
  C   C1102     1.0  0.52487  0.07769  0.44397  1.0000
  C   C1103     1.0  0.51492  0.06825  0.46940  1.0000
  C   C1104     1.0  0.51210  0.05128  0.47225  1.0000
  C   C1105     1.0  0.51900  0.04376  0.44908  1.0000
  C   C1106     1.0  0.52875  0.05314  0.42341  1.0000
  H   H1317     1.0  0.52723  0.09088  0.44222  1.0000
  H   H1318     1.0  0.70425  0.16659  0.42959  1.0000
  H   H1319     1.0  0.51690  0.03065  0.45108  1.0000
  H   H1320     1.0  0.53407  0.04724  0.40583  1.0000
  C   C1107     1.0  0.53260  0.06566  0.20546  1.0000
  C   C1108     1.0  0.52993  0.07145  0.17520  1.0000
  C   C1109     1.0  0.51548  0.06308  0.15852  1.0000
  C   C1110     1.0  0.50357  0.04889  0.17215  1.0000
  C   C1111     1.0  0.50631  0.04311  0.20230  1.0000
  C   C1112     1.0  0.52076  0.05137  0.21879  1.0000
  H   H1321     1.0  0.53903  0.08250  0.16471  1.0000
  H   H1322     1.0  0.51349  0.06771  0.13541  1.0000
  H   H1323     1.0  0.49714  0.03221  0.21311  1.0000
  H   H1324     1.0  0.52266  0.04675  0.24199  1.0000
  C   C1113     1.0  0.65715  0.11298  0.30363  1.0000
  C   C1114     1.0  0.65624  0.09655  0.29957  1.0000
  C   C1115     1.0  0.64127  0.08291  0.30187  1.0000
  C   C1116     1.0  0.62697  0.08542  0.30822  1.0000
  C   C1117     1.0  0.62788  0.10184  0.31228  1.0000
  C   C1118     1.0  0.64285  0.11548  0.31009  1.0000
  H   H1325     1.0  0.66707  0.09434  0.29465  1.0000
  H   H1326     1.0  0.64079  0.07030  0.29872  1.0000
  H   H1327     1.0  0.61708  0.10405  0.31755  1.0000
  H   H1328     1.0  0.64335  0.12810  0.31339  1.0000
  H   H1329     1.0  0.51643  0.10390  0.26464  1.0000
  Fe  Fe148     1.0  0.47473  0.04150  0.10516  1.0000
  H   H1330     1.0  0.57939  0.00021  0.27360  1.0000
  H   H1331     1.0  0.53692  0.00043  0.00966  1.0000
  C   C1119     1.0  0.71065  0.12371  0.39381  1.0000
  C   C1120     1.0  0.57961  0.02126  0.34416  1.0000
  H   H1332     1.0  0.60019  0.99895  0.31185  1.0000
  H   H1333     1.0  0.68140  0.12253  0.39677  1.0000
  H   H1334     1.0  0.47111  0.01993  0.47228  1.0000
  H   H1335     1.0  0.58599  0.02232  0.28069  1.0000
  C   C1121     1.0  0.62804  0.12428  0.21522  1.0000
  H   H1336     1.0  0.50971  0.07418  0.48715  1.0000
  H   H1337     1.0  0.70332  0.15802  0.37505  1.0000
  C   C1122     1.0  0.65379  0.12224  0.22094  1.0000
  C   C1123     1.0  0.48400  0.08994  0.19634  1.0000
  C   C1124     1.0  0.61979  0.10683  0.22036  1.0000
  H   H1338     1.0  0.50680  0.07506  0.24243  1.0000
  C   C1125     1.0  0.50739  0.10007  0.24592  1.0000
  H   H1339     1.0  0.70220  0.11512  0.37587  1.0000
  H   H1340     1.0  0.58694  0.03380  0.33393  1.0000
  C   C1126     1.0  0.64478  0.13183  0.21580  1.0000
  H   H1341     1.0  0.58231  0.10175  0.24788  1.0000
  H   H1342     1.0  0.48083  0.00161  0.27851  1.0000
  N   N75       1.0  0.47244  0.08447  0.16934  1.0000
  C   C1127     1.0  0.57268  0.98727  0.37106  1.0000
  H   H1343     1.0  0.69988  0.13929  0.35221  1.0000
  C   C1128     1.0  0.64612  0.10504  0.22518  1.0000
  H   H1344     1.0  0.62159  0.13226  0.21120  1.0000
  N   N76       1.0  0.60204  0.09926  0.22071  1.0000
  H   H1345     1.0  0.59908  0.07386  0.20854  1.0000
  H   H1346     1.0  0.56687  0.01987  0.34475  1.0000
  C   C1129     1.0  0.50192  0.08380  0.23349  1.0000
  H   H1347     1.0  0.47262  0.07803  0.11841  1.0000
  H   H1348     1.0  0.47458  0.10862  0.15174  1.0000
  S   S299      1.0  0.71572  0.12063  0.30515  1.0000
  H   H1349     1.0  0.71022  0.11619  0.41576  1.0000
  C   C1130     1.0  0.59841  0.00935  0.32553  1.0000
  H   H1350     1.0  0.60082  0.09593  0.16857  1.0000
  H   H1351     1.0  0.49624  0.98808  0.30711  1.0000
  C   C1131     1.0  0.68959  0.13171  0.41433  1.0000
  C   C1132     1.0  0.47526  0.98836  0.28393  1.0000
  C   C1133     1.0  0.57789  0.00986  0.29014  1.0000
  C   C1134     1.0  0.59530  0.08104  0.22746  1.0000
  N   N77       1.0  0.58144  0.00755  0.32452  1.0000
  H   H1352     1.0  0.48540  0.07172  0.14282  1.0000
  C   C1135     1.0  0.71421  0.16398  0.43829  1.0000
  C   C1136     1.0  0.57085  0.99122  0.33830  1.0000
  H   H1353     1.0  0.60663  0.02140  0.31465  1.0000
  H   H1354     1.0  0.50354  0.00899  0.04799  1.0000
  H   H1355     1.0  0.58335  0.02153  0.36984  1.0000
  H   H1356     1.0  0.48673  0.06610  0.20005  1.0000
  C   C1137     1.0  0.50135  0.11138  0.23405  1.0000
  H   H1357     1.0  0.60251  0.00935  0.35088  1.0000
  C   C1138     1.0  0.59598  0.10158  0.18862  1.0000
  N   N78       1.0  0.70646  0.13832  0.40216  1.0000
  H   H1358     1.0  0.50573  0.12407  0.24372  1.0000
  H   H1359     1.0  0.59927  0.11499  0.18291  1.0000
  H   H1360     1.0  0.58195  0.07575  0.22760  1.0000
  C   C1139     1.0  0.48078  0.08177  0.13959  1.0000
  C   C1140     1.0  0.59566  0.10750  0.24632  1.0000
  H   H1361     1.0  0.66675  0.12816  0.22227  1.0000
  H   H1362     1.0  0.58172  0.99600  0.38644  1.0000
  H   H1363     1.0  0.65084  0.14523  0.21270  1.0000
  H   H1364     1.0  0.59889  0.07842  0.25188  1.0000
  H   H1365     1.0  0.62429  0.08413  0.23002  1.0000
  H   H1366     1.0  0.68479  0.14167  0.41774  1.0000
  H   H1367     1.0  0.58261  0.09558  0.18790  1.0000
  H   H1368     1.0  0.53931  0.99582  0.42984  1.0000
  C   C1141     1.0  0.62938  0.09738  0.22525  1.0000
  C   C1142     1.0  0.53375  0.99115  0.40665  1.0000
  C   C1143     1.0  0.49040  0.07878  0.20916  1.0000
  H   H1369     1.0  0.48586  0.11594  0.20113  1.0000
  H   H1370     1.0  0.68845  0.12534  0.43814  1.0000
  H   H1371     1.0  0.48238  0.01250  0.42176  1.0000
  C   C1144     1.0  0.48986  0.10650  0.20952  1.0000
  H   H1372     1.0  0.48589  0.98916  0.08654  1.0000
  C   C1145     1.0  0.71712  0.14982  0.42668  1.0000
  C   C1146     1.0  0.49983  0.99587  0.04178  1.0000
  H   H1373     1.0  0.52732  0.02315  0.01976  1.0000
  C   C1147     1.0  0.50297  0.99847  0.49701  1.0000
  H   H1374     1.0  0.49121  0.09331  0.13278  1.0000
  H   H1375     1.0  0.51127  0.00069  0.47548  1.0000
  Fe  Fe149     1.0  0.47468  0.03947  0.02993  1.0000
  S   S300      1.0  0.46911  0.02025  0.06925  1.0000
  C   C1148     1.0  0.48961  0.98455  0.06429  1.0000
  Fe  Fe150     1.0  0.70055  0.12891  0.78808  1.0000
  S   S301      1.0  0.50053  0.03911  0.50486  1.0000
  S   S302      1.0  0.67524  0.12603  0.80562  1.0000
  S   S303      1.0  0.70680  0.11948  0.74022  1.0000
  H   H1376     1.0  0.51673  0.00879  0.75012  1.0000
  Fe  Fe151     1.0  0.58079  0.05968  0.81978  1.0000
  S   S304      1.0  0.56422  0.04258  0.78247  1.0000
  S   S305      1.0  0.60738  0.06357  0.81274  1.0000
  Fe  Fe152     1.0  0.55252  0.06447  0.85465  1.0000
  S   S306      1.0  0.53433  0.04874  0.81865  1.0000
  S   S307      1.0  0.54548  0.07671  0.89843  1.0000
  Fe  Fe153     1.0  0.54687  0.03104  0.82348  1.0000
  S   S308      1.0  0.53001  0.00372  0.82179  1.0000
  Fe  Fe154     1.0  0.55286  0.06138  0.78009  1.0000
  S   S309      1.0  0.54982  0.06704  0.72714  1.0000
  S   S310      1.0  0.56423  0.04610  0.86155  1.0000
  S   S311      1.0  0.57019  0.07915  0.81562  1.0000
  H   H1377     1.0  0.52827  0.02801  0.97735  1.0000
  S   S312      1.0  0.48726  0.07095  0.56711  1.0000
  C   C1149     1.0  0.48679  0.98525  0.77117  1.0000
  H   H1378     1.0  0.62291  0.06757  0.72625  1.0000
  S   S313      1.0  0.48434  0.06144  0.66305  1.0000
  S   S314      1.0  0.47693  0.03122  0.58316  1.0000
  H   H1379     1.0  0.50772  0.03048  0.70580  1.0000
  H   H1380     1.0  0.51054  0.01671  0.78684  1.0000
  H   H1381     1.0  0.59718  0.06117  0.74490  1.0000
  H   H1382     1.0  0.54929  0.00727  0.87951  1.0000
  H   H1383     1.0  0.59986  0.10495  0.74930  1.0000
  C   C1150     1.0  0.52859  0.06432  0.92212  1.0000
  C   C1151     1.0  0.51944  0.04776  0.91319  1.0000
  C   C1152     1.0  0.50593  0.03821  0.93205  1.0000
  C   C1153     1.0  0.50152  0.04502  0.96023  1.0000
  C   C1154     1.0  0.51074  0.06153  0.96944  1.0000
  C   C1155     1.0  0.52420  0.07117  0.95033  1.0000
  H   H1384     1.0  0.52272  0.04234  0.89159  1.0000
  H   H1385     1.0  0.49886  0.02550  0.92465  1.0000
  H   H1386     1.0  0.68985  0.11911  0.91349  1.0000
  H   H1387     1.0  0.53126  0.08397  0.95739  1.0000
  C   C1156     1.0  0.53136  0.06498  0.70987  1.0000
  C   C1157     1.0  0.52932  0.06237  0.67600  1.0000
  C   C1158     1.0  0.51491  0.06096  0.66133  1.0000
  C   C1159     1.0  0.50250  0.06251  0.68036  1.0000
  C   C1160     1.0  0.50457  0.06521  0.71419  1.0000
  C   C1161     1.0  0.51888  0.06634  0.72893  1.0000
  H   H1388     1.0  0.53895  0.06141  0.66099  1.0000
  H   H1389     1.0  0.51351  0.05896  0.63524  1.0000
  H   H1390     1.0  0.49509  0.06655  0.72908  1.0000
  H   H1391     1.0  0.52040  0.06862  0.75494  1.0000
  C   C1162     1.0  0.65652  0.10844  0.80750  1.0000
  C   C1163     1.0  0.65540  0.09195  0.80333  1.0000
  C   C1164     1.0  0.64030  0.07847  0.80530  1.0000
  C   C1165     1.0  0.62609  0.08120  0.81137  1.0000
  C   C1166     1.0  0.62724  0.09770  0.81579  1.0000
  C   C1167     1.0  0.64234  0.11118  0.81393  1.0000
  H   H1392     1.0  0.66613  0.08956  0.79857  1.0000
  H   H1393     1.0  0.63962  0.06579  0.80197  1.0000
  H   H1394     1.0  0.61653  0.10008  0.82091  1.0000
  H   H1395     1.0  0.64301  0.12384  0.81741  1.0000
  N   N79       1.0  0.60198  0.08456  0.72064  1.0000
  C   C1168     1.0  0.61972  0.09134  0.72159  1.0000
  C   C1169     1.0  0.70957  0.15123  0.92335  1.0000
  H   H1396     1.0  0.49143  0.11470  0.62174  1.0000
  C   C1170     1.0  0.59443  0.06599  0.72176  1.0000
  H   H1397     1.0  0.49670  0.00036  0.95712  1.0000
  H   H1398     1.0  0.67653  0.13981  0.91932  1.0000
  C   C1171     1.0  0.59565  0.09111  0.74901  1.0000
  C   C1172     1.0  0.59670  0.08981  0.69027  1.0000
  C   C1173     1.0  0.65371  0.10517  0.72469  1.0000
  H   H1399     1.0  0.48537  0.09264  0.62634  1.0000
  C   C1174     1.0  0.71596  0.05140  0.67878  1.0000
  C   C1175     1.0  0.62865  0.10889  0.72057  1.0000
  H   H1400     1.0  0.52005  0.03048  0.75428  1.0000
  C   C1176     1.0  0.68350  0.14601  0.89719  1.0000
  H   H1401     1.0  0.48482  0.00217  0.54224  1.0000
  H   H1402     1.0  0.53958  0.00700  0.96768  1.0000
  H   H1403     1.0  0.71079  0.16668  0.86738  1.0000
  H   H1404     1.0  0.71375  0.17619  0.99167  1.0000
  H   H1405     1.0  0.66664  0.11049  0.72699  1.0000
  H   H1406     1.0  0.49732  0.03878  0.76011  1.0000
  H   H1407     1.0  0.48399  0.13620  0.64135  1.0000
  S   S315      1.0  0.71882  0.15545  0.78111  1.0000
  H   H1408     1.0  0.60044  0.10360  0.68903  1.0000
  C   C1177     1.0  0.48123  0.98967  0.55177  1.0000
  C   C1178     1.0  0.71442  0.05258  0.71252  1.0000
  C   C1179     1.0  0.64538  0.11565  0.72232  1.0000
  H   H1409     1.0  0.59836  0.06011  0.70074  1.0000
  H   H1410     1.0  0.58231  0.08622  0.74909  1.0000
  H   H1411     1.0  0.51609  0.00757  0.93712  1.0000
  Fe  Fe155     1.0  0.47733  0.05413  0.61016  1.0000
  C   C1180     1.0  0.69571  0.12604  0.89108  1.0000
  H   H1412     1.0  0.59936  0.08738  0.77231  1.0000
  C   C1181     1.0  0.64535  0.08790  0.72537  1.0000
  H   H1413     1.0  0.58336  0.08441  0.68848  1.0000
  H   H1414     1.0  0.67587  0.14012  0.87572  1.0000
  C   C1182     1.0  0.52778  0.99091  0.85596  1.0000
  C   C1183     1.0  0.53905  0.99551  0.88082  1.0000
  C   C1184     1.0  0.70763  0.15295  0.86513  1.0000
  C   C1185     1.0  0.49808  0.01794  0.71006  1.0000
  H   H1415     1.0  0.70010  0.14848  0.84317  1.0000
  C   C1186     1.0  0.48097  0.10260  0.62012  1.0000
  N   N80       1.0  0.69918  0.14419  0.89491  1.0000
  C   C1187     1.0  0.62860  0.08100  0.72415  1.0000
  C   C1188     1.0  0.48870  0.02555  0.76122  1.0000
  H   H1416     1.0  0.68757  0.12037  0.87023  1.0000
  H   H1417     1.0  0.65187  0.07983  0.72823  1.0000
  H   H1418     1.0  0.60169  0.08564  0.66830  1.0000
  C   C1189     1.0  0.70582  0.16084  0.94835  1.0000
  H   H1419     1.0  0.58109  0.06135  0.72087  1.0000
  H   H1420     1.0  0.69484  0.16300  0.94872  1.0000
  H   H1421     1.0  0.50750  0.06689  0.99116  1.0000
  H   H1422     1.0  0.62274  0.11756  0.71912  1.0000
  C   C1190     1.0  0.48386  0.99661  0.75009  1.0000
  Fe  Fe156     1.0  0.48467  0.04747  0.53872  1.0000
  S   S316      1.0  0.48476  0.03210  0.98358  1.0000
  H   H1423     1.0  0.47753  0.02492  0.74942  1.0000
  H   H1424     1.0  0.51863  0.98617  0.53829  1.0000
  C   C1191     1.0  0.50834  0.99874  0.95574  1.0000
  H   H1425     1.0  0.68502  0.15939  0.89734  1.0000
  S   S317      1.0  0.71763  0.12149  0.81694  1.0000
  C   C1192     1.0  0.51132  0.01757  0.75974  1.0000
  N   N81       1.0  0.49539  0.01406  0.74541  1.0000
  H   H1426     1.0  0.71042  0.05748  0.66309  1.0000
  H   H1427     1.0  0.70664  0.12348  0.88588  1.0000
  H   H1428     1.0  0.65195  0.12910  0.72257  1.0000
  H   H1429     1.0  0.54639  0.98796  0.92543  1.0000
  C   C1193     1.0  0.47313  0.10527  0.67591  1.0000
  H   H1430     1.0  0.47758  0.99005  0.88471  1.0000
  H   H1431     1.0  0.52871  0.98558  0.97749  1.0000
  C   C1194     1.0  0.71657  0.16847  0.97339  1.0000
  H   H1432     1.0  0.48735  0.01837  0.69810  1.0000
  H   H1433     1.0  0.48583  0.02249  0.78749  1.0000
  C   C1195     1.0  0.52052  0.01968  0.99667  1.0000
  H   H1434     1.0  0.50165  0.00855  0.69679  1.0000
  H   H1435     1.0  0.70782  0.05966  0.72304  1.0000
  H   H1436     1.0  0.50948  0.00789  0.51599  1.0000
  N   N82       1.0  0.51595  0.00169  0.98821  1.0000
  H   H1437     1.0  0.48370  0.11720  0.67872  1.0000
  H   H1438     1.0  0.47697  0.09525  0.68446  1.0000
  H   H1439     1.0  0.49779  0.98861  0.78451  1.0000
  H   H1440     1.0  0.47202  0.12293  0.98055  1.0000
  H   H1441     1.0  0.47730  0.10067  0.59411  1.0000
  C   C1196     1.0  0.53093  0.99856  0.98567  1.0000
  C   C1197     1.0  0.47055  0.98573  0.57852  1.0000
  H   H1442     1.0  0.47462  0.15779  0.62492  1.0000
  H   H1443     1.0  0.50980  0.02290  0.99926  1.0000
  H   H1444     1.0  0.50601  0.98599  0.94582  1.0000
  C   C1198     1.0  0.47181  0.13227  0.63317  1.0000
  C   C1199     1.0  0.53737  0.98457  0.90683  1.0000
  C   C1200     1.0  0.47080  0.98608  0.90733  1.0000
  H   H1445     1.0  0.46890  0.00978  0.91678  1.0000
  Fe  Fe157     1.0  0.48057  0.41471  0.33673  1.0000
  H   H1446     1.0  0.51509  0.64536  0.14246  1.0000
  S   S318      1.0  0.49511  0.43580  0.37166  1.0000
  C   C1201     1.0  0.61746  0.56331  0.47534  1.0000
  S   S319      1.0  0.48062  0.41617  0.20943  1.0000
  S   S320      1.0  0.48683  0.39832  0.29949  1.0000
  Fe  Fe158     1.0  0.58111  0.48658  0.04546  1.0000
  S   S321      1.0  0.56561  0.49801  0.02189  1.0000
  H   H1447     1.0  0.55935  0.64858  0.17569  1.0000
  Fe  Fe159     1.0  0.55317  0.46520  0.09126  1.0000
  S   S322      1.0  0.53582  0.47495  0.07027  1.0000
  S   S323      1.0  0.54832  0.44889  0.13637  1.0000
  Fe  Fe160     1.0  0.54634  0.47193  0.02122  1.0000
  S   S324      1.0  0.71358  0.58022  0.04357  1.0000
  Fe  Fe161     1.0  0.55629  0.49996  0.07248  1.0000
  S   S325      1.0  0.55449  0.52349  0.09388  1.0000
  S   S326      1.0  0.56229  0.46016  0.04208  1.0000
  S   S327      1.0  0.57322  0.49049  0.09633  1.0000
  S   S328      1.0  0.71673  0.61310  0.47953  1.0000
  H   H1448     1.0  0.49078  0.50827  0.25315  1.0000
  H   H1449     1.0  0.66361  0.55808  0.41673  1.0000
  H   H1450     1.0  0.53865  0.61212  0.27164  1.0000
  H   H1451     1.0  0.68868  0.58066  0.48783  1.0000
  H   H1452     1.0  0.66656  0.54930  0.45425  1.0000
  H   H1453     1.0  0.49499  0.49650  0.03661  1.0000
  S   S329      1.0  0.48559  0.52012  0.13551  1.0000
  C   C1202     1.0  0.64337  0.58240  0.45513  1.0000
  S   S330      1.0  0.49284  0.59742  0.21814  1.0000
  S   S331      1.0  0.48272  0.55028  0.21080  1.0000
  C   C1203     1.0  0.50304  0.61894  0.20725  1.0000
  C   C1204     1.0  0.50506  0.62433  0.17487  1.0000
  C   C1205     1.0  0.50972  0.63095  0.23216  1.0000
  H   H1454     1.0  0.50008  0.61532  0.15538  1.0000
  H   H1455     1.0  0.50835  0.62699  0.25728  1.0000
  S   S332      1.0  0.60671  0.49028  0.02848  1.0000
  C   C1206     1.0  0.63898  0.53908  0.02484  1.0000
  S   S333      1.0  0.71336  0.56674  0.46952  1.0000
  C   C1207     1.0  0.51364  0.64143  0.16762  1.0000
  H   H1456     1.0  0.52873  0.60197  0.21646  1.0000
  C   C1208     1.0  0.62461  0.52484  0.02893  1.0000
  H   H1457     1.0  0.62706  0.50336  0.09677  1.0000
  H   H1458     1.0  0.63910  0.49488  0.01077  1.0000
  C   C1209     1.0  0.62449  0.50877  0.02384  1.0000
  H   H1459     1.0  0.49886  0.47633  0.46077  1.0000
  C   C1210     1.0  0.53530  0.52346  0.10248  1.0000
  C   C1211     1.0  0.53378  0.53699  0.11967  1.0000
  C   C1212     1.0  0.51853  0.53654  0.12907  1.0000
  C   C1213     1.0  0.50483  0.52246  0.12152  1.0000
  C   C1214     1.0  0.50639  0.50912  0.10389  1.0000
  C   C1215     1.0  0.52153  0.50972  0.09399  1.0000
  H   H1460     1.0  0.54441  0.54771  0.12614  1.0000
  H   H1461     1.0  0.51741  0.54686  0.14273  1.0000
  H   H1462     1.0  0.49580  0.49819  0.09814  1.0000
  H   H1463     1.0  0.52253  0.49943  0.08023  1.0000
  C   C1216     1.0  0.49960  0.42513  0.18974  1.0000
  C   C1217     1.0  0.50043  0.43108  0.15782  1.0000
  C   C1218     1.0  0.51523  0.43822  0.14102  1.0000
  C   C1219     1.0  0.52935  0.43938  0.15598  1.0000
  C   C1220     1.0  0.52849  0.43317  0.18773  1.0000
  C   C1221     1.0  0.51370  0.42621  0.20470  1.0000
  H   H1464     1.0  0.48956  0.43018  0.14596  1.0000
  H   H1465     1.0  0.51570  0.44278  0.11647  1.0000
  H   H1466     1.0  0.53937  0.43394  0.19940  1.0000
  H   H1467     1.0  0.51321  0.42159  0.22920  1.0000
  C   C1222     1.0  0.50734  0.43762  0.40603  1.0000
  C   C1223     1.0  0.51012  0.42406  0.41834  1.0000
  C   C1224     1.0  0.51996  0.42628  0.44572  1.0000
  C   C1225     1.0  0.52707  0.44203  0.46115  1.0000
  C   C1226     1.0  0.52423  0.45558  0.44891  1.0000
  C   C1227     1.0  0.51441  0.45335  0.42156  1.0000
  H   H1468     1.0  0.50481  0.41190  0.40662  1.0000
  H   H1469     1.0  0.52210  0.41573  0.45494  1.0000
  S   S334      1.0  0.67134  0.55606  0.01269  1.0000
  H   H1470     1.0  0.51243  0.46395  0.41210  1.0000
  H   H1471     1.0  0.67128  0.59009  0.41533  1.0000
  H   H1472     1.0  0.64899  0.50096  0.18714  1.0000
  N   N83       1.0  0.53263  0.48789  0.18721  1.0000
  C   C1228     1.0  0.53761  0.47597  0.20502  1.0000
  C   C1229     1.0  0.52481  0.47944  0.15683  1.0000
  C   C1230     1.0  0.54743  0.50247  0.17831  1.0000
  C   C1231     1.0  0.52140  0.49347  0.20613  1.0000
  C   C1232     1.0  0.51648  0.50578  0.19333  1.0000
  C   C1233     1.0  0.51452  0.48652  0.23674  1.0000
  C   C1234     1.0  0.50566  0.51109  0.21023  1.0000
  C   C1235     1.0  0.50367  0.49191  0.25349  1.0000
  H   H1473     1.0  0.47352  0.57174  0.26359  1.0000
  H   H1474     1.0  0.54635  0.47233  0.19038  1.0000
  H   H1475     1.0  0.54352  0.48150  0.22836  1.0000
  H   H1476     1.0  0.52725  0.46407  0.21017  1.0000
  H   H1477     1.0  0.51338  0.46872  0.16230  1.0000
  H   H1478     1.0  0.53268  0.47456  0.14232  1.0000
  H   H1479     1.0  0.52198  0.48801  0.14065  1.0000
  H   H1480     1.0  0.55327  0.50977  0.20035  1.0000
  H   H1481     1.0  0.55632  0.49852  0.16503  1.0000
  H   H1482     1.0  0.54513  0.51118  0.16152  1.0000
  H   H1483     1.0  0.52083  0.51125  0.16982  1.0000
  H   H1484     1.0  0.51722  0.47682  0.24819  1.0000
  N   N84       1.0  0.67937  0.54202  0.11200  1.0000
  H   H1485     1.0  0.49853  0.48639  0.27672  1.0000
  H   H1486     1.0  0.53919  0.62030  0.16897  1.0000
  C   C1236     1.0  0.65114  0.52150  0.10318  1.0000
  C   C1237     1.0  0.62418  0.55196  0.48352  1.0000
  C   C1238     1.0  0.63649  0.50077  0.14315  1.0000
  H   H1487     1.0  0.48414  0.59720  0.30030  1.0000
  H   H1488     1.0  0.48581  0.38102  0.17034  1.0000
  C   C1239     1.0  0.55495  0.63644  0.25543  1.0000
  C   C1240     1.0  0.49931  0.50422  0.24033  1.0000
  H   H1489     1.0  0.67665  0.60179  0.45358  1.0000
  H   H1490     1.0  0.68946  0.59278  0.43564  1.0000
  Fe  Fe162     1.0  0.47513  0.40870  0.26261  1.0000
  H   H1491     1.0  0.50199  0.52041  0.19956  1.0000
  H   H1492     1.0  0.52967  0.46778  0.46040  1.0000
  C   C1241     1.0  0.49638  0.47632  0.00711  1.0000
  C   C1242     1.0  0.63899  0.50721  0.01475  1.0000
  H   H1493     1.0  0.47371  0.36319  0.14715  1.0000
  C   C1243     1.0  0.54386  0.62476  0.19301  1.0000
  Fe  Fe163     1.0  0.47791  0.53948  0.16015  1.0000
  H   H1494     1.0  0.47964  0.58379  0.33480  1.0000
  C   C1244     1.0  0.67549  0.57683  0.49039  1.0000
  C   C1245     1.0  0.67037  0.56102  0.43990  1.0000
  C   C1246     1.0  0.48914  0.47963  0.47021  1.0000
  C   C1247     1.0  0.53795  0.61439  0.21979  1.0000
  S   S335      1.0  0.71149  0.54499  0.01011  1.0000
  S   S336      1.0  0.47572  0.56242  0.13943  1.0000
  H   H1495     1.0  0.67758  0.53386  0.06145  1.0000
  C   C1248     1.0  0.66475  0.52800  0.12340  1.0000
  C   C1249     1.0  0.47953  0.36711  0.17115  1.0000
  C   C1250     1.0  0.68588  0.53666  0.08231  1.0000
  H   H1496     1.0  0.60483  0.56036  0.48028  1.0000
  H   H1497     1.0  0.65116  0.52667  0.07947  1.0000
  Fe  Fe164     1.0  0.47835  0.57246  0.19160  1.0000
  H   H1498     1.0  0.68839  0.55223  0.15937  1.0000
  H   H1499     1.0  0.68621  0.56750  0.09585  1.0000
  H   H1500     1.0  0.67339  0.52410  0.17101  1.0000
  C   C1251     1.0  0.69237  0.54786  0.13636  1.0000
  H   H1501     1.0  0.48236  0.38352  0.22734  1.0000
  C   C1252     1.0  0.66362  0.52017  0.15407  1.0000
  H   H1502     1.0  0.66983  0.56059  0.12513  1.0000
  C   C1253     1.0  0.67539  0.55658  0.10383  1.0000
  C   C1254     1.0  0.55534  0.64098  0.19721  1.0000
  H   H1503     1.0  0.62569  0.49036  0.15057  1.0000
  H   H1504     1.0  0.69731  0.54660  0.07397  1.0000
  H   H1505     1.0  0.55857  0.64016  0.28021  1.0000
  C   C1255     1.0  0.63726  0.50811  0.11292  1.0000
  H   H1506     1.0  0.66693  0.55387  0.08324  1.0000
  C   C1256     1.0  0.56117  0.64739  0.22860  1.0000
  H   H1507     1.0  0.68837  0.52529  0.08691  1.0000
  C   C1257     1.0  0.54350  0.62020  0.25089  1.0000
  H   H1508     1.0  0.48664  0.36532  0.23349  1.0000
  C   C1258     1.0  0.47378  0.48473  0.00786  1.0000
  H   H1509     1.0  0.70305  0.55859  0.12705  1.0000
  H   H1510     1.0  0.69685  0.53791  0.14190  1.0000
  C   C1259     1.0  0.64047  0.55571  0.47750  1.0000
  C   C1260     1.0  0.47386  0.47205  0.45738  1.0000
  H   H1511     1.0  0.47154  0.59970  0.33303  1.0000
  N   N85       1.0  0.66793  0.57488  0.45812  1.0000
  H   H1512     1.0  0.68325  0.56412  0.43375  1.0000
  C   C1261     1.0  0.64964  0.50678  0.16368  1.0000
  H   H1513     1.0  0.64592  0.50561  0.49389  1.0000
  C   C1262     1.0  0.65059  0.57101  0.46304  1.0000
  H   H1514     1.0  0.49464  0.43165  0.48724  1.0000
  H   H1515     1.0  0.65010  0.59445  0.44452  1.0000
  H   H1516     1.0  0.61361  0.52632  0.03591  1.0000
  S   S337      1.0  0.47059  0.42624  0.29848  1.0000
  H   H1517     1.0  0.48457  0.44489  0.49969  1.0000
  C   C1263     1.0  0.47675  0.36960  0.22900  1.0000
  H   H1518     1.0  0.48885  0.36173  0.17304  1.0000
  C   C1264     1.0  0.65348  0.53753  0.01584  1.0000
  Fe  Fe165     1.0  0.69833  0.56215  0.00590  1.0000
  H   H1519     1.0  0.46963  0.55904  0.29884  1.0000
  C   C1265     1.0  0.67655  0.59054  0.43975  1.0000
  C   C1266     1.0  0.62702  0.57849  0.46115  1.0000
  H   H1520     1.0  0.63885  0.55142  0.02884  1.0000
  S   S338      1.0  0.53880  0.44402  0.49636  1.0000
  H   H1521     1.0  0.48099  0.47383  0.16914  1.0000
  C   C1267     1.0  0.51827  0.64805  0.22491  1.0000
  C   C1268     1.0  0.48893  0.48673  0.01893  1.0000
  H   H1522     1.0  0.50819  0.47794  0.01551  1.0000
  C   C1269     1.0  0.47445  0.59029  0.31823  1.0000
  H   H1523     1.0  0.47170  0.46282  0.43785  1.0000
  H   H1524     1.0  0.62173  0.58734  0.45504  1.0000
  C   C1270     1.0  0.49198  0.49166  0.49492  1.0000
  C   C1271     1.0  0.47299  0.47177  0.19019  1.0000
  H   H1525     1.0  0.47462  0.44850  0.20285  1.0000
  H   H1526     1.0  0.61676  0.54022  0.49496  1.0000
  H   H1527     1.0  0.64513  0.54657  0.48468  1.0000
  C   C1272     1.0  0.65339  0.52146  0.01082  1.0000
  C   C1273     1.0  0.46943  0.45759  0.20923  1.0000
  H   H1528     1.0  0.46895  0.49432  0.18315  1.0000
  H   H1529     1.0  0.66438  0.51999  0.00385  1.0000
  Fe  Fe166     1.0  0.48716  0.39732  0.84216  1.0000
  S   S339      1.0  0.48816  0.41895  0.81137  1.0000
  S   S340      1.0  0.50507  0.40074  0.88269  1.0000
  Fe  Fe167     1.0  0.48334  0.40078  0.76927  1.0000
  S   S341      1.0  0.49078  0.40664  0.71591  1.0000
  S   S342      1.0  0.48424  0.37949  0.79899  1.0000
  Fe  Fe168     1.0  0.57777  0.49756  0.55426  1.0000
  H   H1530     1.0  0.57876  0.47904  0.97845  1.0000
  S   S343      1.0  0.60384  0.51695  0.55790  1.0000
  Fe  Fe169     1.0  0.55189  0.47519  0.60288  1.0000
  S   S344      1.0  0.53184  0.47021  0.56806  1.0000
  S   S345      1.0  0.54952  0.46810  0.65650  1.0000
  C   C1274     1.0  0.47649  0.44167  0.74055  1.0000
  C   C1275     1.0  0.49163  0.46062  0.56103  1.0000
  Fe  Fe170     1.0  0.54355  0.49739  0.55617  1.0000
  S   S346      1.0  0.52792  0.51209  0.55070  1.0000
  S   S347      1.0  0.56820  0.46997  0.56575  1.0000
  S   S348      1.0  0.56241  0.50280  0.59370  1.0000
  C   C1276     1.0  0.61822  0.49130  0.60678  1.0000
  S   S349      1.0  0.67602  0.53212  0.50871  1.0000
  H   H1531     1.0  0.53849  0.41892  0.85558  1.0000
  H   H1532     1.0  0.49763  0.45691  0.78830  1.0000
  Fe  Fe171     1.0  0.54867  0.46711  0.52962  1.0000
  Fe  Fe172     1.0  0.48267  0.54308  0.67939  1.0000
  S   S350      1.0  0.48965  0.56482  0.64531  1.0000
  S   S351      1.0  0.49475  0.52463  0.68105  1.0000
  Fe  Fe173     1.0  0.48740  0.58009  0.68908  1.0000
  S   S352      1.0  0.50512  0.60439  0.71208  1.0000
  C   C1277     1.0  0.47475  0.48078  0.72054  1.0000
  C   C1278     1.0  0.51167  0.62594  0.70213  1.0000
  C   C1279     1.0  0.50870  0.63132  0.67195  1.0000
  C   C1280     1.0  0.52041  0.63803  0.72536  1.0000
  H   H1533     1.0  0.50202  0.62220  0.65384  1.0000
  H   H1534     1.0  0.52264  0.63402  0.74889  1.0000
  C   C1281     1.0  0.62384  0.52053  0.54451  1.0000
  C   C1282     1.0  0.63661  0.53447  0.55714  1.0000
  C   C1283     1.0  0.65265  0.53802  0.54718  1.0000
  C   C1284     1.0  0.65616  0.52772  0.52411  1.0000
  N   N86       1.0  0.60571  0.48433  0.63266  1.0000
  C   C1285     1.0  0.47959  0.49619  0.50697  1.0000
  H   H1535     1.0  0.58694  0.49132  0.65433  1.0000
  H   H1536     1.0  0.57457  0.42933  0.92701  1.0000
  H   H1537     1.0  0.48278  0.50567  0.52600  1.0000
  C   C1286     1.0  0.59516  0.46656  0.62693  1.0000
  C   C1287     1.0  0.51889  0.51564  0.58710  1.0000
  C   C1288     1.0  0.50919  0.52493  0.58627  1.0000
  C   C1289     1.0  0.50172  0.52775  0.61496  1.0000
  C   C1290     1.0  0.50387  0.52123  0.64461  1.0000
  C   C1291     1.0  0.51333  0.51167  0.64532  1.0000
  C   C1292     1.0  0.52087  0.50892  0.61667  1.0000
  H   H1538     1.0  0.50760  0.53012  0.56346  1.0000
  H   H1539     1.0  0.49435  0.53502  0.61412  1.0000
  H   H1540     1.0  0.51505  0.50660  0.66816  1.0000
  H   H1541     1.0  0.52824  0.50163  0.61748  1.0000
  C   C1293     1.0  0.50717  0.42394  0.70023  1.0000
  C   C1294     1.0  0.50862  0.42627  0.66628  1.0000
  C   C1295     1.0  0.52139  0.43988  0.65256  1.0000
  C   C1296     1.0  0.53295  0.45117  0.67273  1.0000
  C   C1297     1.0  0.53153  0.44882  0.70671  1.0000
  C   C1298     1.0  0.51865  0.43531  0.72046  1.0000
  H   H1542     1.0  0.49988  0.41739  0.65054  1.0000
  H   H1543     1.0  0.52242  0.44150  0.62639  1.0000
  H   H1544     1.0  0.54050  0.45746  0.72245  1.0000
  H   H1545     1.0  0.51773  0.43355  0.74661  1.0000
  C   C1299     1.0  0.51161  0.41850  0.90929  1.0000
  C   C1300     1.0  0.52128  0.41888  0.93598  1.0000
  C   C1301     1.0  0.52722  0.43307  0.95676  1.0000
  C   C1302     1.0  0.52361  0.44707  0.95091  1.0000
  C   C1303     1.0  0.51396  0.44667  0.92423  1.0000
  C   C1304     1.0  0.50792  0.43247  0.90364  1.0000
  H   H1546     1.0  0.52423  0.40815  0.94049  1.0000
  H   H1547     1.0  0.49313  0.48408  0.58249  1.0000
  H   H1548     1.0  0.51113  0.45745  0.91943  1.0000
  H   H1549     1.0  0.50055  0.43239  0.88321  1.0000
  H   H1550     1.0  0.63407  0.54266  0.57469  1.0000
  H   H1551     1.0  0.55567  0.40990  0.88980  1.0000
  C   C1305     1.0  0.49013  0.46568  0.61911  1.0000
  H   H1552     1.0  0.50729  0.46129  0.73346  1.0000
  H   H1553     1.0  0.62245  0.49917  0.66868  1.0000
  H   H1554     1.0  0.61272  0.49043  0.58244  1.0000
  S   S353      1.0  0.71401  0.57673  0.96397  1.0000
  N   N87       1.0  0.48371  0.45983  0.74849  1.0000
  C   C1306     1.0  0.47360  0.46180  0.97276  1.0000
  S   S354      1.0  0.70569  0.57740  0.54430  1.0000
  Fe  Fe174     1.0  0.70063  0.55360  0.51542  1.0000
  H   H1555     1.0  0.48574  0.48623  0.70636  1.0000
  S   S355      1.0  0.55935  0.49428  0.51535  1.0000
  H   H1556     1.0  0.49970  0.60371  0.78125  1.0000
  H   H1557     1.0  0.50463  0.41808  0.52407  1.0000
  H   H1558     1.0  0.56566  0.47829  0.94624  1.0000
  H   H1559     1.0  0.54030  0.44806  0.85883  1.0000
  C   C1307     1.0  0.64340  0.51368  0.51176  1.0000
  H   H1560     1.0  0.49093  0.63479  0.81704  1.0000
  H   H1561     1.0  0.60084  0.48664  0.93536  1.0000
  H   H1562     1.0  0.58040  0.44615  0.97449  1.0000
  H   H1563     1.0  0.59665  0.45134  0.94442  1.0000
  H   H1564     1.0  0.50506  0.48087  0.73410  1.0000
  H   H1565     1.0  0.49626  0.46560  0.70198  1.0000
  C   C1308     1.0  0.48826  0.46192  0.78335  1.0000
  H   H1566     1.0  0.50037  0.41741  0.56687  1.0000
  H   H1567     1.0  0.49053  0.47418  0.63916  1.0000
  H   H1568     1.0  0.53775  0.60729  0.67380  1.0000
  H   H1569     1.0  0.60353  0.50833  0.63713  1.0000
  H   H1570     1.0  0.50395  0.49767  0.50459  1.0000
  H   H1571     1.0  0.66227  0.54880  0.55717  1.0000
  H   H1572     1.0  0.62084  0.47784  0.66461  1.0000
  C   C1309     1.0  0.48839  0.44929  0.62516  1.0000
  C   C1310     1.0  0.50305  0.42562  0.54525  1.0000
  H   H1573     1.0  0.47797  0.45508  0.79995  1.0000
  H   H1574     1.0  0.57998  0.46464  0.67019  1.0000
  H   H1575     1.0  0.48737  0.44496  0.65007  1.0000
  H   H1576     1.0  0.58795  0.43360  0.57304  1.0000
  H   H1577     1.0  0.55914  0.46837  0.89547  1.0000
  H   H1578     1.0  0.58935  0.49349  0.61112  1.0000
  C   C1311     1.0  0.55371  0.63228  0.66110  1.0000
  C   C1312     1.0  0.54598  0.61936  0.68277  1.0000
  C   C1313     1.0  0.57374  0.43292  0.61612  1.0000
  C   C1314     1.0  0.59711  0.45706  0.59961  1.0000
  C   C1315     1.0  0.61394  0.48605  0.66418  1.0000
  H   H1579     1.0  0.56532  0.42023  0.61162  1.0000
  C   C1316     1.0  0.58231  0.45826  0.64896  1.0000
  H   H1580     1.0  0.62554  0.50485  0.61092  1.0000
  C   C1317     1.0  0.47192  0.46750  0.74283  1.0000
  C   C1318     1.0  0.58649  0.44050  0.59442  1.0000
  H   H1581     1.0  0.53458  0.43314  0.97722  1.0000
  H   H1582     1.0  0.56156  0.43603  0.65993  1.0000
  S   S356      1.0  0.53087  0.46546  0.97570  1.0000
  H   H1583     1.0  0.59910  0.47233  0.90173  1.0000
  H   H1584     1.0  0.60535  0.48261  0.68524  1.0000
  H   H1585     1.0  0.49328  0.46599  0.53706  1.0000
  H   H1586     1.0  0.56090  0.46055  0.97184  1.0000
  H   H1587     1.0  0.51493  0.43591  0.54909  1.0000
  H   H1588     1.0  0.62667  0.48478  0.60547  1.0000
  C   C1319     1.0  0.48869  0.46383  0.98427  1.0000
  C   C1320     1.0  0.57169  0.44177  0.64339  1.0000
  C   C1321     1.0  0.59599  0.49477  0.63408  1.0000
  C   C1322     1.0  0.56390  0.64799  0.67275  1.0000
  H   H1589     1.0  0.55972  0.63894  0.75428  1.0000
  H   H1590     1.0  0.58657  0.48413  0.90426  1.0000
  H   H1591     1.0  0.60652  0.46220  0.58147  1.0000
  H   H1592     1.0  0.49297  0.47535  0.79087  1.0000
  C   C1323     1.0  0.49101  0.60205  0.80193  1.0000
  C   C1324     1.0  0.54851  0.62203  0.71613  1.0000
  C   C1325     1.0  0.55856  0.63774  0.72813  1.0000
  N   N88       1.0  0.49053  0.43236  0.53941  1.0000
  H   H1593     1.0  0.54217  0.61194  0.73279  1.0000
  C   C1326     1.0  0.51460  0.64858  0.66502  1.0000
  H   H1594     1.0  0.61773  0.49933  0.51182  1.0000
  H   H1595     1.0  0.49460  0.45575  0.97529  1.0000
  H   H1596     1.0  0.48519  0.43558  0.74361  1.0000
  C   C1327     1.0  0.49868  0.46728  0.72857  1.0000
  S   S357      1.0  0.48245  0.55868  0.72367  1.0000
  H   H1597     1.0  0.47236  0.43941  0.71489  1.0000
  C   C1328     1.0  0.48827  0.43850  0.59923  1.0000
  H   H1598     1.0  0.48866  0.58960  0.81277  1.0000
  C   C1329     1.0  0.47642  0.62091  0.74108  1.0000
  C   C1330     1.0  0.48780  0.63480  0.79178  1.0000
  C   C1331     1.0  0.49021  0.44391  0.56636  1.0000
  H   H1599     1.0  0.59690  0.46585  0.97601  1.0000
  C   C1332     1.0  0.49159  0.47126  0.58712  1.0000
  H   H1600     1.0  0.50585  0.45118  0.50669  1.0000
  C   C1333     1.0  0.48060  0.63653  0.72648  1.0000
  H   H1601     1.0  0.71698  0.56457  0.66677  1.0000
  N   N89       1.0  0.58008  0.46346  0.93765  1.0000
  C   C1334     1.0  0.58884  0.45627  0.95890  1.0000
  C   C1335     1.0  0.59216  0.47722  0.91887  1.0000
  C   C1336     1.0  0.57099  0.47065  0.95940  1.0000
  C   C1337     1.0  0.56899  0.45111  0.91491  1.0000
  C   C1338     1.0  0.55901  0.45584  0.89453  1.0000
  C   C1339     1.0  0.56765  0.43421  0.91233  1.0000
  C   C1340     1.0  0.54826  0.44437  0.87323  1.0000
  C   C1341     1.0  0.55688  0.42285  0.89085  1.0000
  C   C1342     1.0  0.54721  0.42792  0.87137  1.0000
  H   H1602     1.0  0.48689  0.42592  0.60519  1.0000
  H   H1603     1.0  0.49710  0.61161  0.82083  1.0000
  H   H1604     1.0  0.55162  0.63013  0.63516  1.0000
  C   C1343     1.0  0.62736  0.51007  0.52188  1.0000
  H   H1605     1.0  0.47824  0.63725  0.70085  1.0000
  H   H1606     1.0  0.47180  0.41074  0.56053  1.0000
  H   H1607     1.0  0.47442  0.40942  0.51732  1.0000
  H   H1608     1.0  0.47571  0.58848  0.74746  1.0000
  C   C1344     1.0  0.47998  0.61958  0.77428  1.0000
  C   C1345     1.0  0.47474  0.41821  0.53779  1.0000
  N   N90       1.0  0.47607  0.60329  0.79050  1.0000
  H   H1609     1.0  0.47092  0.61154  0.83814  1.0000
  C   C1346     1.0  0.49401  0.44045  0.50694  1.0000
  H   H1610     1.0  0.67336  0.58659  0.50559  1.0000
  H   H1611     1.0  0.71036  0.62794  0.97191  1.0000
  C   C1347     1.0  0.71542  0.64077  0.96354  1.0000
  H   H1612     1.0  0.67092  0.56499  0.50439  1.0000
  H   H1613     1.0  0.47087  0.61010  0.72549  1.0000
  C   C1348     1.0  0.49197  0.65034  0.77688  1.0000
  Fe  Fe175     1.0  0.69559  0.89493  0.06649  1.0000
  C   C1349     1.0  0.64550  0.86738  0.44419  1.0000
  S   S358      1.0  0.67433  0.89783  0.04304  1.0000
  C   C1350     1.0  0.62836  0.85066  0.03116  1.0000
  S   S359      1.0  0.70576  0.90757  0.11410  1.0000
  S   S360      1.0  0.69790  0.87073  0.07817  1.0000
  S   S361      1.0  0.68901  0.78347  0.36871  1.0000
  S   S362      1.0  0.69441  0.81862  0.33282  1.0000
  Fe  Fe176     1.0  0.70380  0.81083  0.37715  1.0000
  Fe  Fe177     1.0  0.68103  0.79114  0.32264  1.0000
  S   S363      1.0  0.65536  0.78613  0.30863  1.0000
  S   S364      1.0  0.70102  0.78836  0.29274  1.0000
  H   H1614     1.0  0.70669  0.90991  0.46224  1.0000
  C   C1351     1.0  0.55263  0.73090  0.06000  1.0000
  H   H1615     1.0  0.55473  0.67466  0.22995  1.0000
  Fe  Fe178     1.0  0.56792  0.80996  0.43393  1.0000
  S   S365      1.0  0.54622  0.81146  0.45965  1.0000
  S   S366      1.0  0.57139  0.80358  0.38104  1.0000
  H   H1616     1.0  0.69646  0.92783  0.07010  1.0000
  S   S367      1.0  0.55619  0.86081  0.45885  1.0000
  H   H1617     1.0  0.56372  0.96967  0.41043  1.0000
  S   S368      1.0  0.53697  0.78317  0.04041  1.0000
  S   S369      1.0  0.58348  0.83690  0.44354  1.0000
  H   H1618     1.0  0.70414  0.88428  0.41074  1.0000
  Fe  Fe179     1.0  0.50044  0.93547  0.43032  1.0000
  S   S370      1.0  0.49734  0.91472  0.39407  1.0000
  S   S371      1.0  0.52108  0.96043  0.43579  1.0000
  C   C1352     1.0  0.48407  0.96737  0.05815  1.0000
  Fe  Fe180     1.0  0.48731  0.89735  0.43628  1.0000
  S   S372      1.0  0.49107  0.87271  0.44059  1.0000
  S   S373      1.0  0.56627  0.82915  0.02514  1.0000
  S   S374      1.0  0.49251  0.91833  0.47332  1.0000
  C   C1353     1.0  0.71055  0.83737  0.45087  1.0000
  Fe  Fe181     1.0  0.54786  0.72800  0.25964  1.0000
  S   S375      1.0  0.57174  0.74497  0.23916  1.0000
  S   S376      1.0  0.53663  0.73448  0.30539  1.0000
  Fe  Fe182     1.0  0.54406  0.69941  0.21033  1.0000
  S   S377      1.0  0.56801  0.71467  0.18741  1.0000
  S   S378      1.0  0.53108  0.67485  0.18156  1.0000
  Fe  Fe183     1.0  0.57726  0.72188  0.23802  1.0000
  S   S379      1.0  0.60078  0.72021  0.25205  1.0000
  Fe  Fe184     1.0  0.56055  0.73653  0.19003  1.0000
  S   S380      1.0  0.56915  0.75338  0.14577  1.0000
  S   S381      1.0  0.55392  0.70507  0.26119  1.0000
  S   S382      1.0  0.53602  0.72113  0.21042  1.0000
  C   C1354     1.0  0.66124  0.83191  0.15166  1.0000
  H   H1619     1.0  0.54023  0.75239  0.00566  1.0000
  H   H1620     1.0  0.52729  0.70229  0.14735  1.0000
  S   S383      1.0  0.70014  0.81853  0.42930  1.0000
  C   C1355     1.0  0.71614  0.96726  0.04227  1.0000
  C   C1356     1.0  0.56167  0.78408  0.36113  1.0000
  C   C1357     1.0  0.56667  0.78198  0.32927  1.0000
  C   C1358     1.0  0.55927  0.76677  0.31222  1.0000
  C   C1359     1.0  0.54664  0.75355  0.32673  1.0000
  C   C1360     1.0  0.54157  0.75569  0.35863  1.0000
  C   C1361     1.0  0.54914  0.77087  0.37592  1.0000
  H   H1621     1.0  0.57624  0.79219  0.31751  1.0000
  H   H1622     1.0  0.56311  0.76541  0.28755  1.0000
  H   H1623     1.0  0.53176  0.74555  0.36996  1.0000
  H   H1624     1.0  0.54515  0.77237  0.40044  1.0000
  C   C1362     1.0  0.55975  0.76250  0.11896  1.0000
  C   C1363     1.0  0.56935  0.77359  0.09524  1.0000
  C   C1364     1.0  0.56253  0.78044  0.07193  1.0000
  C   C1365     1.0  0.54595  0.77602  0.07161  1.0000
  C   C1366     1.0  0.53632  0.76517  0.09570  1.0000
  C   C1367     1.0  0.54320  0.75859  0.11956  1.0000
  H   H1625     1.0  0.58216  0.77683  0.09472  1.0000
  H   H1626     1.0  0.57012  0.78890  0.05383  1.0000
  H   H1627     1.0  0.52350  0.76178  0.09577  1.0000
  H   H1628     1.0  0.53569  0.75045  0.13813  1.0000
  C   C1368     1.0  0.53785  0.86389  0.45560  1.0000
  C   C1369     1.0  0.52280  0.85088  0.45952  1.0000
  C   C1370     1.0  0.50866  0.85382  0.45499  1.0000
  C   C1371     1.0  0.50932  0.86985  0.44711  1.0000
  C   C1372     1.0  0.52436  0.88288  0.44354  1.0000
  C   C1373     1.0  0.53849  0.87988  0.44756  1.0000
  H   H1629     1.0  0.53694  0.72402  0.13716  1.0000
  C   C1374     1.0  0.52028  0.65344  0.19252  1.0000
  H   H1630     1.0  0.52513  0.89526  0.43747  1.0000
  C   C1375     1.0  0.48957  0.96954  0.48210  1.0000
  H   H1631     1.0  0.67868  0.93531  0.03672  1.0000
  C   C1376     1.0  0.52373  0.97419  0.40312  1.0000
  C   C1377     1.0  0.51648  0.96824  0.37318  1.0000
  H   H1632     1.0  0.64077  0.83829  0.05785  1.0000
  H   H1633     1.0  0.50879  0.95517  0.37023  1.0000
  C   C1378     1.0  0.64056  0.76743  0.29347  1.0000
  C   C1379     1.0  0.64338  0.75280  0.28791  1.0000
  C   C1380     1.0  0.63111  0.73835  0.27526  1.0000
  C   C1381     1.0  0.61602  0.73846  0.26806  1.0000
  C   C1382     1.0  0.61332  0.75313  0.27375  1.0000
  C   C1383     1.0  0.62551  0.76751  0.28627  1.0000
  H   H1634     1.0  0.65495  0.75259  0.29332  1.0000
  H   H1635     1.0  0.63334  0.72707  0.27100  1.0000
  H   H1636     1.0  0.60181  0.75343  0.26853  1.0000
  H   H1637     1.0  0.62325  0.77879  0.29023  1.0000
  C   C1384     1.0  0.50713  0.83670  0.04773  1.0000
  H   H1638     1.0  0.47692  0.82562  0.01915  1.0000
  H   H1639     1.0  0.53025  0.68648  0.06368  1.0000
  H   H1640     1.0  0.70983  0.65084  0.00816  1.0000
  H   H1641     1.0  0.52109  0.98121  0.49608  1.0000
  C   C1385     1.0  0.70395  0.85816  0.23110  1.0000
  H   H1642     1.0  0.69760  0.92821  0.00831  1.0000
  H   H1643     1.0  0.69471  0.86223  0.24032  1.0000
  C   C1386     1.0  0.65665  0.87961  0.03865  1.0000
  C   C1387     1.0  0.65552  0.86439  0.05156  1.0000
  C   C1388     1.0  0.69432  0.90237  0.45378  1.0000
  S   S384      1.0  0.47634  0.93592  0.42168  1.0000
  Fe  Fe185     1.0  0.59054  0.82833  0.48948  1.0000
  C   C1389     1.0  0.50573  0.82138  0.03207  1.0000
  H   H1644     1.0  0.68549  0.95556  0.01837  1.0000
  C   C1390     1.0  0.62832  0.80707  0.43476  1.0000
  H   H1645     1.0  0.48399  0.95761  0.31820  1.0000
  H   H1646     1.0  0.71636  0.77722  0.40866  1.0000
  C   C1391     1.0  0.65726  0.81742  0.43837  1.0000
  C   C1392     1.0  0.52891  0.83470  0.07991  1.0000
  H   H1647     1.0  0.49724  0.81562  0.01304  1.0000
  C   C1393     1.0  0.48581  0.83821  0.01239  1.0000
  Fe  Fe186     1.0  0.71047  0.78297  0.34011  1.0000
  H   H1648     1.0  0.59317  0.65775  0.22350  1.0000
  C   C1394     1.0  0.64401  0.80123  0.39116  1.0000
  C   C1395     1.0  0.51568  0.81312  0.04030  1.0000
  C   C1396     1.0  0.58809  0.66666  0.21443  1.0000
  C   C1397     1.0  0.71186  0.98120  0.04885  1.0000
  H   H1649     1.0  0.63526  0.86926  0.45503  1.0000
  H   H1650     1.0  0.48455  0.94804  0.02493  1.0000
  N   N91       1.0  0.67111  0.80520  0.21358  1.0000
  C   C1398     1.0  0.66371  0.78711  0.22152  1.0000
  C   C1399     1.0  0.66266  0.81020  0.18781  1.0000
  C   C1400     1.0  0.66903  0.82679  0.17567  1.0000
  C   C1401     1.0  0.64780  0.79915  0.17480  1.0000
  N   N92       1.0  0.57307  0.66477  0.23239  1.0000
  C   C1402     1.0  0.64005  0.80444  0.15087  1.0000
  C   C1403     1.0  0.64678  0.82076  0.13925  1.0000
  H   H1651     1.0  0.66336  0.77912  0.19973  1.0000
  H   H1652     1.0  0.67049  0.78377  0.24066  1.0000
  H   H1653     1.0  0.65134  0.78355  0.23174  1.0000
  H   H1654     1.0  0.68859  0.80250  0.17978  1.0000
  H   H1655     1.0  0.64184  0.78639  0.18280  1.0000
  Fe  Fe187     1.0  0.47224  0.91374  0.38876  1.0000
  H   H1656     1.0  0.62868  0.79586  0.14139  1.0000
  S   S385      1.0  0.57646  0.80118  0.47803  1.0000
  N   N93       1.0  0.69068  0.88414  0.45503  1.0000
  H   H1657     1.0  0.58296  0.66220  0.27850  1.0000
  H   H1658     1.0  0.64425  0.89207  0.01203  1.0000
  H   H1659     1.0  0.66819  0.82426  0.45146  1.0000
  C   C1404     1.0  0.67455  0.87444  0.44195  1.0000
  C   C1405     1.0  0.66093  0.87677  0.45527  1.0000
  C   C1406     1.0  0.67173  0.86198  0.41701  1.0000
  H   H1660     1.0  0.47542  0.87867  0.33365  1.0000
  C   C1407     1.0  0.65622  0.85264  0.40616  1.0000
  C   C1408     1.0  0.64313  0.85527  0.41986  1.0000
  H   H1661     1.0  0.64072  0.82481  0.12076  1.0000
  H   H1662     1.0  0.66646  0.84466  0.14281  1.0000
  H   H1663     1.0  0.58620  0.66435  0.18779  1.0000
  H   H1664     1.0  0.52095  0.85475  0.08453  1.0000
  C   C1409     1.0  0.55188  0.70667  0.10694  1.0000
  H   H1665     1.0  0.57483  0.68981  0.22310  1.0000
  H   H1666     1.0  0.71517  0.80268  0.47975  1.0000
  C   C1410     1.0  0.56663  0.67656  0.21873  1.0000
  H   H1667     1.0  0.47172  0.98320  0.40126  1.0000
  H   H1668     1.0  0.51467  0.80158  0.02783  1.0000
  H   H1669     1.0  0.68124  0.85902  0.40577  1.0000
  C   C1411     1.0  0.56253  0.97218  0.38500  1.0000
  H   H1670     1.0  0.70245  0.86784  0.43902  1.0000
  H   H1671     1.0  0.65431  0.84307  0.38744  1.0000
  N   N94       1.0  0.54141  0.83092  0.36386  1.0000
  C   C1412     1.0  0.53856  0.81305  0.35747  1.0000
  C   C1413     1.0  0.55719  0.83884  0.37961  1.0000
  C   C1414     1.0  0.52877  0.83135  0.38719  1.0000
  C   C1415     1.0  0.54135  0.84031  0.33412  1.0000
  C   C1416     1.0  0.54333  0.85739  0.33655  1.0000
  C   C1417     1.0  0.53974  0.83313  0.30221  1.0000
  C   C1418     1.0  0.54355  0.86663  0.30884  1.0000
  C   C1419     1.0  0.54001  0.84252  0.27464  1.0000
  C   C1420     1.0  0.54190  0.85921  0.27794  1.0000
  H   H1672     1.0  0.54822  0.81172  0.34167  1.0000
  H   H1673     1.0  0.53861  0.80635  0.38041  1.0000
  H   H1674     1.0  0.52677  0.80618  0.34597  1.0000
  H   H1675     1.0  0.56712  0.83906  0.36279  1.0000
  H   H1676     1.0  0.55780  0.83187  0.40158  1.0000
  H   H1677     1.0  0.55970  0.85188  0.38812  1.0000
  H   H1678     1.0  0.51673  0.82612  0.37596  1.0000
  H   H1679     1.0  0.52828  0.82409  0.40961  1.0000
  H   H1680     1.0  0.53089  0.84424  0.39596  1.0000
  H   H1681     1.0  0.54491  0.86377  0.35998  1.0000
  H   H1682     1.0  0.53840  0.82033  0.29782  1.0000
  H   H1683     1.0  0.54514  0.87966  0.31139  1.0000
  H   H1684     1.0  0.53888  0.83683  0.25052  1.0000
  H   H1685     1.0  0.54220  0.86645  0.25648  1.0000
  C   C1421     1.0  0.64245  0.81606  0.45145  1.0000
  C   C1422     1.0  0.64351  0.88032  0.02198  1.0000
  H   H1686     1.0  0.55995  0.71885  0.11773  1.0000
  H   H1687     1.0  0.51318  0.68845  0.08393  1.0000
  H   H1688     1.0  0.52531  0.68041  0.10564  1.0000
  H   H1689     1.0  0.51446  0.87119  0.04937  1.0000
  H   H1690     1.0  0.69320  0.90624  0.42854  1.0000
  C   C1423     1.0  0.70376  0.88109  0.43698  1.0000
  H   H1691     1.0  0.67781  0.81185  0.26365  1.0000
  H   H1692     1.0  0.58604  0.68321  0.26875  1.0000
  H   H1693     1.0  0.66206  0.88565  0.47495  1.0000
  H   H1694     1.0  0.56498  0.75158  0.02803  1.0000
  C   C1424     1.0  0.52580  0.68991  0.08716  1.0000
  H   H1695     1.0  0.70459  0.84533  0.27545  1.0000
  C   C1425     1.0  0.51901  0.84307  0.07197  1.0000
  H   H1696     1.0  0.53499  0.81334  0.07014  1.0000
  H   H1697     1.0  0.59738  0.67960  0.21725  1.0000
  C   C1426     1.0  0.48879  0.96143  0.02960  1.0000
  C   C1427     1.0  0.53950  0.74293  0.02330  1.0000
  C   C1428     1.0  0.70947  0.84854  0.25102  1.0000
  C   C1429     1.0  0.64148  0.85000  0.04778  1.0000
  H   H1698     1.0  0.51716  0.71194  0.12312  1.0000
  H   H1699     1.0  0.68361  0.95327  0.06241  1.0000
  C   C1430     1.0  0.71342  0.78086  0.43347  1.0000
  Fe  Fe188     1.0  0.56209  0.83812  0.47137  1.0000
  H   H1700     1.0  0.55560  0.98107  0.29569  1.0000
  C   C1431     1.0  0.71228  0.85459  0.49978  1.0000
  H   H1701     1.0  0.64532  0.79602  0.36766  1.0000
  H   H1702     1.0  0.61556  0.76578  0.39805  1.0000
  H   H1703     1.0  0.49687  0.97246  0.45908  1.0000
  H   H1704     1.0  0.70608  0.78843  0.42989  1.0000
  H   H1705     1.0  0.55037  0.69709  0.12589  1.0000
  H   H1706     1.0  0.47852  0.87602  0.37562  1.0000
  H   H1707     1.0  0.63108  0.84778  0.41195  1.0000
  H   H1708     1.0  0.50081  0.87004  0.01777  1.0000
  H   H1709     1.0  0.55808  0.70361  0.08553  1.0000
  H   H1710     1.0  0.61338  0.81076  0.36199  1.0000
  C   C1432     1.0  0.68730  0.94859  0.03940  1.0000
  C   C1433     1.0  0.68799  0.80893  0.20327  1.0000
  Fe  Fe189     1.0  0.70996  0.88407  0.12396  1.0000
  C   C1434     1.0  0.55834  0.97902  0.32032  1.0000
  C   C1435     1.0  0.67105  0.81477  0.24394  1.0000
  H   H1711     1.0  0.69457  0.80494  0.22185  1.0000
  H   H1712     1.0  0.69501  0.82250  0.19991  1.0000
  H   H1713     1.0  0.65860  0.81174  0.25333  1.0000
  H   H1714     1.0  0.68006  0.83606  0.18482  1.0000
  H   H1715     1.0  0.66539  0.86366  0.06472  1.0000
  C   C1436     1.0  0.62867  0.79904  0.40424  1.0000
  S   S386      1.0  0.71756  0.76044  0.34637  1.0000
  H   H1716     1.0  0.67660  0.82848  0.24023  1.0000
  H   H1717     1.0  0.52204  0.83855  0.46595  1.0000
  H   H1718     1.0  0.59738  0.79809  0.41064  1.0000
  H   H1719     1.0  0.69964  0.85779  0.00342  1.0000
  C   C1437     1.0  0.65803  0.81013  0.40813  1.0000
  H   H1720     1.0  0.53861  0.95498  0.32067  1.0000
  C   C1438     1.0  0.55044  0.96051  0.36672  1.0000
  C   C1439     1.0  0.55346  0.74243  0.03591  1.0000
  H   H1721     1.0  0.49711  0.84365  0.45798  1.0000
  H   H1722     1.0  0.62408  0.80012  0.33954  1.0000
  H   H1723     1.0  0.62368  0.77339  0.35840  1.0000
  C   C1440     1.0  0.48747  0.84735  0.06821  1.0000
  C   C1441     1.0  0.70701  0.94109  0.01094  1.0000
  C   C1442     1.0  0.59896  0.78620  0.40497  1.0000
  H   H1724     1.0  0.58813  0.77834  0.39108  1.0000
  C   C1443     1.0  0.49903  0.97260  0.00705  1.0000
  C   C1444     1.0  0.61354  0.79824  0.35595  1.0000
  C   C1445     1.0  0.61400  0.77253  0.37641  1.0000
  N   N95       1.0  0.61400  0.78918  0.38597  1.0000
  C   C1446     1.0  0.71023  0.86255  0.19939  1.0000
  C   C1447     1.0  0.52721  0.81974  0.06416  1.0000
  H   H1725     1.0  0.53815  0.83995  0.09796  1.0000
  H   H1726     1.0  0.61733  0.80664  0.44642  1.0000
  H   H1727     1.0  0.60261  0.79125  0.34156  1.0000
  C   C1448     1.0  0.51991  0.97902  0.34643  1.0000
  C   C1449     1.0  0.62938  0.86587  0.01821  1.0000
  H   H1728     1.0  0.60263  0.76446  0.36442  1.0000
  H   H1729     1.0  0.56393  0.73179  0.06969  1.0000
  N   N96       1.0  0.53624  0.70709  0.09782  1.0000
  C   C1450     1.0  0.52364  0.72024  0.05861  1.0000
  H   H1730     1.0  0.54226  0.94908  0.37801  1.0000
  C   C1451     1.0  0.52905  0.71150  0.12757  1.0000
  H   H1731     1.0  0.51183  0.71229  0.06727  1.0000
  H   H1732     1.0  0.51491  0.97415  0.32290  1.0000
  H   H1733     1.0  0.59867  0.77967  0.42823  1.0000
  H   H1734     1.0  0.55004  0.89006  0.44454  1.0000
  Fe  Fe190     1.0  0.55365  0.80294  0.00619  1.0000
  C   C1452     1.0  0.53763  0.71928  0.07189  1.0000
  H   H1735     1.0  0.51659  0.86268  0.01046  1.0000
  C   C1453     1.0  0.57726  0.66996  0.26687  1.0000
  S   S387      1.0  0.70255  0.87444  0.17552  1.0000
  H   H1736     1.0  0.68627  0.90617  0.47009  1.0000
  H   H1737     1.0  0.47609  0.95861  0.07552  1.0000
  H   H1738     1.0  0.66957  0.81131  0.39780  1.0000
  N   N97       1.0  0.70414  0.94984  0.04049  1.0000
  N   N98       1.0  0.49711  0.84609  0.03928  1.0000
  H   H1739     1.0  0.71629  0.78466  0.49897  1.0000
  C   C1454     1.0  0.52463  0.73190  0.03469  1.0000
  S   S388      1.0  0.61142  0.83185  0.02619  1.0000
  C   C1455     1.0  0.54840  0.96388  0.33442  1.0000
  H   H1740     1.0  0.51384  0.73280  0.02556  1.0000
  H   H1741     1.0  0.56496  0.67511  0.19192  1.0000
  H   H1742     1.0  0.47367  0.84583  0.36074  1.0000
  H   H1743     1.0  0.47968  0.83470  0.07719  1.0000
  H   H1744     1.0  0.70553  0.76939  0.44650  1.0000
  H   H1745     1.0  0.71576  0.88876  0.44710  1.0000
  H   H1746     1.0  0.56652  0.66933  0.28155  1.0000
  C   C1456     1.0  0.50763  0.86322  0.02892  1.0000
  H   H1747     1.0  0.49508  0.85427  0.08880  1.0000
  H   H1748     1.0  0.52324  0.65704  0.24441  1.0000
  H   H1749     1.0  0.70395  0.94722  0.09256  1.0000
  H   H1750     1.0  0.47960  0.85413  0.06244  1.0000
  C   C1457     1.0  0.47710  0.96364  0.30620  1.0000
  H   H1751     1.0  0.61931  0.86651  0.00542  1.0000
  H   H1752     1.0  0.69957  0.97996  0.05166  1.0000
  H   H1753     1.0  0.47889  0.84587  0.00564  1.0000
  H   H1754     1.0  0.47784  0.97023  0.47714  1.0000
  Fe  Fe191     1.0  0.71486  0.81542  0.30561  1.0000
  H   H1755     1.0  0.69386  0.83014  0.49162  1.0000
  H   H1756     1.0  0.48720  0.95626  0.48761  1.0000
  C   C1458     1.0  0.70456  0.83978  0.48167  1.0000
  C   C1459     1.0  0.48400  0.98074  0.29997  1.0000
  C   C1460     1.0  0.70562  0.94084  0.06975  1.0000
  H   H1757     1.0  0.64188  0.82206  0.47468  1.0000
  H   H1758     1.0  0.70336  0.88507  0.49946  1.0000
  C   C1461     1.0  0.69105  0.87951  0.48950  1.0000
  H   H1759     1.0  0.68668  0.86569  0.49225  1.0000
  H   H1760     1.0  0.71758  0.94003  0.07086  1.0000
  C   C1462     1.0  0.46910  0.87467  0.35745  1.0000
  H   H1761     1.0  0.46973  0.84943  0.31967  1.0000
  H   H1762     1.0  0.53479  0.75474  0.50051  1.0000
  H   H1763     1.0  0.71852  0.93931  0.01168  1.0000
  Fe  Fe192     1.0  0.69392  0.90069  0.57076  1.0000
  S   S389      1.0  0.61573  0.83175  0.50337  1.0000
  S   S390      1.0  0.66955  0.89915  0.55446  1.0000
  H   H1764     1.0  0.57309  0.68206  0.67813  1.0000
  S   S391      1.0  0.70435  0.91357  0.61777  1.0000
  S   S392      1.0  0.70112  0.87899  0.57730  1.0000
  S   S393      1.0  0.69054  0.78218  0.85169  1.0000
  S   S394      1.0  0.69454  0.81831  0.82082  1.0000
  Fe  Fe193     1.0  0.70148  0.80943  0.86659  1.0000
  Fe  Fe194     1.0  0.68487  0.79147  0.80466  1.0000
  S   S395      1.0  0.66112  0.78699  0.78134  1.0000
  S   S396      1.0  0.70810  0.79404  0.78000  1.0000
  Fe  Fe195     1.0  0.55647  0.80528  0.50525  1.0000
  H   H1765     1.0  0.50591  0.97186  0.83846  1.0000
  H   H1766     1.0  0.69641  0.85166  0.84139  1.0000
  Fe  Fe196     1.0  0.56996  0.81107  0.93881  1.0000
  S   S397      1.0  0.54636  0.81087  0.95877  1.0000
  S   S398      1.0  0.57753  0.80426  0.88885  1.0000
  H   H1767     1.0  0.63750  0.83126  0.98407  1.0000
  C   C1463     1.0  0.56642  0.65131  0.70670  1.0000
  H   H1768     1.0  0.65563  0.78728  0.92871  1.0000
  S   S399      1.0  0.54165  0.78751  0.54443  1.0000
  S   S400      1.0  0.58399  0.83791  0.95343  1.0000
  H   H1769     1.0  0.50006  0.84153  0.92993  1.0000
  Fe  Fe197     1.0  0.50021  0.93187  0.94062  1.0000
  S   S401      1.0  0.49590  0.91310  0.90023  1.0000
  S   S402      1.0  0.52223  0.95583  0.94174  1.0000
  H   H1770     1.0  0.53273  0.66436  0.73682  1.0000
  Fe  Fe198     1.0  0.48596  0.89373  0.93903  1.0000
  S   S403      1.0  0.49062  0.86956  0.93588  1.0000
  C   C1464     1.0  0.59368  0.67192  0.70724  1.0000
  S   S404      1.0  0.49228  0.91264  0.98032  1.0000
  H   H1771     1.0  0.65340  0.84040  0.95530  1.0000
  Fe  Fe199     1.0  0.55229  0.73254  0.75853  1.0000
  S   S405      1.0  0.57713  0.74830  0.74098  1.0000
  S   S406      1.0  0.54134  0.73807  0.80546  1.0000
  Fe  Fe200     1.0  0.54719  0.70555  0.70544  1.0000
  S   S407      1.0  0.57186  0.71945  0.68416  1.0000
  S   S408      1.0  0.53072  0.68222  0.67774  1.0000
  Fe  Fe201     1.0  0.58026  0.72393  0.73577  1.0000
  S   S409      1.0  0.60194  0.71949  0.75264  1.0000
  Fe  Fe202     1.0  0.56679  0.74276  0.69048  1.0000
  S   S410      1.0  0.57713  0.76142  0.64943  1.0000
  S   S411      1.0  0.55602  0.70825  0.75678  1.0000
  S   S412      1.0  0.54144  0.72874  0.70833  1.0000
  C   C1465     1.0  0.57171  0.68100  0.70507  1.0000
  C   C1466     1.0  0.51466  0.97551  0.85764  1.0000
  C   C1467     1.0  0.62856  0.83706  0.61849  1.0000
  H   H1772     1.0  0.55046  0.72062  0.54853  1.0000
  C   C1468     1.0  0.70278  0.86118  0.86025  1.0000
  C   C1469     1.0  0.56653  0.78617  0.86565  1.0000
  C   C1470     1.0  0.57149  0.78490  0.83331  1.0000
  C   C1471     1.0  0.56371  0.77035  0.81448  1.0000
  C   C1472     1.0  0.55092  0.75688  0.82789  1.0000
  C   C1473     1.0  0.54583  0.75822  0.86013  1.0000
  C   C1474     1.0  0.55361  0.77280  0.87900  1.0000
  H   H1773     1.0  0.58134  0.79527  0.82269  1.0000
  H   H1774     1.0  0.56753  0.76962  0.78951  1.0000
  H   H1775     1.0  0.53588  0.74790  0.87063  1.0000
  H   H1776     1.0  0.54968  0.77365  0.90387  1.0000
  C   C1475     1.0  0.56668  0.76810  0.62056  1.0000
  C   C1476     1.0  0.57499  0.77612  0.59237  1.0000
  C   C1477     1.0  0.56753  0.78234  0.56921  1.0000
  C   C1478     1.0  0.55154  0.78037  0.57381  1.0000
  C   C1479     1.0  0.54313  0.77217  0.60188  1.0000
  C   C1480     1.0  0.55066  0.76606  0.62522  1.0000
  H   H1777     1.0  0.58727  0.77742  0.58840  1.0000
  H   H1778     1.0  0.57408  0.78846  0.54759  1.0000
  H   H1779     1.0  0.53077  0.77067  0.60565  1.0000
  H   H1780     1.0  0.54417  0.76006  0.64701  1.0000
  C   C1481     1.0  0.53754  0.86311  0.95914  1.0000
  C   C1482     1.0  0.52426  0.84965  0.94740  1.0000
  C   C1483     1.0  0.51031  0.85207  0.93864  1.0000
  C   C1484     1.0  0.50931  0.86783  0.94230  1.0000
  C   C1485     1.0  0.52278  0.88142  0.95289  1.0000
  H   H1781     1.0  0.54708  0.88959  0.96993  1.0000
  C   C1486     1.0  0.49507  0.87583  0.84055  1.0000
  H   H1782     1.0  0.61137  0.81419  0.96827  1.0000
  H   H1783     1.0  0.48473  0.88742  0.76864  1.0000
  Fe  Fe203     1.0  0.71306  0.89255  0.62310  1.0000
  C   C1487     1.0  0.63357  0.85452  0.61286  1.0000
  C   C1488     1.0  0.52425  0.96916  0.90849  1.0000
  C   C1489     1.0  0.51283  0.96471  0.88392  1.0000
  Fe  Fe204     1.0  0.71806  0.82029  0.79972  1.0000
  H   H1784     1.0  0.50271  0.95283  0.88484  1.0000
  C   C1490     1.0  0.64585  0.76769  0.77095  1.0000
  C   C1491     1.0  0.64584  0.75232  0.78092  1.0000
  C   C1492     1.0  0.63257  0.73740  0.77417  1.0000
  C   C1493     1.0  0.61930  0.73787  0.75767  1.0000
  C   C1494     1.0  0.61960  0.75321  0.74708  1.0000
  C   C1495     1.0  0.63276  0.76802  0.75382  1.0000
  H   H1785     1.0  0.65588  0.75198  0.79425  1.0000
  H   H1786     1.0  0.63244  0.72557  0.78244  1.0000
  H   H1787     1.0  0.60973  0.75371  0.73354  1.0000
  H   H1788     1.0  0.63276  0.77986  0.74583  1.0000
  C   C1496     1.0  0.64487  0.85045  0.52913  1.0000
  C   C1497     1.0  0.69631  0.84065  0.96256  1.0000
  H   H1789     1.0  0.62614  0.85979  0.60082  1.0000
  H   H1790     1.0  0.68362  0.83789  0.96103  1.0000
  H   H1791     1.0  0.49818  0.66181  0.79052  1.0000
  H   H1792     1.0  0.53799  0.93108  0.84756  1.0000
  Fe  Fe205     1.0  0.56074  0.83716  0.97629  1.0000
  H   H1793     1.0  0.69035  0.85088  0.71540  1.0000
  C   C1498     1.0  0.65424  0.88004  0.54275  1.0000
  C   C1499     1.0  0.65682  0.86514  0.54118  1.0000
  C   C1500     1.0  0.54234  0.72704  0.54835  1.0000
  H   H1794     1.0  0.49231  0.83698  0.98981  1.0000
  C   C1501     1.0  0.51244  0.97825  0.51713  1.0000
  C   C1502     1.0  0.63935  0.87995  0.53347  1.0000
  H   H1795     1.0  0.66806  0.86494  0.54900  1.0000
  C   C1503     1.0  0.57700  0.67010  0.75458  1.0000
  S   S413      1.0  0.69171  0.81930  0.91024  1.0000
  C   C1504     1.0  0.71527  0.65373  0.98401  1.0000
  N   N99       1.0  0.60423  0.76159  0.85047  1.0000
  C   C1505     1.0  0.60470  0.74627  0.83450  1.0000
  C   C1506     1.0  0.58841  0.75689  0.86739  1.0000
  C   C1507     1.0  0.61807  0.76887  0.87246  1.0000
  C   C1508     1.0  0.61634  0.77017  0.90691  1.0000
  C   C1509     1.0  0.63396  0.77449  0.85960  1.0000
  C   C1510     1.0  0.62978  0.77664  0.92690  1.0000
  C   C1511     1.0  0.64726  0.78102  0.87973  1.0000
  C   C1512     1.0  0.64520  0.78214  0.91331  1.0000
  H   H1796     1.0  0.60405  0.73671  0.85280  1.0000
  H   H1797     1.0  0.59463  0.74049  0.81723  1.0000
  H   H1798     1.0  0.61589  0.74893  0.82000  1.0000
  H   H1799     1.0  0.58648  0.74710  0.88598  1.0000
  H   H1800     1.0  0.57833  0.75156  0.85003  1.0000
  H   H1801     1.0  0.58703  0.76796  0.87927  1.0000
  H   H1802     1.0  0.60476  0.76623  0.91900  1.0000
  H   H1803     1.0  0.63629  0.77382  0.83375  1.0000
  H   H1804     1.0  0.62824  0.77739  0.95314  1.0000
  H   H1805     1.0  0.65925  0.78534  0.86910  1.0000
  C   C1513     1.0  0.52349  0.66066  0.68811  1.0000
  H   H1806     1.0  0.70709  0.94810  0.98844  1.0000
  C   C1514     1.0  0.52130  0.93900  0.82373  1.0000
  H   H1807     1.0  0.51231  0.65257  0.64150  1.0000
  H   H1808     1.0  0.70752  0.85628  0.52344  1.0000
  H   H1809     1.0  0.71676  0.88447  0.81455  1.0000
  C   C1515     1.0  0.49650  0.91697  0.80702  1.0000
  C   C1516     1.0  0.52625  0.65527  0.71848  1.0000
  C   C1517     1.0  0.47053  0.95794  0.57961  1.0000
  H   H1810     1.0  0.60392  0.80499  0.57177  1.0000
  N   N100      1.0  0.48999  0.88661  0.81945  1.0000
  C   C1518     1.0  0.53349  0.74617  0.52034  1.0000
  Fe  Fe206     1.0  0.71494  0.78685  0.82861  1.0000
  H   H1811     1.0  0.66341  0.83887  0.65366  1.0000
  S   S414      1.0  0.47635  0.93341  0.93666  1.0000
  C   C1519     1.0  0.52643  0.92706  0.83594  1.0000
  C   C1520     1.0  0.51657  0.91002  0.83419  1.0000
  C   C1521     1.0  0.63011  0.85043  0.51925  1.0000
  H   H1812     1.0  0.59808  0.66248  0.71642  1.0000
  H   H1813     1.0  0.58467  0.68310  0.76251  1.0000
  H   H1814     1.0  0.67132  0.86897  0.64316  1.0000
  H   H1815     1.0  0.52882  0.95221  0.82590  1.0000
  H   H1816     1.0  0.48444  0.95171  0.54312  1.0000
  H   H1817     1.0  0.56967  0.65757  0.65492  1.0000
  H   H1818     1.0  0.65250  0.87906  0.61687  1.0000
  N   N101      1.0  0.53007  0.71409  0.60196  1.0000
  C   C1522     1.0  0.54595  0.71942  0.61746  1.0000
  C   C1523     1.0  0.51835  0.71428  0.62788  1.0000
  C   C1524     1.0  0.52533  0.69659  0.59005  1.0000
  C   C1525     1.0  0.53098  0.72508  0.57411  1.0000
  C   C1526     1.0  0.52067  0.73389  0.57135  1.0000
  H   H1819     1.0  0.55012  0.73266  0.62599  1.0000
  H   H1820     1.0  0.54551  0.71165  0.63898  1.0000
  H   H1821     1.0  0.55540  0.71837  0.60089  1.0000
  H   H1822     1.0  0.52141  0.72713  0.63819  1.0000
  H   H1823     1.0  0.51824  0.70616  0.64876  1.0000
  H   H1824     1.0  0.50590  0.70946  0.61865  1.0000
  H   H1825     1.0  0.53433  0.69512  0.57267  1.0000
  H   H1826     1.0  0.52406  0.68783  0.61050  1.0000
  H   H1827     1.0  0.51365  0.69227  0.57738  1.0000
  H   H1828     1.0  0.51177  0.73341  0.58973  1.0000
  N   N102      1.0  0.63025  0.82722  0.93369  1.0000
  C   C1527     1.0  0.62679  0.84262  0.93365  1.0000
  C   C1528     1.0  0.61533  0.81291  0.94282  1.0000
  C   C1529     1.0  0.64213  0.82927  0.95959  1.0000
  C   C1530     1.0  0.63578  0.82422  0.90074  1.0000
  C   C1531     1.0  0.65114  0.82371  0.89461  1.0000
  C   C1532     1.0  0.62562  0.82158  0.87351  1.0000
  C   C1533     1.0  0.65582  0.82054  0.86326  1.0000
  C   C1534     1.0  0.63049  0.81852  0.84221  1.0000
  C   C1535     1.0  0.64552  0.81785  0.83714  1.0000
  H   H1829     1.0  0.61698  0.84159  0.91681  1.0000
  H   H1830     1.0  0.55891  0.67821  0.71126  1.0000
  H   H1831     1.0  0.63759  0.85370  0.92634  1.0000
  H   H1832     1.0  0.61700  0.80091  0.94103  1.0000
  H   H1833     1.0  0.60511  0.81184  0.92720  1.0000
  S   S415      1.0  0.55482  0.86056  0.97367  1.0000
  H   H1834     1.0  0.64499  0.81794  0.96159  1.0000
  H   H1835     1.0  0.51448  0.75144  0.54370  1.0000
  H   H1836     1.0  0.62281  0.84534  0.95829  1.0000
  H   H1837     1.0  0.65976  0.82550  0.91359  1.0000
  H   H1838     1.0  0.61377  0.82183  0.87626  1.0000
  H   H1839     1.0  0.66744  0.81985  0.85938  1.0000
  H   H1840     1.0  0.62254  0.81663  0.82180  1.0000
  H   H1841     1.0  0.64920  0.81515  0.81299  1.0000
  S   S416      1.0  0.57581  0.80098  0.98450  1.0000
  C   C1536     1.0  0.48934  0.88040  0.78537  1.0000
  H   H1842     1.0  0.52123  0.90153  0.84467  1.0000
  H   H1843     1.0  0.71575  0.86435  0.80118  1.0000
  H   H1844     1.0  0.49204  0.66324  0.73251  1.0000
  C   C1537     1.0  0.64878  0.86582  0.62194  1.0000
  Fe  Fe207     1.0  0.58820  0.82780  0.00065  1.0000
  H   H1845     1.0  0.69710  0.87051  0.86160  1.0000
  N   N103      1.0  0.49777  0.98108  0.50913  1.0000
  H   H1846     1.0  0.61586  0.86522  0.51467  1.0000
  H   H1847     1.0  0.68353  0.88405  0.50561  1.0000
  S   S417      1.0  0.70437  0.87687  0.66916  1.0000
  C   C1538     1.0  0.50643  0.93395  0.80907  1.0000
  H   H1848     1.0  0.57890  0.69367  0.71497  1.0000
  N   N104      1.0  0.61277  0.82460  0.60827  1.0000
  C   C1539     1.0  0.60224  0.83221  0.59397  1.0000
  C   C1540     1.0  0.61533  0.81319  0.58332  1.0000
  C   C1541     1.0  0.60400  0.81460  0.63674  1.0000
  H   H1849     1.0  0.60757  0.83904  0.57115  1.0000
  H   H1850     1.0  0.59038  0.82255  0.58702  1.0000
  H   H1851     1.0  0.59981  0.84095  0.61152  1.0000
  H   H1852     1.0  0.62342  0.82040  0.56332  1.0000
  H   H1853     1.0  0.60268  0.82285  0.65683  1.0000
  H   H1854     1.0  0.59174  0.80568  0.63019  1.0000
  H   H1855     1.0  0.61004  0.80679  0.64681  1.0000
  C   C1542     1.0  0.63976  0.83173  0.63351  1.0000
  H   H1856     1.0  0.70159  0.83707  0.75460  1.0000
  C   C1543     1.0  0.65495  0.84316  0.64242  1.0000
  H   H1857     1.0  0.50148  0.88183  0.77614  1.0000
  H   H1858     1.0  0.61600  0.77705  0.80904  1.0000
  C   C1544     1.0  0.70357  0.83297  0.94055  1.0000
  H   H1859     1.0  0.71746  0.69387  0.91386  1.0000
  C   C1545     1.0  0.60508  0.77376  0.82481  1.0000
  H   H1860     1.0  0.52467  0.83734  0.94550  1.0000
  H   H1861     1.0  0.59477  0.76867  0.80798  1.0000
  H   H1862     1.0  0.48131  0.86693  0.78323  1.0000
  S   S418      1.0  0.71606  0.91555  0.54202  1.0000
  H   H1863     1.0  0.60490  0.78553  0.83587  1.0000
  H   H1864     1.0  0.63692  0.81865  0.63808  1.0000
  C   C1546     1.0  0.65946  0.86016  0.63659  1.0000
  H   H1865     1.0  0.62077  0.80489  0.59364  1.0000
  H   H1866     1.0  0.56472  0.66756  0.76451  1.0000
  H   H1867     1.0  0.48609  0.86271  0.84126  1.0000
  H   H1868     1.0  0.49656  0.88052  0.86632  1.0000
  C   C1547     1.0  0.48108  0.96165  0.55272  1.0000
  H   H1869     1.0  0.47069  0.96126  0.90420  1.0000
  C   C1548     1.0  0.50099  0.90449  0.82060  1.0000
  H   H1870     1.0  0.48508  0.91381  0.79542  1.0000
  C   C1549     1.0  0.70956  0.84668  0.73879  1.0000
  C   C1550     1.0  0.70320  0.85451  0.71644  1.0000
  S   S419      1.0  0.57089  0.83210  0.51902  1.0000
  C   C1551     1.0  0.47532  0.96904  0.77588  1.0000
  Fe  Fe208     1.0  0.47118  0.91335  0.89831  1.0000
  H   H1871     1.0  0.59484  0.67195  0.68017  1.0000
  N   N105      1.0  0.57696  0.66820  0.71844  1.0000
  H   H1872     1.0  0.58196  0.66175  0.76648  1.0000
  H   H1873     1.0  0.50241  0.94328  0.79981  1.0000
  H   H1874     1.0  0.64712  0.83907  0.52747  1.0000
  H   H1875     1.0  0.50984  0.96499  0.52311  1.0000
  C   C1552     1.0  0.62724  0.86514  0.52203  1.0000
  H   H1876     1.0  0.52227  0.89366  0.95561  1.0000
  H   H1877     1.0  0.70024  0.85435  0.88376  1.0000
  C   C1553     1.0  0.53684  0.87907  0.96108  1.0000
  C   C1554     1.0  0.70535  0.85192  0.98663  1.0000
  C   C1555     1.0  0.47351  0.88449  0.83031  1.0000
  H   H1878     1.0  0.63725  0.89142  0.53480  1.0000
  H   H1879     1.0  0.50648  0.87503  0.83176  1.0000
  H   H1880     1.0  0.47360  0.89041  0.85466  1.0000
  H   H1881     1.0  0.60199  0.68452  0.71599  1.0000
  C   C1556     1.0  0.54361  0.73754  0.52204  1.0000
  C   C1557     1.0  0.71327  0.86695  0.69536  1.0000
  C   C1558     1.0  0.52197  0.74424  0.54476  1.0000
  C   C1559     1.0  0.48685  0.97766  0.53802  1.0000
  H   H1882     1.0  0.47772  0.96057  0.79215  1.0000
  H   H1883     1.0  0.50246  0.96730  0.98545  1.0000
  C   C1560     1.0  0.48843  0.65120  0.74425  1.0000
  H   H1884     1.0  0.55265  0.73922  0.50309  1.0000
  Fe  Fe209     1.0  0.78330  0.04229  0.13225  1.0000
  S   S420      1.0  0.78676  0.06188  0.09404  1.0000
  S   S421      1.0  0.76118  0.01757  0.13352  1.0000
  Fe  Fe210     1.0  0.81241  0.06593  0.17074  1.0000
  S   S422      1.0  0.81823  0.08692  0.13523  1.0000
  S   S423      1.0  0.82483  0.06663  0.21859  1.0000
  Fe  Fe211     1.0  0.79169  0.08042  0.13551  1.0000
  S   S424      1.0  0.78500  0.10303  0.13775  1.0000
  Fe  Fe212     1.0  0.81303  0.06689  0.09660  1.0000
  S   S425      1.0  0.82671  0.06867  0.04882  1.0000
  S   S426      1.0  0.78612  0.06075  0.17378  1.0000
  S   S427      1.0  0.80932  0.04604  0.13208  1.0000
  Fe  Fe213     1.0  0.88619  0.13637  0.33602  1.0000
  S   S428      1.0  0.90618  0.13747  0.36949  1.0000
  S   S429      1.0  0.88232  0.12675  0.28334  1.0000
  Fe  Fe214     1.0  0.87685  0.16031  0.37942  1.0000
  S   S430      1.0  0.89604  0.16359  0.41565  1.0000
  S   S431      1.0  0.85894  0.17269  0.37957  1.0000
  Fe  Fe215     1.0  0.91272  0.16534  0.37282  1.0000
  S   S432      1.0  0.93663  0.18803  0.36587  1.0000
  Fe  Fe216     1.0  0.88809  0.13564  0.41027  1.0000
  S   S433      1.0  0.88590  0.12218  0.45846  1.0000
  S   S434      1.0  0.89384  0.16428  0.33700  1.0000
  S   S435      1.0  0.86780  0.13232  0.37640  1.0000
  H   H1885     1.0  0.76997  0.17156  0.08975  1.0000
  S   S436      1.0  0.74615  0.14441  0.25927  1.0000
  C   C1561     1.0  0.83412  0.13804  0.02596  1.0000
  Fe  Fe217     1.0  0.72491  0.12030  0.25376  1.0000
  C   C1562     1.0  0.81302  0.13744  0.31542  1.0000
  Fe  Fe218     1.0  0.73584  0.14596  0.30911  1.0000
  S   S437      1.0  0.75305  0.15137  0.35143  1.0000
  Fe  Fe219     1.0  0.80320  0.21586  0.06634  1.0000
  H   H1886     1.0  0.73407  0.98641  0.13953  1.0000
  S   S438      1.0  0.79914  0.20101  0.11351  1.0000
  N   N106      1.0  0.79774  0.10148  0.25291  1.0000
  S   S439      1.0  0.82171  0.23425  0.48605  1.0000
  H   H1887     1.0  0.80902  0.08399  0.26162  1.0000
  H   H1888     1.0  0.75699  0.98887  0.04252  1.0000
  H   H1889     1.0  0.80860  0.20201  0.36475  1.0000
  C   C1563     1.0  0.74085  0.15915  0.46139  1.0000
  S   S440      1.0  0.77685  0.21059  0.45685  1.0000
  S   S441      1.0  0.82756  0.23594  0.05573  1.0000
  S   S442      1.0  0.82242  0.27844  0.02699  1.0000
  Fe  Fe220     1.0  0.72974  0.15619  0.24151  1.0000
  H   H1890     1.0  0.90411  0.22344  0.46887  1.0000
  C   C1564     1.0  0.84817  0.29570  0.06794  1.0000
  H   H1891     1.0  0.81610  0.10351  0.21631  1.0000
  H   H1892     1.0  0.82725  0.09259  0.46763  1.0000
  C   C1565     1.0  0.75426  0.18389  0.18032  1.0000
  C   C1566     1.0  0.75565  0.19475  0.15436  1.0000
  C   C1567     1.0  0.76932  0.20018  0.13369  1.0000
  C   C1568     1.0  0.78193  0.19509  0.13934  1.0000
  C   C1569     1.0  0.78065  0.18442  0.16562  1.0000
  C   C1570     1.0  0.76679  0.17861  0.18571  1.0000
  C   C1571     1.0  0.75882  0.12985  0.10027  1.0000
  H   H1893     1.0  0.77015  0.20840  0.11357  1.0000
  H   H1894     1.0  0.79042  0.18055  0.17030  1.0000
  H   H1895     1.0  0.76592  0.17032  0.20566  1.0000
  C   C1572     1.0  0.77076  0.19435  0.42700  1.0000
  C   C1573     1.0  0.75870  0.19347  0.40509  1.0000
  C   C1574     1.0  0.75333  0.18062  0.38131  1.0000
  C   C1575     1.0  0.75990  0.16843  0.37944  1.0000
  C   C1576     1.0  0.77203  0.16938  0.40117  1.0000
  C   C1577     1.0  0.77750  0.18231  0.42476  1.0000
  H   H1896     1.0  0.75344  0.20276  0.40669  1.0000
  H   H1897     1.0  0.74397  0.18006  0.36488  1.0000
  H   H1898     1.0  0.77718  0.16000  0.39990  1.0000
  H   H1899     1.0  0.78680  0.18286  0.44140  1.0000
  C   C1578     1.0  0.85611  0.18229  0.41609  1.0000
  C   C1579     1.0  0.84396  0.18857  0.41827  1.0000
  C   C1580     1.0  0.84164  0.19649  0.44709  1.0000
  C   C1581     1.0  0.85165  0.19833  0.47359  1.0000
  C   C1582     1.0  0.86378  0.19205  0.47138  1.0000
  C   C1583     1.0  0.86593  0.18392  0.44282  1.0000
  H   H1900     1.0  0.83633  0.18733  0.39762  1.0000
  H   H1901     1.0  0.83228  0.20136  0.44866  1.0000
  H   H1902     1.0  0.72005  0.15298  0.36220  1.0000
  H   H1903     1.0  0.87523  0.17905  0.44150  1.0000
  H   H1904     1.0  0.96472  0.15026  0.22543  1.0000
  C   C1584     1.0  0.95720  0.19149  0.37162  1.0000
  C   C1585     1.0  0.86159  0.26803  0.01953  1.0000
  H   H1905     1.0  0.95302  0.16733  0.39144  1.0000
  C   C1586     1.0  0.83974  0.08432  0.23694  1.0000
  C   C1587     1.0  0.84316  0.08362  0.27004  1.0000
  C   C1588     1.0  0.85553  0.09701  0.28522  1.0000
  C   C1589     1.0  0.86486  0.11106  0.26715  1.0000
  C   C1590     1.0  0.86120  0.11190  0.23421  1.0000
  C   C1591     1.0  0.84856  0.09870  0.21925  1.0000
  H   H1906     1.0  0.83639  0.07255  0.28393  1.0000
  H   H1907     1.0  0.85832  0.09613  0.31047  1.0000
  H   H1908     1.0  0.86845  0.12267  0.22001  1.0000
  H   H1909     1.0  0.84605  0.09948  0.19384  1.0000
  C   C1592     1.0  0.79710  0.08488  0.26309  1.0000
  C   C1593     1.0  0.85281  0.10619  0.46346  1.0000
  C   C1594     1.0  0.80051  0.20766  0.35676  1.0000
  C   C1595     1.0  0.84161  0.08707  0.03272  1.0000
  C   C1596     1.0  0.85035  0.10069  0.05266  1.0000
  C   C1597     1.0  0.86292  0.11456  0.03913  1.0000
  H   H1910     1.0  0.85261  0.10860  0.43771  1.0000
  C   C1598     1.0  0.88967  0.09610  0.22549  1.0000
  H   H1911     1.0  0.84763  0.10041  0.07851  1.0000
  H   H1912     1.0  0.86995  0.12483  0.05484  1.0000
  C   C1599     1.0  0.76898  0.10118  0.16465  1.0000
  C   C1600     1.0  0.76704  0.11565  0.17604  1.0000
  C   C1601     1.0  0.75420  0.11447  0.19719  1.0000
  C   C1602     1.0  0.74332  0.09878  0.20728  1.0000
  C   C1603     1.0  0.74533  0.08431  0.19597  1.0000
  C   C1604     1.0  0.75813  0.08549  0.17471  1.0000
  H   H1913     1.0  0.77553  0.12781  0.16873  1.0000
  H   H1914     1.0  0.75269  0.12567  0.20555  1.0000
  C   C1605     1.0  0.86745  0.11165  0.47948  1.0000
  H   H1915     1.0  0.75944  0.07424  0.16580  1.0000
  C   C1606     1.0  0.87582  0.23670  0.44403  1.0000
  C   C1607     1.0  0.75877  0.99664  0.12322  1.0000
  H   H1916     1.0  0.78278  0.00263  0.10485  1.0000
  H   H1917     1.0  0.83299  0.15178  0.07062  1.0000
  H   H1918     1.0  0.78654  0.00280  0.49427  1.0000
  H   H1919     1.0  0.77985  0.15334  0.13880  1.0000
  H   H1920     1.0  0.80393  0.09957  0.07399  1.0000
  H   H1921     1.0  0.74604  0.19896  0.15011  1.0000
  H   H1922     1.0  0.84727  0.13090  0.30096  1.0000
  C   C1608     1.0  0.83480  0.12931  0.29909  1.0000
  H   H1923     1.0  0.78485  0.12629  0.06621  1.0000
  C   C1609     1.0  0.82323  0.12761  0.49177  1.0000
  H   H1924     1.0  0.86599  0.14947  0.02943  1.0000
  H   H1925     1.0  0.81426  0.13065  0.47796  1.0000
  H   H1926     1.0  0.79622  0.09552  0.20137  1.0000
  C   C1610     1.0  0.81789  0.12606  0.07510  1.0000
  C   C1611     1.0  0.78375  0.13484  0.04842  1.0000
  H   H1927     1.0  0.72014  0.00776  0.05885  1.0000
  Fe  Fe221     1.0  0.81479  0.24985  0.03046  1.0000
  H   H1928     1.0  0.77340  0.09038  0.23578  1.0000
  H   H1929     1.0  0.83695  0.14884  0.33411  1.0000
  H   H1930     1.0  0.80578  0.11736  0.21097  1.0000
  C   C1612     1.0  0.77586  0.15723  0.03199  1.0000
  H   H1931     1.0  0.87039  0.17000  0.01404  1.0000
  H   H1932     1.0  0.77085  0.16660  0.03610  1.0000
  H   H1933     1.0  0.73690  0.07213  0.20357  1.0000
  H   H1934     1.0  0.91756  0.23567  0.36407  1.0000
  C   C1613     1.0  0.78695  0.22640  0.36707  1.0000
  H   H1935     1.0  0.86914  0.23791  0.39458  1.0000
  H   H1936     1.0  0.79292  0.16488  0.10646  1.0000
  H   H1937     1.0  0.79012  0.14348  0.11363  1.0000
  H   H1938     1.0  0.74885  0.01250  0.05480  1.0000
  H   H1939     1.0  0.86686  0.24092  0.45445  1.0000
  C   C1614     1.0  0.83818  0.29656  0.04304  1.0000
  H   H1940     1.0  0.88875  0.22780  0.37079  1.0000
  H   H1941     1.0  0.78451  0.23523  0.38327  1.0000
  H   H1942     1.0  0.76467  0.12074  0.10249  1.0000
  C   C1615     1.0  0.82461  0.11713  0.27809  1.0000
  S   S443      1.0  0.73708  0.17789  0.20626  1.0000
  C   C1616     1.0  0.82870  0.13979  0.05814  1.0000
  Fe  Fe222     1.0  0.79642  0.21548  0.49445  1.0000
  C   C1617     1.0  0.72434  0.17530  0.46072  1.0000
  C   C1618     1.0  0.82901  0.13943  0.31777  1.0000
  C   C1619     1.0  0.96199  0.17932  0.38438  1.0000
  H   H1943     1.0  0.82967  0.10960  0.26422  1.0000
  C   C1620     1.0  0.86650  0.11517  0.00546  1.0000
  H   H1944     1.0  0.83280  0.16062  0.48641  1.0000
  H   H1945     1.0  0.79537  0.12541  0.01112  1.0000
  C   C1621     1.0  0.77642  0.14625  0.05688  1.0000
  N   N107      1.0  0.77027  0.14676  0.09056  1.0000
  S   S444      1.0  0.72080  0.15950  0.29187  1.0000
  H   H1946     1.0  0.75315  0.13008  0.12464  1.0000
  C   C1622     1.0  0.81217  0.11022  0.06063  1.0000
  N   N108      1.0  0.86183  0.06739  0.14481  1.0000
  C   C1623     1.0  0.87246  0.06529  0.11843  1.0000
  C   C1624     1.0  0.85012  0.05044  0.15360  1.0000
  C   C1625     1.0  0.85267  0.07679  0.13181  1.0000
  C   C1626     1.0  0.87147  0.07686  0.17270  1.0000
  C   C1627     1.0  0.88371  0.09297  0.16789  1.0000
  C   C1628     1.0  0.86869  0.07085  0.20527  1.0000
  C   C1629     1.0  0.78389  0.15232  0.11329  1.0000
  C   C1630     1.0  0.87775  0.08037  0.23110  1.0000
  C   C1631     1.0  0.88561  0.30325  0.01002  1.0000
  H   H1947     1.0  0.88021  0.05907  0.12771  1.0000
  H   H1948     1.0  0.86544  0.05759  0.09772  1.0000
  H   H1949     1.0  0.88040  0.07740  0.10760  1.0000
  H   H1950     1.0  0.85620  0.04266  0.16374  1.0000
  H   H1951     1.0  0.84326  0.04354  0.13202  1.0000
  H   H1952     1.0  0.84098  0.05110  0.17173  1.0000
  H   H1953     1.0  0.86057  0.08928  0.12243  1.0000
  H   H1954     1.0  0.84494  0.07000  0.11111  1.0000
  H   H1955     1.0  0.84482  0.07883  0.15128  1.0000
  H   H1956     1.0  0.88622  0.09858  0.14403  1.0000
  H   H1957     1.0  0.85925  0.05909  0.21173  1.0000
  H   H1958     1.0  0.85790  0.25420  0.01879  1.0000
  S   S445      1.0  0.72722  0.09680  0.23418  1.0000
  C   C1632     1.0  0.83846  0.09706  0.48049  1.0000
  N   N109      1.0  0.77319  0.20389  0.28517  1.0000
  C   C1633     1.0  0.76426  0.18550  0.28553  1.0000
  C   C1634     1.0  0.76145  0.21153  0.27824  1.0000
  C   C1635     1.0  0.78508  0.20814  0.25782  1.0000
  C   C1636     1.0  0.78156  0.20953  0.31650  1.0000
  C   C1637     1.0  0.77897  0.22159  0.33743  1.0000
  C   C1638     1.0  0.79267  0.20280  0.32703  1.0000
  H   H1959     1.0  0.74903  0.12463  0.08231  1.0000
  H   H1960     1.0  0.75717  0.15842  0.12012  1.0000
  H   H1961     1.0  0.89621  0.10367  0.24585  1.0000
  H   H1962     1.0  0.77224  0.17849  0.28681  1.0000
  H   H1963     1.0  0.75591  0.18169  0.30696  1.0000
  H   H1964     1.0  0.75709  0.18097  0.26308  1.0000
  H   H1965     1.0  0.76740  0.22537  0.27604  1.0000
  H   H1966     1.0  0.75186  0.20840  0.29744  1.0000
  H   H1967     1.0  0.75524  0.20680  0.25467  1.0000
  H   H1968     1.0  0.79334  0.20145  0.25924  1.0000
  H   H1969     1.0  0.77915  0.20471  0.23369  1.0000
  H   H1970     1.0  0.79254  0.22181  0.25756  1.0000
  H   H1971     1.0  0.77069  0.22733  0.33178  1.0000
  H   H1972     1.0  0.79518  0.19350  0.31257  1.0000
  C   C1639     1.0  0.96106  0.16263  0.26893  1.0000
  H   H1973     1.0  0.84983  0.15508  0.48660  1.0000
  N   N110      1.0  0.90978  0.21747  0.40256  1.0000
  C   C1640     1.0  0.90147  0.20355  0.37949  1.0000
  C   C1641     1.0  0.92251  0.23089  0.38435  1.0000
  C   C1642     1.0  0.91764  0.21088  0.42707  1.0000
  C   C1643     1.0  0.89830  0.22418  0.41722  1.0000
  C   C1644     1.0  0.89698  0.22657  0.45147  1.0000
  C   C1645     1.0  0.88822  0.22889  0.39704  1.0000
  C   C1646     1.0  0.87705  0.23488  0.41037  1.0000
  H   H1974     1.0  0.83748  0.17091  0.03151  1.0000
  C   C1647     1.0  0.88587  0.23273  0.46447  1.0000
  H   H1975     1.0  0.89683  0.20754  0.35777  1.0000
  H   H1976     1.0  0.90959  0.19758  0.36968  1.0000
  H   H1977     1.0  0.89113  0.19370  0.39169  1.0000
  H   H1978     1.0  0.87157  0.19350  0.49184  1.0000
  H   H1979     1.0  0.93148  0.22630  0.37327  1.0000
  H   H1980     1.0  0.92901  0.24170  0.40069  1.0000
  H   H1981     1.0  0.90860  0.20088  0.44195  1.0000
  H   H1982     1.0  0.92560  0.20518  0.41529  1.0000
  H   H1983     1.0  0.92545  0.22093  0.44354  1.0000
  C   C1648     1.0  0.76180  0.15838  0.09466  1.0000
  S   S446      1.0  0.79024  0.23077  0.04487  1.0000
  H   H1984     1.0  0.73449  0.13785  0.43054  1.0000
  C   C1649     1.0  0.84066  0.31238  0.03032  1.0000
  C   C1650     1.0  0.79767  0.21944  0.37671  1.0000
  H   H1985     1.0  0.87511  0.07583  0.25590  1.0000
  H   H1986     1.0  0.94838  0.15485  0.27104  1.0000
  H   H1987     1.0  0.78912  0.07459  0.24720  1.0000
  C   C1651     1.0  0.80429  0.10464  0.21904  1.0000
  H   H1988     1.0  0.75134  0.15488  0.07830  1.0000
  C   C1652     1.0  0.83943  0.16614  0.00711  1.0000
  C   C1653     1.0  0.81728  0.10801  0.02921  1.0000
  C   C1654     1.0  0.73979  0.00008  0.05046  1.0000
  H   H1989     1.0  0.89134  0.29708  0.02485  1.0000
  H   H1990     1.0  0.78041  0.11234  0.24343  1.0000
  C   C1655     1.0  0.86104  0.15931  0.02689  1.0000
  H   H1991     1.0  0.85102  0.27059  0.02822  1.0000
  H   H1992     1.0  0.79050  0.12445  0.29383  1.0000
  H   H1993     1.0  0.85955  0.16385  0.05181  1.0000
  H   H1994     1.0  0.84625  0.28376  0.07862  1.0000
  C   C1656     1.0  0.78098  0.10054  0.25241  1.0000
  H   H1995     1.0  0.80341  0.22286  0.40021  1.0000
  H   H1996     1.0  0.96089  0.17709  0.31193  1.0000
  H   H1997     1.0  0.77506  0.09770  0.27692  1.0000
  C   C1657     1.0  0.80824  0.11466  0.27513  1.0000
  S   S447      1.0  0.80301  0.20126  0.02010  1.0000
  C   C1658     1.0  0.80272  0.12528  0.29442  1.0000
  C   C1659     1.0  0.89263  0.10240  0.19396  1.0000
  H   H1998     1.0  0.83298  0.31327  0.01124  1.0000
  H   H1999     1.0  0.79262  0.08218  0.28872  1.0000
  H   H2000     1.0  0.81403  0.12760  0.09980  1.0000
  H   H2001     1.0  0.80860  0.14537  0.33007  1.0000
  H   H2002     1.0  0.86816  0.30954  0.09873  1.0000
  C   C1660     1.0  0.86055  0.31040  0.07948  1.0000
  H   H2003     1.0  0.90162  0.11485  0.18993  1.0000
  H   H2004     1.0  0.75151  0.15765  0.46967  1.0000
  H   H2005     1.0  0.96561  0.21650  0.35255  1.0000
  H   H2006     1.0  0.87090  0.27289  0.03842  1.0000
  C   C1661     1.0  0.77117  0.99275  0.10916  1.0000
  H   H2007     1.0  0.74576  0.18196  0.48885  1.0000
  N   N111      1.0  0.84580  0.15276  0.00879  1.0000
  C   C1662     1.0  0.73087  0.14780  0.43879  1.0000
  H   H2008     1.0  0.83258  0.12717  0.47397  1.0000
  C   C1663     1.0  0.72359  0.99734  0.05295  1.0000
  C   C1664     1.0  0.78992  0.13431  0.01697  1.0000
  C   C1665     1.0  0.73763  0.17288  0.47225  1.0000
  H   H2009     1.0  0.72281  0.12768  0.38216  1.0000
  H   H2010     1.0  0.88458  0.23387  0.49072  1.0000
  C   C1666     1.0  0.74436  0.98675  0.04356  1.0000
  H   H2011     1.0  0.72211  0.18621  0.46877  1.0000
  Fe  Fe223     1.0  0.82622  0.22244  0.00785  1.0000
  C   C1667     1.0  0.82813  0.12164  0.01201  1.0000
  H   H2012     1.0  0.81319  0.09551  0.01852  1.0000
  H   H2013     1.0  0.81205  0.02424  0.48403  1.0000
  C   C1668     1.0  0.96814  0.17518  0.29199  1.0000
  H   H2014     1.0  0.81715  0.11468  0.50126  1.0000
  H   H2015     1.0  0.82444  0.04378  0.50222  1.0000
  Fe  Fe224     1.0  0.79959  0.05012  0.63876  1.0000
  S   S448      1.0  0.78936  0.05906  0.59750  1.0000
  S   S449      1.0  0.79150  0.02219  0.64999  1.0000
  Fe  Fe225     1.0  0.82010  0.08610  0.66176  1.0000
  S   S450      1.0  0.81105  0.09711  0.62112  1.0000
  S   S451      1.0  0.83533  0.10758  0.69505  1.0000
  Fe  Fe226     1.0  0.78700  0.07773  0.63361  1.0000
  S   S452      1.0  0.76577  0.08514  0.63234  1.0000
  Fe  Fe227     1.0  0.81447  0.07780  0.58827  1.0000
  S   S453      1.0  0.81998  0.08245  0.53397  1.0000
  S   S454      1.0  0.79551  0.06772  0.67609  1.0000
  S   S455      1.0  0.82526  0.06776  0.62760  1.0000
  Fe  Fe228     1.0  0.88062  0.12975  0.86258  1.0000
  S   S456      1.0  0.90161  0.13559  0.89630  1.0000
  S   S457      1.0  0.87334  0.10857  0.82491  1.0000
  Fe  Fe229     1.0  0.87158  0.15764  0.89118  1.0000
  S   S458      1.0  0.89219  0.16643  0.92559  1.0000
  S   S459      1.0  0.85021  0.16503  0.88939  1.0000
  Fe  Fe230     1.0  0.90731  0.16256  0.88389  1.0000
  S   S460      1.0  0.93140  0.18167  0.86436  1.0000
  Fe  Fe231     1.0  0.88509  0.13898  0.93557  1.0000
  H   H2016     1.0  0.72284  0.00284  0.66845  1.0000
  S   S461      1.0  0.88696  0.15631  0.84825  1.0000
  S   S462      1.0  0.86381  0.13052  0.90318  1.0000
  H   H2017     1.0  0.76145  0.05033  0.65865  1.0000
  S   S463      1.0  0.74482  0.13921  0.75954  1.0000
  H   H2018     1.0  0.88290  0.30464  0.54999  1.0000
  H   H2019     1.0  0.78124  0.16865  0.89045  1.0000
  S   S464      1.0  0.88271  0.13259  0.98956  1.0000
  C   C1669     1.0  0.72180  0.04512  0.73283  1.0000
  H   H2020     1.0  0.77868  0.14587  0.73552  1.0000
  Fe  Fe232     1.0  0.80215  0.21041  0.56644  1.0000
  S   S465      1.0  0.79315  0.22786  0.54148  1.0000
  S   S466      1.0  0.79673  0.19875  0.61700  1.0000
  N   N112      1.0  0.80674  0.02703  0.53502  1.0000
  S   S467      1.0  0.81467  0.23723  0.98174  1.0000
  H   H2021     1.0  0.76505  0.13088  0.80753  1.0000
  H   H2022     1.0  0.74911  0.04052  0.62478  1.0000
  C   C1670     1.0  0.72452  0.14953  0.92546  1.0000
  H   H2023     1.0  0.79962  0.16774  0.56766  1.0000
  S   S468      1.0  0.76894  0.20698  0.96678  1.0000
  S   S469      1.0  0.82765  0.22892  0.56304  1.0000
  H   H2024     1.0  0.90802  0.12998  0.82394  1.0000
  C   C1671     1.0  0.84214  0.29149  0.54844  1.0000
  H   H2025     1.0  0.77456  0.11762  0.72160  1.0000
  C   C1672     1.0  0.85730  0.29068  0.54793  1.0000
  C   C1673     1.0  0.95770  0.17769  0.89243  1.0000
  H   H2026     1.0  0.95043  0.15377  0.83430  1.0000
  C   C1674     1.0  0.74819  0.16873  0.66642  1.0000
  C   C1675     1.0  0.74887  0.17301  0.63333  1.0000
  C   C1676     1.0  0.76362  0.18227  0.61774  1.0000
  C   C1677     1.0  0.77780  0.18744  0.63530  1.0000
  C   C1678     1.0  0.77710  0.18340  0.66850  1.0000
  C   C1679     1.0  0.76239  0.17396  0.68397  1.0000
  H   H2027     1.0  0.80830  0.11482  0.55426  1.0000
  H   H2028     1.0  0.76400  0.18534  0.59220  1.0000
  H   H2029     1.0  0.78799  0.18779  0.68243  1.0000
  H   H2030     1.0  0.76197  0.17103  0.70961  1.0000
  C   C1680     1.0  0.76649  0.19452  0.93089  1.0000
  C   C1681     1.0  0.75347  0.19222  0.91056  1.0000
  C   C1682     1.0  0.75044  0.18148  0.88303  1.0000
  C   C1683     1.0  0.76026  0.17269  0.87594  1.0000
  C   C1684     1.0  0.77345  0.17523  0.89594  1.0000
  C   C1685     1.0  0.77662  0.18616  0.92317  1.0000
  H   H2031     1.0  0.74560  0.19868  0.91633  1.0000
  H   H2032     1.0  0.74052  0.17999  0.86746  1.0000
  C   C1686     1.0  0.73509  0.15707  0.95077  1.0000
  H   H2033     1.0  0.78676  0.18795  0.93842  1.0000
  C   C1687     1.0  0.85012  0.18100  0.91660  1.0000
  C   C1688     1.0  0.83561  0.18265  0.92453  1.0000
  C   C1689     1.0  0.83525  0.19502  0.94696  1.0000
  H   H2034     1.0  0.83880  0.14441  0.95935  1.0000
  S   S470      1.0  0.75653  0.15818  0.84293  1.0000
  C   C1690     1.0  0.86428  0.19187  0.93087  1.0000
  H   H2035     1.0  0.82462  0.17432  0.91343  1.0000
  H   H2036     1.0  0.82403  0.19621  0.95311  1.0000
  H   H2037     1.0  0.77021  0.01673  0.59386  1.0000
  H   H2038     1.0  0.87554  0.19082  0.92462  1.0000
  H   H2039     1.0  0.79582  0.12368  0.72320  1.0000
  C   C1691     1.0  0.95226  0.18670  0.87109  1.0000
  H   H2040     1.0  0.75925  0.01511  0.68202  1.0000
  H   H2041     1.0  0.94911  0.16740  0.90595  1.0000
  C   C1692     1.0  0.84598  0.10741  0.73077  1.0000
  C   C1693     1.0  0.85440  0.12268  0.74692  1.0000
  C   C1694     1.0  0.86285  0.12324  0.77565  1.0000
  C   C1695     1.0  0.86299  0.10848  0.78860  1.0000
  C   C1696     1.0  0.85469  0.09321  0.77231  1.0000
  C   C1697     1.0  0.84615  0.09264  0.74364  1.0000
  H   H2042     1.0  0.85444  0.13419  0.73703  1.0000
  H   H2043     1.0  0.86938  0.13509  0.78759  1.0000
  H   H2044     1.0  0.85479  0.08173  0.78202  1.0000
  H   H2045     1.0  0.83977  0.08080  0.73144  1.0000
  H   H2046     1.0  0.77267  0.12698  0.65164  1.0000
  H   H2047     1.0  0.76001  0.03203  0.70840  1.0000
  C   C1698     1.0  0.78515  0.25333  0.60280  1.0000
  Fe  Fe233     1.0  0.72530  0.11424  0.76856  1.0000
  C   C1699     1.0  0.85311  0.09942  0.53015  1.0000
  H   H2048     1.0  0.77981  0.98741  0.66735  1.0000
  H   H2049     1.0  0.86009  0.10207  0.95951  1.0000
  H   H2050     1.0  0.78921  0.16283  0.70923  1.0000
  H   H2051     1.0  0.85334  0.09689  0.55583  1.0000
  H   H2052     1.0  0.87882  0.11229  0.52542  1.0000
  C   C1700     1.0  0.75645  0.08671  0.66966  1.0000
  C   C1701     1.0  0.74587  0.09500  0.67073  1.0000
  C   C1702     1.0  0.73878  0.09708  0.70045  1.0000
  C   C1703     1.0  0.74190  0.09041  0.72901  1.0000
  C   C1704     1.0  0.75237  0.08199  0.72793  1.0000
  C   C1705     1.0  0.75976  0.08028  0.69836  1.0000
  H   H2053     1.0  0.74324  0.09998  0.64858  1.0000
  S   S471      1.0  0.80349  0.19663  0.52009  1.0000
  H   H2054     1.0  0.75472  0.07673  0.75000  1.0000
  H   H2055     1.0  0.76788  0.07387  0.69787  1.0000
  C   C1706     1.0  0.96374  0.20004  0.85377  1.0000
  C   C1707     1.0  0.77652  0.00400  0.63229  1.0000
  C   C1708     1.0  0.73290  0.03530  0.68516  1.0000
  H   H2056     1.0  0.73063  0.10352  0.70113  1.0000
  C   C1709     1.0  0.92108  0.13779  0.82154  1.0000
  H   H2057     1.0  0.75428  0.21848  0.72800  1.0000
  C   C1710     1.0  0.79426  0.12705  0.57664  1.0000
  C   C1711     1.0  0.72494  0.04279  0.66521  1.0000
  C   C1712     1.0  0.86577  0.30324  0.97134  1.0000
  C   C1713     1.0  0.94270  0.15575  0.78453  1.0000
  H   H2058     1.0  0.91960  0.16660  0.80141  1.0000
  N   N113      1.0  0.78823  0.13875  0.69154  1.0000
  C   C1714     1.0  0.77387  0.13614  0.67189  1.0000
  C   C1715     1.0  0.78585  0.12251  0.70669  1.0000
  C   C1716     1.0  0.80286  0.14545  0.67059  1.0000
  C   C1717     1.0  0.80685  0.16093  0.65443  1.0000
  C   C1718     1.0  0.81359  0.13712  0.66583  1.0000
  C   C1719     1.0  0.82065  0.16765  0.63482  1.0000
  C   C1720     1.0  0.82734  0.14392  0.64604  1.0000
  C   C1721     1.0  0.83086  0.15914  0.63053  1.0000
  H   H2059     1.0  0.76263  0.13123  0.68699  1.0000
  H   H2060     1.0  0.77415  0.14789  0.66097  1.0000
  H   H2061     1.0  0.78487  0.11277  0.68778  1.0000
  H   H2062     1.0  0.79930  0.16799  0.65671  1.0000
  H   H2063     1.0  0.81175  0.12534  0.67713  1.0000
  H   H2064     1.0  0.82333  0.17949  0.62270  1.0000
  H   H2065     1.0  0.83534  0.13732  0.64298  1.0000
  H   H2066     1.0  0.84153  0.16438  0.61525  1.0000
  H   H2067     1.0  0.79985  0.04775  0.52506  1.0000
  H   H2068     1.0  0.77372  0.22016  0.63171  1.0000
  H   H2069     1.0  0.81285  0.27716  0.61908  1.0000
  C   C1722     1.0  0.80478  0.27080  0.64000  1.0000
  H   H2070     1.0  0.73790  0.16910  0.61968  1.0000
  H   H2071     1.0  0.88553  0.27663  0.95173  1.0000
  H   H2072     1.0  0.72585  0.01475  0.63185  1.0000
  S   S472      1.0  0.73260  0.09217  0.76611  1.0000
  C   C1723     1.0  0.88055  0.27074  0.97557  1.0000
  C   C1724     1.0  0.78915  0.15083  0.71837  1.0000
  Fe  Fe234     1.0  0.79138  0.21716  0.99779  1.0000
  H   H2073     1.0  0.85528  0.13966  0.97419  1.0000
  Fe  Fe235     1.0  0.72604  0.14539  0.73495  1.0000
  H   H2074     1.0  0.75545  0.20476  0.67517  1.0000
  H   H2075     1.0  0.79736  0.27823  0.64573  1.0000
  H   H2076     1.0  0.72856  0.14304  0.90665  1.0000
  C   C1725     1.0  0.87128  0.30549  0.55012  1.0000
  H   H2077     1.0  0.83509  0.12209  0.54761  1.0000
  H   H2078     1.0  0.74350  0.01173  0.71117  1.0000
  N   N114      1.0  0.74271  0.02666  0.67009  1.0000
  H   H2079     1.0  0.84983  0.25379  0.96309  1.0000
  H   H2080     1.0  0.80020  0.15375  0.73280  1.0000
  C   C1726     1.0  0.80562  0.24462  0.62273  1.0000
  C   C1727     1.0  0.78369  0.24395  0.65849  1.0000
  C   C1728     1.0  0.77356  0.22682  0.65425  1.0000
  C   C1729     1.0  0.78266  0.25151  0.68916  1.0000
  H   H2081     1.0  0.77156  0.24829  0.73716  1.0000
  S   S473      1.0  0.72935  0.15747  0.68512  1.0000
  C   C1730     1.0  0.75465  0.03802  0.64691  1.0000
  H   H2082     1.0  0.81266  0.27159  0.66093  1.0000
  H   H2083     1.0  0.81217  0.24313  0.64431  1.0000
  H   H2084     1.0  0.79916  0.23194  0.61232  1.0000
  H   H2085     1.0  0.78986  0.26444  0.69473  1.0000
  C   C1731     1.0  0.76306  0.21784  0.67903  1.0000
  C   C1732     1.0  0.86752  0.10819  0.51288  1.0000
  H   H2086     1.0  0.82598  0.03306  0.56943  1.0000
  N   N115      1.0  0.82114  0.12396  0.82578  1.0000
  C   C1733     1.0  0.83508  0.13875  0.81422  1.0000
  C   C1734     1.0  0.82241  0.12247  0.86151  1.0000
  C   C1735     1.0  0.82238  0.10890  0.81000  1.0000
  C   C1736     1.0  0.80600  0.12602  0.81889  1.0000
  C   C1737     1.0  0.79339  0.11406  0.80067  1.0000
  C   C1738     1.0  0.80323  0.14003  0.83186  1.0000
  C   C1739     1.0  0.77882  0.11590  0.79662  1.0000
  C   C1740     1.0  0.78870  0.14180  0.82732  1.0000
  C   C1741     1.0  0.77647  0.12969  0.81004  1.0000
  H   H2087     1.0  0.83580  0.15059  0.82642  1.0000
  H   H2088     1.0  0.84662  0.13762  0.81962  1.0000
  H   H2089     1.0  0.83467  0.14034  0.78742  1.0000
  H   H2090     1.0  0.82325  0.13404  0.87500  1.0000
  H   H2091     1.0  0.83336  0.12029  0.86767  1.0000
  H   H2092     1.0  0.81185  0.11191  0.87149  1.0000
  H   H2093     1.0  0.82199  0.10936  0.78289  1.0000
  H   H2094     1.0  0.83390  0.10777  0.81576  1.0000
  H   H2095     1.0  0.81275  0.09715  0.81874  1.0000
  H   H2096     1.0  0.79433  0.10300  0.78981  1.0000
  H   H2097     1.0  0.81218  0.14958  0.84622  1.0000
  H   H2098     1.0  0.76910  0.10641  0.78358  1.0000
  H   H2099     1.0  0.78674  0.15249  0.83779  1.0000
  C   C1742     1.0  0.94881  0.16351  0.75418  1.0000
  N   N116      1.0  0.79465  0.25314  0.63170  1.0000
  H   H2100     1.0  0.79300  0.26007  0.58196  1.0000
  H   H2101     1.0  0.81467  0.25163  0.60388  1.0000
  C   C1743     1.0  0.78908  0.14516  0.99312  1.0000
  H   H2102     1.0  0.77788  0.24054  0.59363  1.0000
  H   H2103     1.0  0.77672  0.25959  0.60861  1.0000
  H   H2104     1.0  0.87655  0.25689  0.97231  1.0000
  C   C1744     1.0  0.85738  0.10182  0.98540  1.0000
  C   C1745     1.0  0.76794  0.00479  0.60484  1.0000
  H   H2105     1.0  0.95974  0.20710  0.83711  1.0000
  C   C1746     1.0  0.81726  0.14106  0.53982  1.0000
  S   S474      1.0  0.84959  0.22125  0.99007  1.0000
  H   H2106     1.0  0.85714  0.27223  0.93885  1.0000
  C   C1747     1.0  0.73092  0.03657  0.71955  1.0000
  H   H2107     1.0  0.84296  0.27019  0.97217  1.0000
  C   C1748     1.0  0.75658  0.99001  0.59109  1.0000
  H   H2108     1.0  0.92385  0.14762  0.84098  1.0000
  H   H2109     1.0  0.73908  0.00454  0.64073  1.0000
  C   C1749     1.0  0.86396  0.20436  0.95289  1.0000
  C   C1750     1.0  0.77329  0.98824  0.64610  1.0000
  C   C1751     1.0  0.87273  0.29395  0.98932  1.0000
  C   C1752     1.0  0.81582  0.03667  0.56346  1.0000
  H   H2110     1.0  0.83193  0.11888  0.98820  1.0000
  H   H2111     1.0  0.90287  0.14850  0.78761  1.0000
  H   H2112     1.0  0.85842  0.16031  0.96264  1.0000
  H   H2113     1.0  0.92148  0.13594  0.73893  1.0000
  C   C1753     1.0  0.83852  0.09371  0.51390  1.0000
  H   H2114     1.0  0.82961  0.30820  0.55123  1.0000
  H   H2115     1.0  0.85131  0.13420  0.52174  1.0000
  H   H2116     1.0  0.91754  0.16104  0.75893  1.0000
  Fe  Fe236     1.0  0.73626  0.14709  0.80661  1.0000
  C   C1754     1.0  0.84515  0.08773  0.99908  1.0000
  C   C1755     1.0  0.80115  0.00118  0.56974  1.0000
  H   H2117     1.0  0.92750  0.12947  0.82674  1.0000
  H   H2118     1.0  0.85828  0.27863  0.54617  1.0000
  H   H2119     1.0  0.72078  0.04642  0.75909  1.0000
  C   C1756     1.0  0.73217  0.01158  0.65199  1.0000
  C   C1757     1.0  0.95389  0.15875  0.81010  1.0000
  H   H2120     1.0  0.82743  0.02498  0.51158  1.0000
  C   C1758     1.0  0.91595  0.15581  0.78387  1.0000
  S   S475      1.0  0.84953  0.20853  0.50974  1.0000
  H   H2121     1.0  0.90754  0.12294  0.76809  1.0000
  H   H2122     1.0  0.83849  0.07721  0.98352  1.0000
  N   N117      1.0  0.92538  0.14536  0.78872  1.0000
  C   C1759     1.0  0.77215  0.24236  0.71387  1.0000
  C   C1760     1.0  0.84946  0.20592  0.96114  1.0000
  N   N118      1.0  0.83026  0.14009  0.51820  1.0000
  H   H2123     1.0  0.92772  0.12374  0.76630  1.0000
  C   C1761     1.0  0.92037  0.13144  0.76440  1.0000
  C   C1762     1.0  0.75170  0.02120  0.69416  1.0000
  H   H2124     1.0  0.80857  0.00824  0.58946  1.0000
  C   C1763     1.0  0.78862  0.99802  0.51708  1.0000
  C   C1764     1.0  0.76239  0.22557  0.70881  1.0000
  H   H2125     1.0  0.80790  0.03483  0.58550  1.0000
  C   C1765     1.0  0.85371  0.26768  0.96418  1.0000
  C   C1766     1.0  0.73122  0.16670  0.97444  1.0000
  C   C1767     1.0  0.79161  0.14181  0.58030  1.0000
  C   C1768     1.0  0.84962  0.14901  0.97482  1.0000
  H   H2126     1.0  0.87499  0.21277  0.96377  1.0000
  H   H2127     1.0  0.73646  0.03131  0.73677  1.0000
  H   H2128     1.0  0.76347  0.03275  0.63807  1.0000
  C   C1769     1.0  0.84122  0.13480  0.53722  1.0000
  H   H2129     1.0  0.94102  0.16197  0.73376  1.0000
  C   C1770     1.0  0.80165  0.15623  0.56437  1.0000
  H   H2130     1.0  0.78157  0.16518  0.98212  1.0000
  H   H2131     1.0  0.72581  0.04228  0.63890  1.0000
  H   H2132     1.0  0.75025  0.99076  0.56949  1.0000
  H   H2133     1.0  0.85561  0.29733  0.95579  1.0000
  C   C1771     1.0  0.84123  0.30736  0.55096  1.0000
  N   N119      1.0  0.86717  0.27547  0.98701  1.0000
  Fe  Fe237     1.0  0.82843  0.21619  0.51523  1.0000
  Fe  Fe238     1.0  0.81899  0.24559  0.53483  1.0000
  H   H2134     1.0  0.78177  0.14211  0.59553  1.0000
  H   H2135     1.0  0.82119  0.05038  0.55868  1.0000
  H   H2136     1.0  0.78645  0.11582  0.58916  1.0000
  S   S476      1.0  0.82399  0.27318  0.54764  1.0000
  C   C1772     1.0  0.80686  0.12663  0.55666  1.0000
  H   H2137     1.0  0.84646  0.14362  0.55786  1.0000
  C   C1773     1.0  0.81434  0.15598  0.54442  1.0000
  H   H2138     1.0  0.74672  0.15620  0.95101  1.0000
  H   H2139     1.0  0.79388  0.14477  0.96876  1.0000
  C   C1774     1.0  0.78208  0.15660  0.00063  1.0000
  C   C1775     1.0  0.79890  0.00879  0.54083  1.0000
  H   H2140     1.0  0.84792  0.17725  0.99397  1.0000
  C   C1776     1.0  0.79449  0.03386  0.52736  1.0000
  H   H2141     1.0  0.73982  0.17326  0.99302  1.0000
  H   H2142     1.0  0.89051  0.27456  0.99318  1.0000
  H   H2143     1.0  0.82159  0.16764  0.53279  1.0000
  C   C1777     1.0  0.81813  0.03012  0.50697  1.0000
  C   C1778     1.0  0.96504  0.17366  0.74978  1.0000
  H   H2144     1.0  0.84608  0.16621  0.52086  1.0000
  H   H2145     1.0  0.78507  0.03077  0.54684  1.0000
  H   H2146     1.0  0.82787  0.16174  0.99399  1.0000
  H   H2147     1.0  0.78847  0.02901  0.50388  1.0000
  H   H2148     1.0  0.71895  0.15106  0.86008  1.0000
  C   C1779     1.0  0.84010  0.15621  0.50248  1.0000
  H   H2149     1.0  0.83208  0.36250  0.16802  1.0000
  S   S477      1.0  0.73176  0.55498  0.09496  1.0000
  H   H2150     1.0  0.75436  0.53043  0.07384  1.0000
  C   C1780     1.0  0.84439  0.63334  0.19653  1.0000
  C   C1781     1.0  0.85862  0.38987  0.17892  1.0000
  N   N120      1.0  0.85540  0.37853  0.15007  1.0000
  Fe  Fe239     1.0  0.72766  0.56392  0.04541  1.0000
  Fe  Fe240     1.0  0.82621  0.56782  0.26693  1.0000
  S   S478      1.0  0.81936  0.58533  0.30011  1.0000
  S   S479      1.0  0.84698  0.56188  0.28746  1.0000
  Fe  Fe241     1.0  0.80503  0.57172  0.21177  1.0000
  S   S480      1.0  0.79738  0.58944  0.24131  1.0000
  S   S481      1.0  0.79938  0.56801  0.15758  1.0000
  Fe  Fe242     1.0  0.82296  0.60149  0.25612  1.0000
  S   S482      1.0  0.83569  0.62965  0.26193  1.0000
  Fe  Fe243     1.0  0.79426  0.57170  0.28275  1.0000
  S   S483      1.0  0.77090  0.56688  0.31086  1.0000
  S   S484      1.0  0.83114  0.58505  0.22393  1.0000
  S   S485      1.0  0.80049  0.55290  0.25220  1.0000
  Fe  Fe244     1.0  0.90523  0.48226  0.35859  1.0000
  S   S486      1.0  0.92568  0.47949  0.33069  1.0000
  S   S487      1.0  0.90097  0.47738  0.41307  1.0000
  Fe  Fe245     1.0  0.89452  0.49698  0.30024  1.0000
  S   S488      1.0  0.91446  0.49527  0.26770  1.0000
  S   S489      1.0  0.87352  0.50285  0.28111  1.0000
  Fe  Fe246     1.0  0.90848  0.46988  0.28916  1.0000
  S   S490      1.0  0.90947  0.44684  0.26296  1.0000
  Fe  Fe247     1.0  0.93028  0.50495  0.31145  1.0000
  S   S491      1.0  0.95609  0.52333  0.30557  1.0000
  S   S492      1.0  0.88752  0.47062  0.31888  1.0000
  S   S493      1.0  0.91097  0.50874  0.34218  1.0000
  Fe  Fe248     1.0  0.89657  0.40768  0.08437  1.0000
  S   S494      1.0  0.90758  0.38996  0.10072  1.0000
  S   S495      1.0  0.88841  0.42469  0.11667  1.0000
  H   H2151     1.0  0.96087  0.49273  0.28077  1.0000
  H   H2152     1.0  0.80280  0.61789  0.35036  1.0000
  H   H2153     1.0  0.83779  0.38600  0.12799  1.0000
  Fe  Fe249     1.0  0.89093  0.37150  0.06478  1.0000
  S   S496      1.0  0.87906  0.34427  0.08209  1.0000
  Fe  Fe250     1.0  0.92453  0.39982  0.05827  1.0000
  S   S497      1.0  0.95131  0.40648  0.05753  1.0000
  S   S498      1.0  0.87877  0.38872  0.05115  1.0000
  S   S499      1.0  0.91482  0.41892  0.04431  1.0000
  H   H2154     1.0  0.85974  0.42827  0.20497  1.0000
  H   H2155     1.0  0.94198  0.41636  0.12021  1.0000
  H   H2156     1.0  0.78274  0.55522  0.50207  1.0000
  H   H2157     1.0  0.85767  0.46308  0.35773  1.0000
  C   C1782     1.0  0.89112  0.32069  0.01256  1.0000
  C   C1783     1.0  0.82449  0.51176  0.38253  1.0000
  H   H2158     1.0  0.83558  0.48846  0.43422  1.0000
  C   C1784     1.0  0.90443  0.44154  0.22160  1.0000
  C   C1785     1.0  0.90697  0.42783  0.20741  1.0000
  C   C1786     1.0  0.90273  0.42292  0.17484  1.0000
  C   C1787     1.0  0.89562  0.43152  0.15638  1.0000
  C   C1788     1.0  0.89322  0.44532  0.17050  1.0000
  C   C1789     1.0  0.89773  0.45042  0.20288  1.0000
  H   H2159     1.0  0.91206  0.42083  0.22179  1.0000
  H   H2160     1.0  0.90457  0.41224  0.16435  1.0000
  H   H2161     1.0  0.88767  0.45199  0.15641  1.0000
  H   H2162     1.0  0.89568  0.46096  0.21353  1.0000
  C   C1790     1.0  0.89739  0.45762  0.43022  1.0000
  C   C1791     1.0  0.89814  0.45631  0.46425  1.0000
  C   C1792     1.0  0.89512  0.44073  0.47875  1.0000
  C   C1793     1.0  0.89112  0.42628  0.45931  1.0000
  C   C1794     1.0  0.89016  0.42758  0.42534  1.0000
  C   C1795     1.0  0.89349  0.44319  0.41079  1.0000
  H   H2163     1.0  0.90102  0.46739  0.47950  1.0000
  H   H2164     1.0  0.76323  0.62371  0.35977  1.0000
  H   H2165     1.0  0.88698  0.41645  0.41013  1.0000
  H   H2166     1.0  0.89279  0.44400  0.38459  1.0000
  H   H2167     1.0  0.87990  0.38945  0.13433  1.0000
  H   H2168     1.0  0.83260  0.51731  0.33274  1.0000
  C   C1796     1.0  0.84342  0.36171  0.15859  1.0000
  H   H2169     1.0  0.94984  0.51497  0.37425  1.0000
  C   C1797     1.0  0.85428  0.54540  0.28464  1.0000
  C   C1798     1.0  0.84681  0.53086  0.26597  1.0000
  C   C1799     1.0  0.85304  0.51818  0.26486  1.0000
  C   C1800     1.0  0.86687  0.51983  0.28215  1.0000
  C   C1801     1.0  0.87435  0.53438  0.30084  1.0000
  C   C1802     1.0  0.86809  0.54704  0.30204  1.0000
  H   H2170     1.0  0.83619  0.52932  0.25248  1.0000
  H   H2171     1.0  0.84705  0.50695  0.25049  1.0000
  H   H2172     1.0  0.88488  0.53583  0.31454  1.0000
  H   H2173     1.0  0.87395  0.55815  0.31674  1.0000
  C   C1803     1.0  0.75079  0.56053  0.11312  1.0000
  C   C1804     1.0  0.75153  0.55559  0.14531  1.0000
  C   C1805     1.0  0.76639  0.55869  0.15987  1.0000
  C   C1806     1.0  0.78068  0.56644  0.14209  1.0000
  C   C1807     1.0  0.77995  0.57165  0.11006  1.0000
  C   C1808     1.0  0.76510  0.56893  0.09579  1.0000
  H   H2174     1.0  0.74056  0.54910  0.15895  1.0000
  H   H2175     1.0  0.76676  0.55450  0.18442  1.0000
  H   H2176     1.0  0.79093  0.57754  0.09605  1.0000
  H   H2177     1.0  0.76472  0.57294  0.07115  1.0000
  C   C1809     1.0  0.76056  0.56330  0.42153  1.0000
  C   C1810     1.0  0.77515  0.56319  0.40909  1.0000
  C   C1811     1.0  0.77857  0.56433  0.37528  1.0000
  C   C1812     1.0  0.76727  0.56531  0.35358  1.0000
  C   C1813     1.0  0.75274  0.56554  0.36606  1.0000
  C   C1814     1.0  0.74944  0.56467  0.39988  1.0000
  H   H2178     1.0  0.78381  0.56209  0.42567  1.0000
  H   H2179     1.0  0.78981  0.56417  0.36596  1.0000
  H   H2180     1.0  0.74392  0.56626  0.34944  1.0000
  H   H2181     1.0  0.73814  0.56468  0.40912  1.0000
  C   C1815     1.0  0.95245  0.45302  0.45449  1.0000
  C   C1816     1.0  0.77616  0.53265  0.09477  1.0000
  H   H2182     1.0  0.87357  0.50195  0.35267  1.0000
  C   C1817     1.0  0.74759  0.62424  0.45468  1.0000
  C   C1818     1.0  0.76136  0.63617  0.44018  1.0000
  C   C1819     1.0  0.95059  0.42447  0.46812  1.0000
  H   H2183     1.0  0.95759  0.42350  0.44604  1.0000
  C   C1820     1.0  0.84496  0.64123  0.22685  1.0000
  C   C1821     1.0  0.94577  0.46481  0.44622  1.0000
  H   H2184     1.0  0.92237  0.41479  0.44115  1.0000
  S   S500      1.0  0.88736  0.40637  0.47596  1.0000
  H   H2185     1.0  0.83780  0.61998  0.19405  1.0000
  C   C1822     1.0  0.95549  0.48123  0.43776  1.0000
  H   H2186     1.0  0.77164  0.63302  0.43507  1.0000
  H   H2187     1.0  0.74661  0.54557  0.03654  1.0000
  S   S501      1.0  0.90909  0.38002  0.02372  1.0000
  C   C1823     1.0  0.79260  0.53704  0.09079  1.0000
  H   H2188     1.0  0.82861  0.64533  0.32762  1.0000
  C   C1824     1.0  0.96638  0.38636  0.12022  1.0000
  C   C1825     1.0  0.86318  0.32619  0.06640  1.0000
  H   H2189     1.0  0.85931  0.48457  0.43510  1.0000
  H   H2190     1.0  0.76105  0.59487  0.31897  1.0000
  C   C1826     1.0  0.84920  0.38452  0.12174  1.0000
  C   C1827     1.0  0.86064  0.41617  0.20604  1.0000
  C   C1828     1.0  0.95038  0.45251  0.23052  1.0000
  N   N121      1.0  0.94185  0.43559  0.46265  1.0000
  H   H2191     1.0  0.93293  0.46140  0.44599  1.0000
  H   H2192     1.0  0.86637  0.37425  0.20980  1.0000
  H   H2193     1.0  0.87202  0.62651  0.20329  1.0000
  H   H2194     1.0  0.79630  0.60534  0.31407  1.0000
  C   C1829     1.0  0.79982  0.54172  0.06020  1.0000
  H   H2195     1.0  0.95003  0.48982  0.43080  1.0000
  H   H2196     1.0  0.79977  0.53717  0.11172  1.0000
  H   H2197     1.0  0.93695  0.42801  0.41233  1.0000
  H   H2198     1.0  0.79012  0.64152  0.00795  1.0000
  H   H2199     1.0  0.88059  0.48973  0.37782  1.0000
  H   H2200     1.0  0.74115  0.52374  0.02564  1.0000
  C   C1830     1.0  0.93049  0.42798  0.43578  1.0000
  C   C1831     1.0  0.96258  0.52197  0.37077  1.0000
  H   H2201     1.0  0.74727  0.61197  0.46018  1.0000
  H   H2202     1.0  0.78146  0.62662  0.38088  1.0000
  N   N122      1.0  0.95813  0.47091  0.22675  1.0000
  H   H2203     1.0  0.84302  0.46599  0.42024  1.0000
  H   H2204     1.0  0.78640  0.59801  0.35172  1.0000
  N   N123      1.0  0.76473  0.54024  0.00893  1.0000
  C   C1832     1.0  0.78959  0.63442  0.31629  1.0000
  H   H2205     1.0  0.92381  0.42279  0.49875  1.0000
  C   C1833     1.0  0.96249  0.41916  0.08959  1.0000
  H   H2206     1.0  0.81690  0.51886  0.38206  1.0000
  C   C1834     1.0  0.79209  0.60951  0.33704  1.0000
  Fe  Fe251     1.0  0.73573  0.56547  0.48970  1.0000
  H   H2207     1.0  0.84958  0.50130  0.33297  1.0000
  C   C1835     1.0  0.85256  0.64270  0.16932  1.0000
  H   H2208     1.0  0.86350  0.46879  0.41321  1.0000
  H   H2209     1.0  0.77360  0.60462  0.28507  1.0000
  H   H2210     1.0  0.85483  0.33909  0.03155  1.0000
  C   C1836     1.0  0.96481  0.56659  0.38647  1.0000
  C   C1837     1.0  0.94547  0.47780  0.23066  1.0000
  H   H2211     1.0  0.95044  0.49164  0.22790  1.0000
  C   C1838     1.0  0.82546  0.50354  0.41081  1.0000
  C   C1839     1.0  0.90643  0.63226  0.24368  1.0000
  H   H2212     1.0  0.95508  0.47023  0.17450  1.0000
  H   H2213     1.0  0.76004  0.61344  0.30200  1.0000
  H   H2214     1.0  0.95569  0.38727  0.13111  1.0000
  H   H2215     1.0  0.93928  0.47467  0.25488  1.0000
  C   C1840     1.0  0.85307  0.32709  0.04182  1.0000
  H   H2216     1.0  0.87576  0.50630  0.39568  1.0000
  C   C1841     1.0  0.77273  0.61868  0.36272  1.0000
  H   H2217     1.0  0.85298  0.47680  0.33206  1.0000
  C   C1842     1.0  0.95492  0.42164  0.11819  1.0000
  H   H2218     1.0  0.84681  0.37565  0.10057  1.0000
  H   H2219     1.0  0.81855  0.50426  0.43235  1.0000
  C   C1843     1.0  0.86439  0.38572  0.20806  1.0000
  S   S502      1.0  0.75660  0.56129  0.46412  1.0000
  C   C1844     1.0  0.83329  0.51085  0.35475  1.0000
  H   H2220     1.0  0.95894  0.44625  0.22613  1.0000
  H   H2221     1.0  0.95461  0.56083  0.40278  1.0000
  Fe  Fe252     1.0  0.89817  0.39866  0.01239  1.0000
  H   H2222     1.0  0.85810  0.39669  0.11266  1.0000
  C   C1845     1.0  0.96412  0.43049  0.14463  1.0000
  N   N124      1.0  0.78082  0.61784  0.33109  1.0000
  H   H2223     1.0  0.80010  0.62492  0.27598  1.0000
  C   C1846     1.0  0.73419  0.62809  0.46155  1.0000
  C   C1847     1.0  0.74768  0.53680  0.01726  1.0000
  H   H2224     1.0  0.76663  0.60605  0.37369  1.0000
  C   C1848     1.0  0.76835  0.60729  0.30830  1.0000
  H   H2225     1.0  0.93585  0.47241  0.21231  1.0000
  H   H2226     1.0  0.81264  0.54520  0.05733  1.0000
  H   H2227     1.0  0.83776  0.46298  0.35877  1.0000
  S   S503      1.0  0.74551  0.57836  0.00709  1.0000
  H   H2228     1.0  0.85229  0.63644  0.14609  1.0000
  C   C1849     1.0  0.96526  0.37780  0.09070  1.0000
  H   H2229     1.0  0.94509  0.44919  0.25551  1.0000
  H   H2230     1.0  0.86997  0.42043  0.25465  1.0000
  C   C1850     1.0  0.96324  0.56286  0.35322  1.0000
  H   H2231     1.0  0.92548  0.44353  0.49085  1.0000
  H   H2232     1.0  0.87308  0.39338  0.25677  1.0000
  H   H2233     1.0  0.92241  0.43463  0.43172  1.0000
  C   C1851     1.0  0.86642  0.41177  0.23407  1.0000
  N   N125      1.0  0.87928  0.60794  0.24918  1.0000
  C   C1852     1.0  0.86560  0.61031  0.26609  1.0000
  C   C1853     1.0  0.87304  0.59514  0.22293  1.0000
  C   C1854     1.0  0.88709  0.60113  0.27336  1.0000
  C   C1855     1.0  0.89010  0.62401  0.23481  1.0000
  C   C1856     1.0  0.88429  0.63199  0.21123  1.0000
  H   H2234     1.0  0.94221  0.41151  0.47440  1.0000
  H   H2235     1.0  0.84048  0.35306  0.13700  1.0000
  C   C1857     1.0  0.77396  0.53854  0.03705  1.0000
  H   H2236     1.0  0.91195  0.62719  0.26132  1.0000
  H   H2237     1.0  0.85822  0.61402  0.24911  1.0000
  H   H2238     1.0  0.85735  0.59860  0.27803  1.0000
  H   H2239     1.0  0.86978  0.62027  0.28522  1.0000
  H   H2240     1.0  0.86576  0.59852  0.20510  1.0000
  H   H2241     1.0  0.86509  0.58275  0.23294  1.0000
  H   H2242     1.0  0.88299  0.59332  0.20908  1.0000
  H   H2243     1.0  0.89147  0.60977  0.29462  1.0000
  H   H2244     1.0  0.87853  0.58901  0.28347  1.0000
  H   H2245     1.0  0.89718  0.59847  0.26208  1.0000
  C   C1858     1.0  0.91619  0.64755  0.22978  1.0000
  H   H2246     1.0  0.81597  0.64277  0.38281  1.0000
  H   H2247     1.0  0.94048  0.44681  0.21294  1.0000
  C   C1859     1.0  0.86825  0.39656  0.23512  1.0000
  C   C1860     1.0  0.96474  0.47454  0.19295  1.0000
  H   H2248     1.0  0.95818  0.43198  0.16696  1.0000
  C   C1861     1.0  0.87047  0.37689  0.13929  1.0000
  C   C1862     1.0  0.85686  0.40549  0.17872  1.0000
  H   H2249     1.0  0.87521  0.37088  0.15777  1.0000
  H   H2250     1.0  0.86888  0.36913  0.11661  1.0000
  H   H2251     1.0  0.84779  0.35552  0.17741  1.0000
  H   H2252     1.0  0.85319  0.41011  0.15737  1.0000
  C   C1863     1.0  0.79914  0.63582  0.28761  1.0000
  N   N126      1.0  0.85531  0.48412  0.38326  1.0000
  C   C1864     1.0  0.85070  0.47122  0.35686  1.0000
  C   C1865     1.0  0.87199  0.49605  0.37706  1.0000
  C   C1866     1.0  0.85515  0.47551  0.41438  1.0000
  C   C1867     1.0  0.84447  0.49329  0.38352  1.0000
  C   C1868     1.0  0.83532  0.49444  0.41151  1.0000
  C   C1869     1.0  0.84305  0.50169  0.35514  1.0000
  C   C1870     1.0  0.78886  0.64947  0.32932  1.0000
  H   H2253     1.0  0.95376  0.37214  0.07888  1.0000
  C   C1871     1.0  0.79066  0.54235  0.03360  1.0000
  H   H2254     1.0  0.96786  0.52202  0.42178  1.0000
  H   H2255     1.0  0.95880  0.42884  0.48916  1.0000
  C   C1872     1.0  0.76690  0.53337  0.06846  1.0000
  H   H2256     1.0  0.77069  0.52944  0.11886  1.0000
  H   H2257     1.0  0.90056  0.32752  0.02941  1.0000
  H   H2258     1.0  0.95194  0.55412  0.34374  1.0000
  H   H2259     1.0  0.79682  0.54618  0.01043  1.0000
  C   C1873     1.0  0.73468  0.64401  0.45371  1.0000
  H   H2260     1.0  0.72434  0.64706  0.45891  1.0000
  Fe  Fe253     1.0  0.71960  0.59028  0.49960  1.0000
  S   S504      1.0  0.74131  0.62171  0.00450  1.0000
  C   C1874     1.0  0.93255  0.43562  0.49289  1.0000
  H   H2261     1.0  0.77302  0.56693  0.01582  1.0000
  H   H2262     1.0  0.80616  0.64654  0.05667  1.0000
  C   C1875     1.0  0.89414  0.64725  0.19752  1.0000
  H   H2263     1.0  0.78175  0.64974  0.35072  1.0000
  C   C1876     1.0  0.96878  0.52735  0.33956  1.0000
  H   H2264     1.0  0.95721  0.47293  0.53293  1.0000
  S   S505      1.0  0.73966  0.58412  0.60869  1.0000
  C   C1877     1.0  0.75095  0.63368  0.97017  1.0000
  H   H2265     1.0  0.73221  0.56931  0.80770  1.0000
  C   C1878     1.0  0.79402  0.59357  0.56817  1.0000
  S   S506      1.0  0.73722  0.54759  0.93163  1.0000
  C   C1879     1.0  0.78969  0.56491  0.52027  1.0000
  Fe  Fe254     1.0  0.82405  0.55809  0.76718  1.0000
  S   S507      1.0  0.83198  0.58281  0.79381  1.0000
  S   S508      1.0  0.83232  0.53637  0.77141  1.0000
  Fe  Fe255     1.0  0.80046  0.56665  0.72560  1.0000
  S   S509      1.0  0.80696  0.59221  0.74822  1.0000
  S   S510      1.0  0.78130  0.55361  0.68836  1.0000
  Fe  Fe256     1.0  0.83236  0.59398  0.74448  1.0000
  S   S511      1.0  0.85432  0.61762  0.73518  1.0000
  Fe  Fe257     1.0  0.80599  0.57922  0.79577  1.0000
  S   S512      1.0  0.79570  0.58922  0.83832  1.0000
  S   S513      1.0  0.82611  0.56950  0.71754  1.0000
  S   S514      1.0  0.79781  0.55346  0.77343  1.0000
  Fe  Fe258     1.0  0.89966  0.47705  0.84709  1.0000
  S   S515      1.0  0.91531  0.47021  0.81106  1.0000
  S   S516      1.0  0.88895  0.46586  0.89598  1.0000
  Fe  Fe259     1.0  0.90387  0.50935  0.81272  1.0000
  S   S517      1.0  0.92056  0.50567  0.77465  1.0000
  S   S518      1.0  0.89757  0.53237  0.81841  1.0000
  Fe  Fe260     1.0  0.90302  0.47888  0.77253  1.0000
  S   S519      1.0  0.89929  0.47089  0.71923  1.0000
  Fe  Fe261     1.0  0.93192  0.49725  0.81491  1.0000
  S   S520      1.0  0.95825  0.50137  0.81531  1.0000
  S   S521      1.0  0.88551  0.48318  0.80814  1.0000
  S   S522      1.0  0.91717  0.50356  0.85347  1.0000
  Fe  Fe262     1.0  0.89374  0.39732  0.59986  1.0000
  S   S523      1.0  0.91012  0.38331  0.59845  1.0000
  S   S524      1.0  0.88494  0.40008  0.65123  1.0000
  H   H2266     1.0  0.88133  0.49428  0.87237  1.0000
  H   H2267     1.0  0.88821  0.34289  0.99702  1.0000
  H   H2268     1.0  0.75926  0.56687  0.56760  1.0000
  Fe  Fe263     1.0  0.89450  0.36794  0.55789  1.0000
  S   S525      1.0  0.88851  0.33953  0.55673  1.0000
  Fe  Fe264     1.0  0.92400  0.40195  0.56075  1.0000
  S   S526      1.0  0.95073  0.41633  0.55346  1.0000
  S   S527      1.0  0.87735  0.38104  0.56105  1.0000
  S   S528      1.0  0.90872  0.41713  0.56466  1.0000
  H   H2269     1.0  0.78709  0.54317  0.56725  1.0000
  H   H2270     1.0  0.94665  0.40349  0.61995  1.0000
  H   H2271     1.0  0.76917  0.54396  0.58660  1.0000
  H   H2272     1.0  0.91954  0.43982  0.72832  1.0000
  C   C1880     1.0  0.72486  0.55261  0.70433  1.0000
  C   C1881     1.0  0.74104  0.58484  0.72959  1.0000
  Fe  Fe265     1.0  0.72839  0.56084  0.97129  1.0000
  C   C1882     1.0  0.89588  0.45105  0.70162  1.0000
  C   C1883     1.0  0.89996  0.45019  0.66854  1.0000
  C   C1884     1.0  0.89701  0.43467  0.65303  1.0000
  C   C1885     1.0  0.88968  0.41985  0.67038  1.0000
  C   C1886     1.0  0.88571  0.42068  0.70359  1.0000
  C   C1887     1.0  0.88884  0.43624  0.71924  1.0000
  H   H2273     1.0  0.90528  0.46159  0.65471  1.0000
  H   H2274     1.0  0.90003  0.43418  0.62745  1.0000
  H   H2275     1.0  0.87999  0.40924  0.71713  1.0000
  H   H2276     1.0  0.88550  0.43676  0.74464  1.0000
  C   C1888     1.0  0.89225  0.44893  0.91336  1.0000
  C   C1889     1.0  0.89667  0.43784  0.89415  1.0000
  C   C1890     1.0  0.89787  0.42371  0.90840  1.0000
  C   C1891     1.0  0.89507  0.42078  0.94205  1.0000
  C   C1892     1.0  0.89127  0.43224  0.96146  1.0000
  C   C1893     1.0  0.88968  0.44615  0.94708  1.0000
  H   H2277     1.0  0.89861  0.43979  0.86816  1.0000
  H   H2278     1.0  0.90079  0.41488  0.89324  1.0000
  C   C1894     1.0  0.87039  0.32137  0.55236  1.0000
  H   H2279     1.0  0.88626  0.45466  0.96213  1.0000
  H   H2280     1.0  0.85910  0.36875  0.67329  1.0000
  N   N127      1.0  0.86694  0.50053  0.90876  1.0000
  H   H2281     1.0  0.95489  0.52972  0.84906  1.0000
  C   C1895     1.0  0.85522  0.32219  0.55259  1.0000
  C   C1896     1.0  0.85053  0.53559  0.78506  1.0000
  C   C1897     1.0  0.85411  0.52159  0.77657  1.0000
  C   C1898     1.0  0.86826  0.52023  0.78723  1.0000
  C   C1899     1.0  0.87914  0.53304  0.80606  1.0000
  C   C1900     1.0  0.87552  0.54700  0.81476  1.0000
  C   C1901     1.0  0.86119  0.54818  0.80468  1.0000
  H   H2282     1.0  0.84586  0.51168  0.76171  1.0000
  H   H2283     1.0  0.87086  0.50942  0.78036  1.0000
  H   H2284     1.0  0.88381  0.55691  0.82955  1.0000
  H   H2285     1.0  0.85830  0.55869  0.81247  1.0000
  C   C1902     1.0  0.75122  0.57550  0.63062  1.0000
  C   C1903     1.0  0.74850  0.55850  0.62819  1.0000
  C   C1904     1.0  0.75760  0.55197  0.64666  1.0000
  C   C1905     1.0  0.76946  0.56232  0.66774  1.0000
  C   C1906     1.0  0.77195  0.57925  0.67082  1.0000
  C   C1907     1.0  0.76285  0.58579  0.65229  1.0000
  H   H2286     1.0  0.73927  0.55037  0.61229  1.0000
  H   H2287     1.0  0.75547  0.53882  0.64455  1.0000
  H   H2288     1.0  0.78104  0.58734  0.68698  1.0000
  H   H2289     1.0  0.76485  0.59890  0.65463  1.0000
  C   C1908     1.0  0.75351  0.55924  0.90586  1.0000
  C   C1909     1.0  0.75938  0.55084  0.88247  1.0000
  C   C1910     1.0  0.77240  0.55980  0.86171  1.0000
  C   C1911     1.0  0.77960  0.57726  0.86422  1.0000
  C   C1912     1.0  0.77371  0.58562  0.88760  1.0000
  C   C1913     1.0  0.76074  0.57667  0.90838  1.0000
  H   H2290     1.0  0.75385  0.53734  0.88044  1.0000
  H   H2291     1.0  0.77688  0.55322  0.84389  1.0000
  H   H2292     1.0  0.77919  0.59913  0.88967  1.0000
  H   H2293     1.0  0.75630  0.58329  0.92624  1.0000
  H   H2294     1.0  0.86585  0.32755  0.96044  1.0000
  H   H2295     1.0  0.75899  0.55194  0.76565  1.0000
  H   H2296     1.0  0.81431  0.61183  0.63664  1.0000
  C   C1914     1.0  0.75057  0.62628  0.93939  1.0000
  C   C1915     1.0  0.75749  0.63634  0.91215  1.0000
  H   H2297     1.0  0.87572  0.52595  0.92709  1.0000
  H   H2298     1.0  0.77284  0.56820  0.78959  1.0000
  C   C1916     1.0  0.85678  0.63101  0.70188  1.0000
  C   C1917     1.0  0.84649  0.62644  0.67530  1.0000
  H   H2299     1.0  0.86648  0.32302  0.62183  1.0000
  C   C1918     1.0  0.80269  0.60618  0.59021  1.0000
  H   H2300     1.0  0.83683  0.61423  0.67457  1.0000
  H   H2301     1.0  0.78419  0.56055  0.98544  1.0000
  C   C1919     1.0  0.85525  0.50145  0.88491  1.0000
  C   C1920     1.0  0.84914  0.51433  0.88581  1.0000
  C   C1921     1.0  0.83900  0.49008  0.83629  1.0000
  C   C1922     1.0  0.83817  0.51483  0.86275  1.0000
  C   C1923     1.0  0.83299  0.50264  0.83829  1.0000
  H   H2302     1.0  0.88717  0.51622  0.87994  1.0000
  H   H2303     1.0  0.85282  0.52434  0.90369  1.0000
  H   H2304     1.0  0.83540  0.48098  0.81646  1.0000
  H   H2305     1.0  0.83392  0.52496  0.86323  1.0000
  H   H2306     1.0  0.82478  0.50335  0.82005  1.0000
  H   H2307     1.0  0.91986  0.56573  0.75070  1.0000
  C   C1924     1.0  0.73175  0.58236  0.70166  1.0000
  H   H2308     1.0  0.80520  0.61917  0.58498  1.0000
  H   H2309     1.0  0.74713  0.59764  0.73763  1.0000
  C   C1925     1.0  0.90800  0.56311  0.74135  1.0000
  H   H2310     1.0  0.89350  0.34274  0.66881  1.0000
  N   N128      1.0  0.87952  0.58553  0.72867  1.0000
  C   C1926     1.0  0.86777  0.58228  0.75598  1.0000
  C   C1927     1.0  0.89163  0.60287  0.73275  1.0000
  C   C1928     1.0  0.87120  0.58495  0.69755  1.0000
  C   C1929     1.0  0.88642  0.57256  0.72876  1.0000
  C   C1930     1.0  0.90221  0.57589  0.73955  1.0000
  C   C1931     1.0  0.87687  0.55569  0.72035  1.0000
  C   C1932     1.0  0.86952  0.34054  0.71458  1.0000
  C   C1933     1.0  0.88292  0.54312  0.72155  1.0000
  H   H2311     1.0  0.77161  0.57094  0.74643  1.0000
  H   H2312     1.0  0.87350  0.58239  0.77975  1.0000
  H   H2313     1.0  0.86249  0.59191  0.75759  1.0000
  H   H2314     1.0  0.85766  0.56990  0.75337  1.0000
  H   H2315     1.0  0.89708  0.60496  0.75734  1.0000
  H   H2316     1.0  0.88614  0.61235  0.73079  1.0000
  H   H2317     1.0  0.90128  0.60581  0.71371  1.0000
  H   H2318     1.0  0.86035  0.57329  0.69458  1.0000
  H   H2319     1.0  0.86680  0.59531  0.69619  1.0000
  H   H2320     1.0  0.87933  0.58600  0.67618  1.0000
  H   H2321     1.0  0.91019  0.58815  0.74755  1.0000
  H   H2322     1.0  0.86440  0.55189  0.71412  1.0000
  H   H2323     1.0  0.88903  0.43008  0.98736  1.0000
  H   H2324     1.0  0.87529  0.53028  0.71566  1.0000
  C   C1934     1.0  0.85753  0.36555  0.72434  1.0000
  C   C1935     1.0  0.76496  0.52840  0.98249  1.0000
  H   H2325     1.0  0.87459  0.33114  0.71215  1.0000
  N   N129      1.0  0.94365  0.45621  0.74068  1.0000
  H   H2326     1.0  0.73603  0.55078  0.79897  1.0000
  H   H2327     1.0  0.71887  0.54019  0.69398  1.0000
  H   H2328     1.0  0.92765  0.44631  0.78199  1.0000
  H   H2329     1.0  0.86795  0.31880  0.66345  1.0000
  H   H2330     1.0  0.79008  0.59732  0.54609  1.0000
  H   H2331     1.0  0.86808  0.33838  0.76705  1.0000
  H   H2332     1.0  0.94683  0.46130  0.79267  1.0000
  H   H2333     1.0  0.75277  0.59723  0.79165  1.0000
  H   H2334     1.0  0.96005  0.47646  0.98890  1.0000
  H   H2335     1.0  0.94734  0.48187  0.75316  1.0000
  H   H2336     1.0  0.72284  0.63422  0.91700  1.0000
  C   C1936     1.0  0.95767  0.48165  0.96684  1.0000
  H   H2337     1.0  0.89311  0.34736  0.62663  1.0000
  C   C1937     1.0  0.76541  0.56541  0.54475  1.0000
  N   N130      1.0  0.78057  0.56331  0.55145  1.0000
  N   N131      1.0  0.87147  0.34453  0.65371  1.0000
  H   H2338     1.0  0.86975  0.34931  0.60268  1.0000
  C   C1938     1.0  0.89840  0.54678  0.73229  1.0000
  C   C1939     1.0  0.93215  0.44265  0.72040  1.0000
  S   S529      1.0  0.89542  0.40214  0.95834  1.0000
  H   H2339     1.0  0.89565  0.43986  0.50497  1.0000
  H   H2340     1.0  0.74110  0.53831  0.99577  1.0000
  H   H2341     1.0  0.96648  0.40694  0.66336  1.0000
  C   C1940     1.0  0.86940  0.64679  0.70247  1.0000
  C   C1941     1.0  0.72250  0.64435  0.93260  1.0000
  C   C1942     1.0  0.86372  0.32625  0.64714  1.0000
  H   H2342     1.0  0.85046  0.32180  0.64979  1.0000
  H   H2343     1.0  0.95689  0.44270  0.68983  1.0000
  C   C1943     1.0  0.79019  0.57642  0.57480  1.0000
  H   H2344     1.0  0.85321  0.37554  0.72815  1.0000
  C   C1944     1.0  0.72372  0.56630  0.68905  1.0000
  C   C1945     1.0  0.86672  0.35305  0.62724  1.0000
  C   C1946     1.0  0.80470  0.58543  0.62618  1.0000
  C   C1947     1.0  0.85005  0.48951  0.85905  1.0000
  C   C1948     1.0  0.95920  0.41102  0.61556  1.0000
  C   C1949     1.0  0.88244  0.50374  0.89176  1.0000
  H   H2345     1.0  0.75687  0.63057  0.88830  1.0000
  H   H2346     1.0  0.85187  0.64998  0.75816  1.0000
  C   C1950     1.0  0.88910  0.34966  0.65156  1.0000
  S   S530      1.0  0.74279  0.59002  0.51661  1.0000
  C   C1951     1.0  0.79595  0.57271  0.60443  1.0000
  C   C1952     1.0  0.86596  0.34469  0.74616  1.0000
  H   H2347     1.0  0.74464  0.61285  0.93645  1.0000
  H   H2348     1.0  0.85360  0.35004  0.62778  1.0000
  C   C1953     1.0  0.87154  0.32071  0.97376  1.0000
  C   C1954     1.0  0.86096  0.36144  0.69266  1.0000
  Fe  Fe266     1.0  0.89407  0.39973  0.52549  1.0000
  H   H2349     1.0  0.76878  0.53647  0.54554  1.0000
  H   H2350     1.0  0.85473  0.47982  0.85582  1.0000
  C   C1955     1.0  0.73403  0.55492  0.73235  1.0000
  H   H2351     1.0  0.86031  0.47364  0.90509  1.0000
  H   H2352     1.0  0.89169  0.50319  0.90867  1.0000
  H   H2353     1.0  0.76734  0.57652  0.52961  1.0000
  C   C1956     1.0  0.94012  0.47141  0.73678  1.0000
  C   C1957     1.0  0.86998  0.51287  0.93602  1.0000
  H   H2354     1.0  0.85869  0.51131  0.94958  1.0000
  C   C1958     1.0  0.74187  0.56452  0.80307  1.0000
  H   H2355     1.0  0.74874  0.56637  0.82603  1.0000
  H   H2356     1.0  0.84909  0.48028  0.93503  1.0000
  C   C1959     1.0  0.86113  0.48360  0.92335  1.0000
  H   H2357     1.0  0.76962  0.59811  0.76557  1.0000
  H   H2358     1.0  0.93291  0.44622  0.69426  1.0000
  H   H2359     1.0  0.94470  0.44055  0.77997  1.0000
  C   C1960     1.0  0.86701  0.34870  0.68678  1.0000
  H   H2360     1.0  0.76480  0.55957  0.97625  1.0000
  C   C1961     1.0  0.94062  0.45088  0.77527  1.0000
  N   N132      1.0  0.75233  0.57320  0.77517  1.0000
  C   C1962     1.0  0.76442  0.56575  0.76896  1.0000
  H   H2361     1.0  0.87840  0.51141  0.95399  1.0000
  C   C1963     1.0  0.93817  0.47923  0.92542  1.0000
  Fe  Fe267     1.0  0.72862  0.57504  0.55894  1.0000
  C   C1964     1.0  0.74250  0.57112  0.74576  1.0000
  H   H2362     1.0  0.90275  0.53682  0.73476  1.0000
  H   H2363     1.0  0.76845  0.59206  0.80719  1.0000
  H   H2364     1.0  0.89532  0.36327  0.65724  1.0000
  H   H2365     1.0  0.85743  0.36054  0.77553  1.0000
  C   C1965     1.0  0.76112  0.59095  0.78511  1.0000
  S   S531      1.0  0.91017  0.38550  0.51983  1.0000
  H   H2366     1.0  0.93354  0.46277  0.96621  1.0000
  H   H2367     1.0  0.86950  0.48265  0.94201  1.0000
  H   H2368     1.0  0.85423  0.33424  0.55397  1.0000
  H   H2369     1.0  0.94052  0.44025  0.51424  1.0000
  C   C1966     1.0  0.96539  0.45189  0.70549  1.0000
  H   H2370     1.0  0.80130  0.56365  0.52411  1.0000
  H   H2371     1.0  0.84112  0.63412  0.62862  1.0000
  H   H2372     1.0  0.92735  0.46893  0.74271  1.0000
  H   H2373     1.0  0.75688  0.55453  0.53103  1.0000
  S   S532      1.0  0.72272  0.55021  0.53332  1.0000
  H   H2374     1.0  0.94621  0.49715  0.88686  1.0000
  C   C1967     1.0  0.94939  0.49292  0.90937  1.0000
  H   H2375     1.0  0.73464  0.54392  0.74318  1.0000
  C   C1968     1.0  0.80792  0.60209  0.61925  1.0000
  C   C1969     1.0  0.96064  0.46002  0.73183  1.0000
  C   C1970     1.0  0.88416  0.32940  0.99434  1.0000
  H   H2376     1.0  0.83175  0.63954  0.77189  1.0000
  H   H2377     1.0  0.75982  0.51526  0.99120  1.0000
  H   H2378     1.0  0.80853  0.58223  0.64909  1.0000
  C   C1971     1.0  0.84891  0.63768  0.64942  1.0000
  H   H2379     1.0  0.79347  0.56008  0.61205  1.0000
  H   H2380     1.0  0.87320  0.36685  0.62871  1.0000
  H   H2381     1.0  0.73115  0.59296  0.68897  1.0000
  C   C1972     1.0  0.77627  0.54600  0.56337  1.0000
  C   C1973     1.0  0.96690  0.53030  0.85264  1.0000
  H   H2382     1.0  0.94243  0.47599  0.71124  1.0000
  H   H2383     1.0  0.93403  0.43075  0.72229  1.0000
  C   C1974     1.0  0.94231  0.47358  0.95404  1.0000
  H   H2384     1.0  0.92627  0.47291  0.91555  1.0000
  C   C1975     1.0  0.96476  0.50106  0.92194  1.0000
  C   C1976     1.0  0.85998  0.35718  0.75102  1.0000
  C   C1977     1.0  0.96429  0.41857  0.58525  1.0000
  H   H2385     1.0  0.75782  0.52921  0.96118  1.0000
  H   H2386     1.0  0.77728  0.53097  0.97298  1.0000
  H   H2387     1.0  0.82066  0.64624  0.72234  1.0000
  H   H2388     1.0  0.79232  0.57717  0.50851  1.0000
  C   C1978     1.0  0.77203  0.55754  0.99616  1.0000
  H   H2389     1.0  0.87748  0.65037  0.72285  1.0000
  H   H2390     1.0  0.81874  0.64948  0.81008  1.0000
  Fe  Fe268     1.0  0.73019  0.59333  0.00227  1.0000
  S   S533      1.0  0.73466  0.89406  0.10126  1.0000
  C   C1979     1.0  0.82886  0.68815  0.09327  1.0000
  C   C1980     1.0  0.85019  0.68318  0.06444  1.0000
  S   S534      1.0  0.75063  0.94239  0.09175  1.0000
  H   H2391     1.0  0.74883  0.66824  0.43318  1.0000
  C   C1981     1.0  0.87314  0.70812  0.36360  1.0000
  Fe  Fe269     1.0  0.88639  0.73004  0.18186  1.0000
  S   S535      1.0  0.90292  0.71653  0.17085  1.0000
  S   S536      1.0  0.88170  0.73918  0.23191  1.0000
  Fe  Fe270     1.0  0.87583  0.72851  0.11119  1.0000
  S   S537      1.0  0.89115  0.71467  0.09456  1.0000
  S   S538      1.0  0.85561  0.73342  0.08746  1.0000
  Fe  Fe271     1.0  0.88260  0.69954  0.14020  1.0000
  S   S539      1.0  0.87204  0.67120  0.13783  1.0000
  Fe  Fe272     1.0  0.91061  0.73296  0.12626  1.0000
  S   S540      1.0  0.93571  0.74363  0.10178  1.0000
  S   S541      1.0  0.86589  0.71191  0.15414  1.0000
  S   S542      1.0  0.89555  0.74782  0.13982  1.0000
  Fe  Fe273     1.0  0.80535  0.71539  0.34425  1.0000
  S   S543      1.0  0.81479  0.73877  0.37482  1.0000
  S   S544      1.0  0.81098  0.71062  0.29175  1.0000
  Fe  Fe274     1.0  0.78614  0.69372  0.40198  1.0000
  S   S545      1.0  0.79387  0.71584  0.43668  1.0000
  S   S546      1.0  0.77958  0.66630  0.41388  1.0000
  Fe  Fe275     1.0  0.78919  0.72998  0.39440  1.0000
  S   S547      1.0  0.77917  0.75056  0.40115  1.0000
  Fe  Fe276     1.0  0.81859  0.72305  0.41456  1.0000
  H   H2392     1.0  0.77306  0.94847  0.19474  1.0000
  S   S548      1.0  0.77968  0.70715  0.36143  1.0000
  S   S549      1.0  0.81096  0.70051  0.38185  1.0000
  H   H2393     1.0  0.73704  0.96053  0.03668  1.0000
  C   C1982     1.0  0.75269  0.78795  0.47510  1.0000
  H   H2394     1.0  0.73026  0.81279  0.42683  1.0000
  C   C1983     1.0  0.95831  0.71681  0.08959  1.0000
  C   C1984     1.0  0.74381  0.75512  0.45211  1.0000
  H   H2395     1.0  0.72589  0.73170  0.35007  1.0000
  C   C1985     1.0  0.76277  0.75333  0.38220  1.0000
  C   C1986     1.0  0.76228  0.76940  0.38198  1.0000
  C   C1987     1.0  0.74884  0.77194  0.37012  1.0000
  C   C1988     1.0  0.73551  0.75835  0.35890  1.0000
  C   C1989     1.0  0.73608  0.74232  0.35873  1.0000
  C   C1990     1.0  0.74964  0.73983  0.37002  1.0000
  H   H2396     1.0  0.77229  0.77994  0.39150  1.0000
  H   H2397     1.0  0.74872  0.78435  0.37009  1.0000
  Fe  Fe277     1.0  0.72974  0.91681  0.08841  1.0000
  H   H2398     1.0  0.74970  0.72737  0.37020  1.0000
  H   H2399     1.0  0.84302  0.69445  0.40237  1.0000
  H   H2400     1.0  0.74224  0.87802  0.25217  1.0000
  C   C1991     1.0  0.80689  0.66584  0.28696  1.0000
  C   C1992     1.0  0.85146  0.73099  0.04534  1.0000
  H   H2401     1.0  0.77985  0.67643  0.48383  1.0000
  H   H2402     1.0  0.72717  0.86061  0.16337  1.0000
  H   H2403     1.0  0.79660  0.67623  0.32481  1.0000
  H   H2404     1.0  0.76253  0.92532  0.13801  1.0000
  C   C1993     1.0  0.86224  0.72882  0.02252  1.0000
  H   H2405     1.0  0.79281  0.65822  0.47554  1.0000
  H   H2406     1.0  0.85905  0.72774  0.33757  1.0000
  H   H2407     1.0  0.82322  0.66746  0.41942  1.0000
  H   H2408     1.0  0.87352  0.72872  0.03051  1.0000
  C   C1994     1.0  0.86178  0.73179  0.24732  1.0000
  C   C1995     1.0  0.84998  0.71730  0.23462  1.0000
  C   C1996     1.0  0.83436  0.71131  0.24783  1.0000
  C   C1997     1.0  0.83046  0.71946  0.27453  1.0000
  C   C1998     1.0  0.84213  0.73417  0.28695  1.0000
  C   C1999     1.0  0.85776  0.74030  0.27338  1.0000
  H   H2409     1.0  0.85293  0.71032  0.21535  1.0000
  H   H2410     1.0  0.82536  0.70009  0.23769  1.0000
  H   H2411     1.0  0.83913  0.74073  0.30715  1.0000
  H   H2412     1.0  0.86679  0.75159  0.28327  1.0000
  C   C2000     1.0  0.73808  0.78057  0.45801  1.0000
  C   C2001     1.0  0.84721  0.68616  0.35357  1.0000
  H   H2413     1.0  0.86804  0.68139  0.20462  1.0000
  C   C2002     1.0  0.86141  0.66803  0.20222  1.0000
  C   C2003     1.0  0.95540  0.75759  0.11323  1.0000
  H   H2414     1.0  0.84884  0.71758  0.37316  1.0000
  C   C2004     1.0  0.72306  0.79567  0.48354  1.0000
  H   H2415     1.0  0.94992  0.75963  0.16408  1.0000
  H   H2416     1.0  0.76619  0.75631  0.47090  1.0000
  C   C2005     1.0  0.86397  0.70327  0.30836  1.0000
  H   H2417     1.0  0.87219  0.71609  0.30087  1.0000
  H   H2418     1.0  0.91759  0.66690  0.19613  1.0000
  C   C2006     1.0  0.86116  0.66005  0.17209  1.0000
  N   N133      1.0  0.85870  0.70284  0.34310  1.0000
  C   C2007     1.0  0.73760  0.80550  0.43303  1.0000
  H   H2419     1.0  0.80415  0.74277  0.26946  1.0000
  C   C2008     1.0  0.74728  0.89158  0.25078  1.0000
  H   H2420     1.0  0.85786  0.68469  0.08613  1.0000
  H   H2421     1.0  0.74220  0.80205  0.40973  1.0000
  C   C2009     1.0  0.76845  0.97607  0.10005  1.0000
  C   C2010     1.0  0.75334  0.96306  0.10483  1.0000
  H   H2422     1.0  0.87026  0.70958  0.38977  1.0000
  H   H2423     1.0  0.75669  0.80066  0.48427  1.0000
  C   C2011     1.0  0.74105  0.96685  0.11968  1.0000
  H   H2424     1.0  0.77809  0.97329  0.08878  1.0000
  H   H2425     1.0  0.83954  0.71101  0.33456  1.0000
  H   H2426     1.0  0.72946  0.95701  0.12414  1.0000
  H   H2427     1.0  0.92860  0.65368  0.23687  1.0000
  C   C2012     1.0  0.82297  0.67184  0.04345  1.0000
  H   H2428     1.0  0.76554  0.94000  0.24767  1.0000
  C   C2013     1.0  0.75823  0.76287  0.46827  1.0000
  C   C2014     1.0  0.85339  0.65863  0.22952  1.0000
  H   H2429     1.0  0.76582  0.92592  0.29810  1.0000
  H   H2430     1.0  0.83569  0.74551  0.48783  1.0000
  C   C2015     1.0  0.73232  0.86460  0.45674  1.0000
  C   C2016     1.0  0.83687  0.73114  0.03459  1.0000
  H   H2431     1.0  0.87883  0.69880  0.36210  1.0000
  H   H2432     1.0  0.85336  0.67513  0.04639  1.0000
  H   H2433     1.0  0.75967  0.94894  0.16399  1.0000
  N   N134      1.0  0.84655  0.75983  0.16816  1.0000
  C   C2017     1.0  0.83791  0.75615  0.13675  1.0000
  C   C2018     1.0  0.85769  0.77771  0.16782  1.0000
  C   C2019     1.0  0.85639  0.74963  0.16980  1.0000
  C   C2020     1.0  0.83493  0.75556  0.19592  1.0000
  C   C2021     1.0  0.83554  0.76706  0.22167  1.0000
  C   C2022     1.0  0.82272  0.73927  0.19817  1.0000
  C   C2023     1.0  0.82445  0.76247  0.24769  1.0000
  C   C2024     1.0  0.81163  0.73489  0.22413  1.0000
  C   C2025     1.0  0.81251  0.74644  0.24888  1.0000
  H   H2434     1.0  0.82930  0.76245  0.13568  1.0000
  H   H2435     1.0  0.84633  0.76032  0.11540  1.0000
  H   H2436     1.0  0.83119  0.74252  0.13256  1.0000
  H   H2437     1.0  0.85105  0.78614  0.16672  1.0000
  H   H2438     1.0  0.86601  0.78051  0.14622  1.0000
  H   H2439     1.0  0.86549  0.78105  0.18961  1.0000
  H   H2440     1.0  0.84904  0.73598  0.16863  1.0000
  H   H2441     1.0  0.86521  0.75235  0.14917  1.0000
  H   H2442     1.0  0.86320  0.75215  0.19287  1.0000
  H   H2443     1.0  0.84455  0.77961  0.22255  1.0000
  H   H2444     1.0  0.82184  0.72967  0.18021  1.0000
  C   C2026     1.0  0.76188  0.65206  0.43231  1.0000
  H   H2445     1.0  0.80261  0.72226  0.22585  1.0000
  H   H2446     1.0  0.94532  0.71144  0.09127  1.0000
  C   C2027     1.0  0.84280  0.67167  0.33312  1.0000
  H   H2447     1.0  0.83119  0.69988  0.07969  1.0000
  C   C2028     1.0  0.83179  0.65617  0.34380  1.0000
  H   H2448     1.0  0.85358  0.69951  0.29172  1.0000
  H   H2449     1.0  0.87066  0.69503  0.30363  1.0000
  H   H2450     1.0  0.84755  0.67193  0.30864  1.0000
  H   H2451     1.0  0.73059  0.90599  0.17140  1.0000
  H   H2452     1.0  0.91853  0.77214  0.49626  1.0000
  N   N135      1.0  0.75313  0.92493  0.18711  1.0000
  C   C2029     1.0  0.76227  0.91946  0.16209  1.0000
  C   C2030     1.0  0.73630  0.91966  0.17652  1.0000
  H   H2453     1.0  0.81597  0.68308  0.10076  1.0000
  C   C2031     1.0  0.75349  0.91708  0.21870  1.0000
  C   C2032     1.0  0.74696  0.89938  0.22143  1.0000
  C   C2033     1.0  0.76032  0.92649  0.24728  1.0000
  H   H2454     1.0  0.75351  0.94858  0.20574  1.0000
  C   C2034     1.0  0.76055  0.91854  0.27657  1.0000
  C   C2035     1.0  0.75407  0.90113  0.27829  1.0000
  S   S550      1.0  0.73358  0.86990  0.01850  1.0000
  H   H2455     1.0  0.83542  0.69620  0.02088  1.0000
  C   C2036     1.0  0.82595  0.68397  0.01869  1.0000
  H   H2456     1.0  0.74152  0.89140  0.20081  1.0000
  H   H2457     1.0  0.75700  0.90571  0.15773  1.0000
  C   C2037     1.0  0.73277  0.97054  0.03991  1.0000
  H   H2458     1.0  0.73746  0.84419  0.19903  1.0000
  H   H2459     1.0  0.96505  0.75814  0.06445  1.0000
  H   H2460     1.0  0.77490  0.92284  0.16953  1.0000
  H   H2461     1.0  0.85386  0.66484  0.25282  1.0000
  H   H2462     1.0  0.81349  0.67786  0.27591  1.0000
  Fe  Fe278     1.0  0.72229  0.88258  0.05443  1.0000
  H   H2463     1.0  0.82519  0.77130  0.26734  1.0000
  H   H2464     1.0  0.85404  0.69595  0.05421  1.0000
  C   C2038     1.0  0.79741  0.66489  0.31470  1.0000
  H   H2465     1.0  0.80636  0.68584  0.45209  1.0000
  C   C2039     1.0  0.80030  0.65331  0.01093  1.0000
  H   H2466     1.0  0.77394  0.78524  0.49217  1.0000
  H   H2467     1.0  0.83616  0.69177  0.11575  1.0000
  H   H2468     1.0  0.88224  0.72045  0.35584  1.0000
  H   H2469     1.0  0.72877  0.92260  0.19556  1.0000
  H   H2470     1.0  0.72929  0.84807  0.41483  1.0000
  C   C2040     1.0  0.85122  0.71528  0.34724  1.0000
  C   C2041     1.0  0.82888  0.66859  0.39549  1.0000
  C   C2042     1.0  0.76017  0.94353  0.18822  1.0000
  S   S551      1.0  0.84170  0.72402  0.43755  1.0000
  H   H2471     1.0  0.74308  0.87423  0.44698  1.0000
  H   H2472     1.0  0.74806  0.81425  0.44656  1.0000
  C   C2043     1.0  0.81240  0.69074  0.47558  1.0000
  C   C2044     1.0  0.84013  0.68404  0.38533  1.0000
  N   N136      1.0  0.72814  0.79035  0.45203  1.0000
  S   S552      1.0  0.72571  0.80992  0.35108  1.0000
  H   H2473     1.0  0.73549  0.92599  0.15365  1.0000
  H   H2474     1.0  0.75429  0.89499  0.30096  1.0000
  C   C2045     1.0  0.72803  0.84801  0.20799  1.0000
  C   C2046     1.0  0.72450  0.84982  0.43844  1.0000
  C   C2047     1.0  0.76262  0.77922  0.47993  1.0000
  H   H2475     1.0  0.72330  0.75718  0.43266  1.0000
  H   H2476     1.0  0.74071  0.74257  0.44221  1.0000
  H   H2477     1.0  0.86088  0.71258  0.47747  1.0000
  H   H2478     1.0  0.82845  0.73280  0.05212  1.0000
  H   H2479     1.0  0.95925  0.70743  0.04107  1.0000
  C   C2048     1.0  0.95923  0.76326  0.14538  1.0000
  C   C2049     1.0  0.84749  0.72848  0.47880  1.0000
  S   S553      1.0  0.72937  0.83206  0.26449  1.0000
  C   C2050     1.0  0.74854  0.65603  0.43923  1.0000
  C   C2051     1.0  0.80018  0.66318  0.49770  1.0000
  S   S554      1.0  0.71931  0.90600  0.03983  1.0000
  C   C2052     1.0  0.83013  0.66098  0.09378  1.0000
  N   N137      1.0  0.83283  0.67581  0.07321  1.0000
  C   C2053     1.0  0.96780  0.76246  0.08937  1.0000
  C   C2054     1.0  0.82472  0.65468  0.37478  1.0000
  C   C2055     1.0  0.73388  0.76378  0.44676  1.0000
  H   H2480     1.0  0.81780  0.65575  0.10453  1.0000
  H   H2481     1.0  0.81517  0.65207  0.25181  1.0000
  H   H2482     1.0  0.88938  0.65311  0.17962  1.0000
  H   H2483     1.0  0.81407  0.70412  0.47733  1.0000
  H   H2484     1.0  0.82462  0.69050  0.47400  1.0000
  C   C2056     1.0  0.80967  0.65640  0.03892  1.0000
  C   C2057     1.0  0.85748  0.72126  0.49207  1.0000
  H   H2485     1.0  0.96085  0.72817  0.13717  1.0000
  C   C2058     1.0  0.74374  0.98355  0.12860  1.0000
  H   H2486     1.0  0.83835  0.66418  0.11499  1.0000
  C   C2059     1.0  0.72614  0.86714  0.48731  1.0000
  C   C2060     1.0  0.91004  0.65503  0.20681  1.0000
  C   C2061     1.0  0.72225  0.85736  0.18778  1.0000
  C   C2062     1.0  0.96618  0.71474  0.06125  1.0000
  C   C2063     1.0  0.96712  0.72626  0.11552  1.0000
  H   H2487     1.0  0.73338  0.80417  0.49783  1.0000
  C   C2064     1.0  0.72157  0.84345  0.23958  1.0000
  C   C2065     1.0  0.84322  0.73972  0.49787  1.0000
  C   C2066     1.0  0.80776  0.65134  0.27341  1.0000
  H   H2488     1.0  0.81155  0.66130  0.49316  1.0000
  H   H2489     1.0  0.83237  0.65098  0.07958  1.0000
  S   S555      1.0  0.73699  0.90699  0.59801  1.0000
  H   H2490     1.0  0.76928  0.84628  0.80133  1.0000
  H   H2491     1.0  0.76183  0.79476  0.82249  1.0000
  S   S556      1.0  0.73958  0.95599  0.58482  1.0000
  H   H2492     1.0  0.76753  0.83027  0.89950  1.0000
  H   H2493     1.0  0.74889  0.91829  0.94136  1.0000
  Fe  Fe279     1.0  0.88561  0.72180  0.68099  1.0000
  S   S557      1.0  0.89908  0.70600  0.66349  1.0000
  S   S558      1.0  0.88102  0.72320  0.73546  1.0000
  Fe  Fe280     1.0  0.87906  0.72924  0.61146  1.0000
  S   S559      1.0  0.89155  0.71368  0.58921  1.0000
  S   S560      1.0  0.86726  0.74327  0.58225  1.0000
  Fe  Fe281     1.0  0.87891  0.69507  0.62833  1.0000
  S   S561      1.0  0.86385  0.66769  0.61820  1.0000
  Fe  Fe282     1.0  0.91085  0.72624  0.62624  1.0000
  S   S562      1.0  0.93679  0.73335  0.60703  1.0000
  S   S563      1.0  0.86495  0.70978  0.64780  1.0000
  S   S564      1.0  0.89885  0.74293  0.64674  1.0000
  Fe  Fe283     1.0  0.80800  0.72230  0.83952  1.0000
  S   S565      1.0  0.81361  0.74146  0.88004  1.0000
  S   S566      1.0  0.81657  0.72879  0.78734  1.0000
  Fe  Fe284     1.0  0.78707  0.69396  0.88392  1.0000
  S   S567      1.0  0.79117  0.71083  0.92799  1.0000
  S   S568      1.0  0.77249  0.66608  0.88044  1.0000
  Fe  Fe285     1.0  0.78731  0.72908  0.89344  1.0000
  S   S569      1.0  0.77156  0.74319  0.91023  1.0000
  Fe  Fe286     1.0  0.81692  0.72173  0.91074  1.0000
  C   C2067     1.0  0.72789  0.88313  0.87647  1.0000
  S   S570      1.0  0.78153  0.71129  0.85067  1.0000
  S   S571      1.0  0.81298  0.70348  0.86889  1.0000
  H   H2494     1.0  0.77199  0.82723  0.72276  1.0000
  H   H2495     1.0  0.74171  0.85057  0.96876  1.0000
  H   H2496     1.0  0.77044  0.85231  0.85946  1.0000
  S   S572      1.0  0.73452  0.84271  0.77059  1.0000
  H   H2497     1.0  0.76319  0.80160  0.88037  1.0000
  C   C2068     1.0  0.72987  0.87154  0.69699  1.0000
  C   C2069     1.0  0.75980  0.75056  0.88530  1.0000
  C   C2070     1.0  0.75184  0.76021  0.89963  1.0000
  C   C2071     1.0  0.74218  0.76605  0.88088  1.0000
  C   C2072     1.0  0.74025  0.76218  0.84752  1.0000
  C   C2073     1.0  0.74820  0.75253  0.83324  1.0000
  C   C2074     1.0  0.75794  0.74679  0.85192  1.0000
  H   H2498     1.0  0.75315  0.76319  0.92544  1.0000
  H   H2499     1.0  0.73611  0.77339  0.89230  1.0000
  H   H2500     1.0  0.74679  0.74941  0.80750  1.0000
  H   H2501     1.0  0.76393  0.73938  0.84047  1.0000
  C   C2075     1.0  0.76895  0.83988  0.85095  1.0000
  H   H2502     1.0  0.77163  0.67456  0.94942  1.0000
  C   C2076     1.0  0.80710  0.68426  0.77479  1.0000
  C   C2077     1.0  0.85938  0.73693  0.54278  1.0000
  C   C2078     1.0  0.86322  0.72526  0.52407  1.0000
  C   C2079     1.0  0.94660  0.78991  0.54940  1.0000
  H   H2503     1.0  0.72093  0.70046  0.95579  1.0000
  H   H2504     1.0  0.75905  0.65691  0.99743  1.0000
  H   H2505     1.0  0.88124  0.67031  0.67798  1.0000
  H   H2506     1.0  0.87083  0.71956  0.53401  1.0000
  H   H2507     1.0  0.92048  0.74432  0.50744  1.0000
  H   H2508     1.0  0.72295  0.84686  0.83627  1.0000
  C   C2080     1.0  0.76843  0.83626  0.81744  1.0000
  C   C2081     1.0  0.86255  0.72372  0.74905  1.0000
  C   C2082     1.0  0.85254  0.72741  0.72778  1.0000
  C   C2083     1.0  0.83831  0.72863  0.73970  1.0000
  C   C2084     1.0  0.83391  0.72597  0.77283  1.0000
  C   C2085     1.0  0.84360  0.72164  0.79383  1.0000
  C   C2086     1.0  0.85795  0.72067  0.78204  1.0000
  H   H2509     1.0  0.85599  0.72985  0.70236  1.0000
  H   H2510     1.0  0.83084  0.73196  0.72331  1.0000
  H   H2511     1.0  0.84017  0.71938  0.81924  1.0000
  H   H2512     1.0  0.86561  0.71774  0.79858  1.0000
  C   C2087     1.0  0.76435  0.80762  0.82939  1.0000
  C   C2088     1.0  0.76491  0.81137  0.86279  1.0000
  N   N138      1.0  0.76590  0.81577  0.77031  1.0000
  C   C2089     1.0  0.76500  0.65381  0.91557  1.0000
  C   C2090     1.0  0.95552  0.75089  0.61016  1.0000
  C   C2091     1.0  0.76650  0.82004  0.80560  1.0000
  H   H2513     1.0  0.94632  0.76756  0.63477  1.0000
  C   C2092     1.0  0.74912  0.80554  0.76174  1.0000
  H   H2514     1.0  0.82527  0.68821  0.73846  1.0000
  H   H2515     1.0  0.76350  0.83761  0.75028  1.0000
  C   C2093     1.0  0.77167  0.83071  0.74900  1.0000
  H   H2516     1.0  0.78395  0.83945  0.75562  1.0000
  H   H2517     1.0  0.74413  0.79381  0.77603  1.0000
  H   H2518     1.0  0.77076  0.79316  0.77304  1.0000
  H   H2519     1.0  0.74132  0.81260  0.76685  1.0000
  H   H2520     1.0  0.78824  0.81239  0.77203  1.0000
  Fe  Fe287     1.0  0.72414  0.89468  0.55186  1.0000
  C   C2094     1.0  0.73628  0.86394  0.71990  1.0000
  H   H2521     1.0  0.73776  0.88117  0.68108  1.0000
  H   H2522     1.0  0.74913  0.86778  0.72137  1.0000
  C   C2095     1.0  0.75352  0.97420  0.60456  1.0000
  C   C2096     1.0  0.83307  0.72918  0.00123  1.0000
  H   H2523     1.0  0.74081  0.86273  0.85148  1.0000
  C   C2097     1.0  0.95684  0.76619  0.62437  1.0000
  H   H2524     1.0  0.75970  0.96142  0.64309  1.0000
  C   C2098     1.0  0.88147  0.75959  0.81050  1.0000
  H   H2525     1.0  0.77686  0.80393  0.73582  1.0000
  H   H2526     1.0  0.84731  0.76312  0.84099  1.0000
  C   C2099     1.0  0.84937  0.74412  0.52952  1.0000
  C   C2100     1.0  0.82441  0.66829  0.77136  1.0000
  N   N139      1.0  0.83724  0.66455  0.75406  1.0000
  H   H2527     1.0  0.72567  0.83063  0.92619  1.0000
  H   H2528     1.0  0.84638  0.75320  0.54379  1.0000
  C   C2101     1.0  0.91627  0.76390  0.57726  1.0000
  H   H2529     1.0  0.79349  0.65528  0.51850  1.0000
  C   C2102     1.0  0.85853  0.72705  0.98915  1.0000
  H   H2530     1.0  0.90318  0.73927  0.53375  1.0000
  C   C2103     1.0  0.82881  0.68675  0.57959  1.0000
  H   H2531     1.0  0.73292  0.71375  0.92432  1.0000
  Fe  Fe288     1.0  0.72736  0.92719  0.58964  1.0000
  C   C2104     1.0  0.85194  0.68002  0.75063  1.0000
  H   H2532     1.0  0.75905  0.69468  0.96207  1.0000
  C   C2105     1.0  0.85689  0.76333  0.82458  1.0000
  H   H2533     1.0  0.75818  0.71428  0.95093  1.0000
  C   C2106     1.0  0.87960  0.76263  0.77779  1.0000
  H   H2534     1.0  0.82184  0.72936  0.99318  1.0000
  C   C2107     1.0  0.73388  0.89243  0.93347  1.0000
  S   S573      1.0  0.72622  0.81354  0.84698  1.0000
  H   H2535     1.0  0.78971  0.67818  0.81419  1.0000
  H   H2536     1.0  0.72208  0.67995  0.99064  1.0000
  C   C2108     1.0  0.76187  0.97344  0.63241  1.0000
  C   C2109     1.0  0.76579  0.66116  0.94650  1.0000
  H   H2537     1.0  0.73266  0.88951  0.95932  1.0000
  C   C2110     1.0  0.77589  0.80594  0.76258  1.0000
  C   C2111     1.0  0.76730  0.82749  0.87356  1.0000
  C   C2112     1.0  0.86134  0.65363  0.65042  1.0000
  C   C2113     1.0  0.71998  0.83659  0.94282  1.0000
  C   C2114     1.0  0.96324  0.79863  0.54938  1.0000
  C   C2115     1.0  0.72614  0.85148  0.74090  1.0000
  C   C2116     1.0  0.72758  0.85686  0.85514  1.0000
  S   S574      1.0  0.84013  0.72527  0.93609  1.0000
  C   C2117     1.0  0.72988  0.66092  0.92227  1.0000
  C   C2118     1.0  0.91403  0.77153  0.52192  1.0000
  H   H2538     1.0  0.77613  0.96068  0.55604  1.0000
  H   H2539     1.0  0.72510  0.85054  0.87917  1.0000
  C   C2119     1.0  0.73026  0.67449  0.94286  1.0000
  H   H2540     1.0  0.73477  0.88003  0.80985  1.0000
  C   C2120     1.0  0.85510  0.76625  0.79175  1.0000
  C   C2121     1.0  0.81218  0.68807  0.53393  1.0000
  C   C2122     1.0  0.74705  0.69443  0.90136  1.0000
  H   H2541     1.0  0.86216  0.67746  0.73955  1.0000
  H   H2542     1.0  0.71960  0.86747  0.91954  1.0000
  H   H2543     1.0  0.89141  0.75617  0.81604  1.0000
  C   C2123     1.0  0.72903  0.84784  0.96699  1.0000
  H   H2544     1.0  0.92231  0.75831  0.59404  1.0000
  N   N140      1.0  0.92196  0.76347  0.54320  1.0000
  H   H2545     1.0  0.82910  0.66702  0.70598  1.0000
  H   H2546     1.0  0.75333  0.70791  0.89517  1.0000
  C   C2124     1.0  0.74304  0.90863  0.92337  1.0000
  H   H2547     1.0  0.84586  0.65626  0.79623  1.0000
  C   C2125     1.0  0.86646  0.76599  0.76845  1.0000
  H   H2548     1.0  0.91597  0.78446  0.53010  1.0000
  C   C2126     1.0  0.72642  0.87986  0.91045  1.0000
  C   C2127     1.0  0.80370  0.66297  0.81451  1.0000
  H   H2549     1.0  0.80367  0.69403  0.76551  1.0000
  C   C2128     1.0  0.81967  0.67936  0.55218  1.0000
  H   H2550     1.0  0.91871  0.77682  0.58625  1.0000
  C   C2129     1.0  0.79923  0.67537  0.80222  1.0000
  H   H2551     1.0  0.75632  0.68891  0.90113  1.0000
  N   N141      1.0  0.87240  0.75659  0.86950  1.0000
  C   C2130     1.0  0.86902  0.73852  0.87251  1.0000
  C   C2131     1.0  0.88909  0.76637  0.87996  1.0000
  C   C2132     1.0  0.86157  0.76077  0.89268  1.0000
  C   C2133     1.0  0.87033  0.76016  0.83507  1.0000
  H   H2552     1.0  0.86700  0.72553  0.97159  1.0000
  H   H2553     1.0  0.84444  0.76796  0.78411  1.0000
  C   C2134     1.0  0.78726  0.68246  0.50541  1.0000
  H   H2554     1.0  0.74792  0.80189  0.73544  1.0000
  N   N142      1.0  0.73863  0.69225  0.93353  1.0000
  H   H2555     1.0  0.87688  0.73449  0.85613  1.0000
  H   H2556     1.0  0.87067  0.73525  0.89796  1.0000
  H   H2557     1.0  0.85638  0.73075  0.86613  1.0000
  H   H2558     1.0  0.89796  0.76222  0.86747  1.0000
  H   H2559     1.0  0.89055  0.76498  0.90654  1.0000
  H   H2560     1.0  0.89259  0.77994  0.87514  1.0000
  H   H2561     1.0  0.84879  0.75249  0.88899  1.0000
  H   H2562     1.0  0.86389  0.75879  0.91855  1.0000
  H   H2563     1.0  0.86294  0.77404  0.89042  1.0000
  C   C2135     1.0  0.81952  0.68085  0.75956  1.0000
  H   H2564     1.0  0.85029  0.68930  0.73433  1.0000
  H   H2565     1.0  0.88797  0.76155  0.75931  1.0000
  C   C2136     1.0  0.91651  0.74561  0.53288  1.0000
  H   H2566     1.0  0.82542  0.72437  0.57986  1.0000
  C   C2137     1.0  0.84396  0.72724  0.97837  1.0000
  C   C2138     1.0  0.74476  0.91232  0.89019  1.0000
  H   H2567     1.0  0.78034  0.67635  0.52766  1.0000
  C   C2139     1.0  0.93960  0.77255  0.54158  1.0000
  H   H2568     1.0  0.81926  0.69019  0.97207  1.0000
  C   C2140     1.0  0.83172  0.65786  0.72101  1.0000
  H   H2569     1.0  0.90307  0.75683  0.57978  1.0000
  H   H2570     1.0  0.86471  0.76764  0.74289  1.0000
  H   H2571     1.0  0.84098  0.65480  0.70722  1.0000
  C   C2141     1.0  0.82349  0.71165  0.57238  1.0000
  C   C2142     1.0  0.87154  0.65815  0.67710  1.0000
  H   H2572     1.0  0.85584  0.68626  0.77471  1.0000
  C   C2143     1.0  0.73735  0.89980  0.86693  1.0000
  C   C2144     1.0  0.75078  0.70120  0.95831  1.0000
  H   H2573     1.0  0.92104  0.73842  0.54941  1.0000
  H   H2574     1.0  0.75197  0.92495  0.88245  1.0000
  S   S575      1.0  0.72816  0.76900  0.82235  1.0000
  H   H2575     1.0  0.73930  0.90348  0.84166  1.0000
  C   C2145     1.0  0.81457  0.70454  0.54470  1.0000
  C   C2146     1.0  0.83064  0.70282  0.58968  1.0000
  C   C2147     1.0  0.81603  0.65934  0.79933  1.0000
  H   H2576     1.0  0.79753  0.65620  0.83607  1.0000
  H   H2577     1.0  0.79465  0.97850  0.59739  1.0000
  H   H2578     1.0  0.74534  0.70222  0.98240  1.0000
  H   H2579     1.0  0.81889  0.66696  0.54558  1.0000
  C   C2148     1.0  0.72200  0.87495  0.81823  1.0000
  N   N143      1.0  0.80314  0.68108  0.50381  1.0000
  H   H2580     1.0  0.93927  0.79678  0.55644  1.0000
  H   H2581     1.0  0.73860  0.68866  0.88117  1.0000
  H   H2582     1.0  0.90075  0.76454  0.52190  1.0000
  H   H2583     1.0  0.78821  0.69563  0.50544  1.0000
  C   C2149     1.0  0.84179  0.65205  0.77097  1.0000
  H   H2584     1.0  0.94623  0.75124  0.52886  1.0000
  H   H2585     1.0  0.73566  0.66270  0.89847  1.0000
  S   S576      1.0  0.73564  0.88639  0.50838  1.0000
  C   C2150     1.0  0.95031  0.76451  0.53374  1.0000
  H   H2586     1.0  0.83478  0.68011  0.59283  1.0000
  H   H2587     1.0  0.79663  0.66286  0.96507  1.0000
  H   H2588     1.0  0.83791  0.70868  0.61054  1.0000
  C   C2151     1.0  0.72695  0.70040  0.93187  1.0000
  C   C2152     1.0  0.72175  0.85553  0.98902  1.0000
  C   C2153     1.0  0.72243  0.67034  0.97381  1.0000
  H   H2589     1.0  0.80996  0.71227  0.53126  1.0000
  C   C2154     1.0  0.80386  0.66537  0.98678  1.0000
  C   C2155     1.0  0.96692  0.77341  0.53349  1.0000
  C   C2156     1.0  0.81662  0.68070  0.99072  1.0000
  C   C2157     1.0  0.78057  0.98087  0.52256  1.0000
  C   C2158     1.0  0.78280  0.97389  0.55139  1.0000
  C   C2159     1.0  0.75871  0.65113  0.97366  1.0000
  N   N144      1.0  0.72022  0.86939  0.85272  1.0000
  C   C2160     1.0  0.79321  0.98397  0.57470  1.0000
  H   H2590     1.0  0.96836  0.81177  0.55622  1.0000
  H   H2591     1.0  0.96864  0.73774  0.58575  1.0000
  H   H2592     1.0  0.77232  0.97293  0.50468  1.0000
