data_image0
_chemical_formula_structural       FeSFeHSCS2FeSFeH2CSC5NCH3CFeHCHCH2NH4CH2NHSC2H3CH2CFeHCH6CH2C2H2SH4C3NHCH4C2H2CHCHCHC3SC2H3CH2C3HNC2HCHCHC3HC4HCHSH5CSHSHFeHFeS2FeS2FeSFeS3FeS2FeS2FeSFeS3C6H4C7H2C7H3C7H4C7H4CH3C2HC2H3CH7CH3C2HCHCH4NC8H12C2H3C2H2CHNHCHC3HC3H3CSHNHFeCH2CH4C2H2C2NH6C2H2C3HC2HSH2CS2H4NC3HNC2FeS2FeS2FeSFeS3FeS2FeS2FeSFeS3FeS2FeS2FeSFeHSCFeS2FeS2FeSFeS3HC6H3NH3CHC6H4C6H4C6H4C6H4C6H4C3H2NCH3CH4C6HCH2CHC2H3CH5C2HC2HCH2CH4CHSCH2C2HCH2CHC2H4CSNC7H11NC9H14NC9H13CH3CH6CH2NC2HC3HCHCH7CNC2HCHNH5CSC2FeSFeCSHS2FeCSC3SC4NH8CH3C2HCH3CHC4H3C2HCSHNCH3C3H3C2HC3HFeCFeC2H2NH2NCH2CH6CHCH4CH2CSC3H2CH3C2H4CSCHCHC2H4SHSC2HFeS2FeS2FeSFeS3FeS2FeS2FeSFeS3C6H4C6H4C6H2C8H4C7H8CH2CHCHC4H2C2SCH6C2HCHCH2CH4FeH2C2NC2HCH4C5HNC9H14FeC5HC2H7SCNCHNH2CH2CH2CH4CHNSH2CH2CHCHCHC2SH5CH3CHCFeH3SHC2FeS2FeS2FeSFeS3FeS2FeS2FeSFeS3FeS2FeS2FeSFeHSHFeS2FeS2FeSFeS3C7H6CH2C6H4C6H4C6H4C6H4C6H6C2HCH3C2H4CNCNHC2H2NC9H14NC9H15CHC2H2C2HC2H7C2H3NHNSCH2CH3CH3C4HCH3CH2CH4CH2C2H2C2HCH5CHCHC7HCHC2H2CHCHCH3C5HFeS2FeS2FeSFeS3FeS2FeS2FeSFeS3FeS2FeSCFeSFeS3FeSCFeS2FeSFeS3CH3NC6H4C6H4C6H4C6H4C6H4C6H5CHCH2CH2NC7H9NC9H14NHCSCHCHC2HC2H2C6H2CHCH2SH4C3HNCH2C2H4CHCNC7H13C2NCH4CH7C2H3CH2C2H6CHCH5CH6CH2CH2C2H4CHSFeSCHSCSH2FeS2FeS2FeHFeS3FeS2FeSNFeSFeS3C2H3C6H4C6H2CHC8H2C6H4C6H2CH3CH2CNHSC6HCH4C2H4SHCH4CHC5H2NH2C2H4FeH8CHCSH3CH2SH3C2H2CHSH2C6H6CH2CHSHCHCHC2HC2HCH5CH6CH2CHFeHNC2H2FeHSC2S2Fe2SHC2SC3HC4HCH2CH2CH2CH2CH2C2H3CHCHSFeH2SCH2C4HCH3CH2SCNH3CHCH3C3NH5CHFeCHCHCH2CH2C2H2NHC2H2CHFeS2FeS2FeSFeS3FeS2FeS2FeSFeS3FeS2FeSCFeSFeS3FeSCFeS2FeSFeS3HN2HC7H4C6H4C6H3C7H4C6H4C6H4CH6CH2CH2CHC2HCHCH5CNC6H2CH7C2HC2HNC9H14SC4HC2H2NC9H15C3SCH5C3H3CH3CHC2H6CH4C3H4C2NHCHSCSH2SFeSC2FeS2FeS2FeHFeS3FeS2FeSCFeSFeS3HCHCHC6H4C6H4C7H3C6H4C6H2SH2CHC2HCHC2H2SCHCFeCH2CH3C3H2C2H3CSH3CH4NH4C2H3CHCNC2HNC6H2CH16CH2CH3C2HC2H2NCHCHSH2C2HNH3C2HCHCHC3HFeC4SH2CHCHCH3CHNCHCHFeHSH2S2FeCSFeS3HC3H2CHC2HNCHNH3C4FeH3C2HC2H5C2HFeCHCH6C2HCH2C2H3CH3C3HC2HC3HCHSHCHCH3CH2CHSHC3HFeSFeCSHS2FeCSH2CS2HC4HSC4HCH5C4HC2HCH5NH6CH3CHCH3C4H3SCHCHC2HC2H3FeCH3FeH3CHC2FeH2CHC3HCH2CHCSHC2HSC2H3SHSH2SFeSHFeS2H2FeSHSFeS2FeS2FeSFeS3H4CHC3HC6H4C6H4C6H2FeHC6H4C6HCH4CNC3H3CH4NHCFeHCHCHSH2C2H2CHC5H3C4H2CNC7FeH14CH2C2HCSNHC2NC2H2CH3CH2C2HCHCHCH2C3H3SCSHCH3CH3C2H3SCH2CHFeS2FeS2FeSFeS3FeS2FeS2FeSFeCSHFeS2FeS2FeSFeS3FeS2FeS2FeSFeS3C2H2C6H4C6H4C6H4CHCH2C6H4C6H4C6H7CNC2HCH2CH2CH3NCH2C2H2C2H2NC9H14NC9H19CHCH2CH2CHCHCSHCH4C3HC7H2C2HCHCHC2NH2CH2NC4HSH2CH2C2HNH5CH2CHCNHC3H4SC2FeSFeHSHS2FeHSHC2S2CHC2H3C3H2CH3CH2C4H2SHFeCNC9H13FeC2SCFeH2C2NC2SCHCH3CHNH2CSH4CH3CH9CHC2H2CH4SNHSHSFeSHFeS2CHFeSCSFeS2FeS2FeSFeS3CH5NH3C6H4C6H4C7H3C6H4C6HCH5CH2FeH2CHCH3FeCH3C2SCFeCH4CH2CH2C2H2CNCH2C2HCSHC3HC2HC2NHCH3C2H2CHNC4HNC2H6CH6C3HCH2SHC2H5SNSNH6C2H2CH2C2HFeS2FeS2FeSFeS3FeSCFeSCFeSFeHSCFeS2FeS2FeSFeS3FeS2FeS2FeSFeS3H3NC6H4C6H4C6H4CH4C6H4C6H4C6HCH2CHC2H2CH3CHCH6CHC2HCHSHCHSH5NSNCHC2H6C3HNC9H17CH2NC9H10C2H2NH4CHCHNC2H3C2H2C3H4CHCHC2H4C3HC3H4CNH5CHCHC2FeS2FeS2FeCFeS3FeSCFeS2FeSFeHS2FeS2FeS2FeSFeS3FeS2FeS2FeSFeS3HCH2C4H2C6H4C7H4C6H4CN2C6H4C6H4C6H2CHCH2C2H3CHC2H2CHCH2CHCH2CH2NCHCNH2CHC2H4CHSH2NC8H10CHCHCHC2H2CH2C2H3C2H2CH4NC6HC2H11CH6C2H2C2HC2HC3HNHC2H2SCHC3HCH3CH7NC2HCHC2HNS3FeH2CFeS2FeS2FeSFeS3FeS2FeS2FeSFeS3C2H3C6H4C6H4C6H4C6H4C6H3NHC2HC2SCHCH4CH3C2H2FeNCH2CHFeHCH2C3H2C2H2CH2FeH7CHCH4C3H4C3HCHC3NH2CHSHC2HCHC2NHCH4CH3SHNH5CHC3SH2CH2SH2CH3CH2CH2CHS2C2FeSHFeCSC2HSC3H2CHCH2CH3CHFeHC2HCH5CHCNHC3H4C2HC2H2CHCSC2H3FeH6C3H2CHSH3C3NH2CH2C2H2CH2CSCH6CHCHCFeS2FeS2FeCFeS3FeS2FeS2FeSFeCS2FeS2FeS2FeSFeS3FeS2FeS2FeSFeS4C2H4CH2C6H5C6H3C7H6C7H4C7H3C6H7CNC4NCH2CH9CNC9H15CH4CH3C2H4C3H2CH2CNC4HCH7C2H8CNHCH3CNH2C2HC3H3CH2SHC3HCH5CH4CHNHC2H5C2H2CSCHC3HFeS3FeCHSFeS2FeS2FeSFeS3FeS2FeS2FeSFeS3C4HC6H4C6H4C6H4C7H3C7SH2SC3H14CH4C4HCHCHCNH2NHC4HCH2C2HCH3CH6NC5H14CH2CH4C4HCH5NC6H2CH3CHCH7CNC5NC2H2CH2SH2C2H4C2H2CHCHFeHC3HSH2CFeSCFeHSCHNSH4SHC2H7SNCHSHC2FeH2CHSC4HCFeCH3C6HNCH4C4HCH4SCH2CHC5FeHCHCH3CH3CH3CHCH4NH3CHC3HCHCHCH
_chemical_formula_sum              "Fe256 S512 H2304 C1920 N128"
_cell_length_a       87.3548
_cell_length_b       46.6594
_cell_length_c       65.0653
_cell_angle_alpha    89.7204
_cell_angle_beta     88.8986
_cell_angle_gamma    90.1187

_space_group_name_H-M_alt    "P 1"
_space_group_IT_number       1

loop_
  _space_group_symop_operation_xyz
  'x, y, z'

loop_
  _atom_site_type_symbol
  _atom_site_label
  _atom_site_symmetry_multiplicity
  _atom_site_fract_x
  _atom_site_fract_y
  _atom_site_fract_z
  _atom_site_occupancy
  Fe  Fe1       1.0  0.07135  0.03885  0.29297  1.0000
  S   S1        1.0  0.09513  0.04316  0.27818  1.0000
  Fe  Fe2       1.0  0.03674  0.04363  0.28359  1.0000
  H   H1        1.0  0.02663  0.09678  0.31509  1.0000
  S   S2        1.0  0.01649  0.04884  0.26149  1.0000
  C   C1        1.0  0.02519  0.98857  0.02954  1.0000
  S   S3        1.0  0.05445  0.07551  0.29399  1.0000
  S   S4        1.0  0.05416  0.00826  0.27987  1.0000
  Fe  Fe3       1.0  0.21328  0.00934  0.29005  1.0000
  S   S5        1.0  0.15683  0.00543  0.32128  1.0000
  Fe  Fe4       1.0  0.20695  0.05854  0.32148  1.0000
  H   H2        1.0  0.24072  0.00286  0.03089  1.0000
  H   H3        1.0  0.21965  0.08240  0.01496  1.0000
  C   C2        1.0  0.06100  0.02644  0.99334  1.0000
  S   S6        1.0  0.19479  0.04338  0.29313  1.0000
  C   C3        1.0  0.14083  0.41652  0.32054  1.0000
  C   C4        1.0  0.11232  0.03363  0.29052  1.0000
  C   C5        1.0  0.12633  0.03549  0.27956  1.0000
  C   C6        1.0  0.14019  0.02777  0.28887  1.0000
  C   C7        1.0  0.01038  0.06356  0.18373  1.0000
  N   N1        1.0  0.09826  0.44788  0.29628  1.0000
  C   C8        1.0  0.23980  0.46810  0.23082  1.0000
  H   H4        1.0  0.12645  0.04273  0.26373  1.0000
  H   H5        1.0  0.15086  0.02878  0.28017  1.0000
  H   H6        1.0  0.23143  0.98728  0.21543  1.0000
  C   C9        1.0  0.23954  0.48009  0.25067  1.0000
  Fe  Fe5       1.0  0.18220  0.01259  0.31399  1.0000
  H   H7        1.0  0.10748  0.45163  0.26542  1.0000
  C   C10       1.0  0.16416  0.09507  0.30640  1.0000
  H   H8        1.0  0.02129  0.05128  0.18341  1.0000
  C   C11       1.0  0.14008  0.01781  0.30919  1.0000
  H   H9        1.0  0.08626  0.99702  0.99602  1.0000
  H   H10       1.0  0.00661  0.16536  0.29646  1.0000
  N   N2        1.0  0.25294  0.08228  0.07093  1.0000
  H   H11       1.0  0.02456  0.10910  0.25174  1.0000
  H   H12       1.0  0.23851  0.06418  0.09487  1.0000
  H   H13       1.0  0.25120  0.12649  0.06106  1.0000
  H   H14       1.0  0.22923  0.46640  0.22251  1.0000
  C   C12       1.0  0.01414  0.10369  0.24392  1.0000
  H   H15       1.0  0.02823  0.08030  0.15095  1.0000
  H   H16       1.0  0.08304  0.41341  0.30559  1.0000
  N   N3        1.0  0.24265  0.41576  0.30769  1.0000
  H   H17       1.0  0.02485  0.12922  0.30056  1.0000
  S   S7        1.0  0.22284  0.99912  0.25742  1.0000
  C   C13       1.0  0.11230  0.02432  0.31096  1.0000
  C   C14       1.0  0.01957  0.10787  0.30343  1.0000
  H   H18       1.0  0.25351  0.44915  0.20626  1.0000
  H   H19       1.0  0.04222  0.42798  0.02576  1.0000
  H   H20       1.0  0.14835  0.46041  0.31846  1.0000
  C   C15       1.0  0.07651  0.98768  0.00515  1.0000
  H   H21       1.0  0.07618  0.43467  0.28519  1.0000
  H   H22       1.0  0.07714  0.99602  0.02111  1.0000
  C   C16       1.0  0.12609  0.01619  0.32016  1.0000
  Fe  Fe6       1.0  0.04913  0.99552  0.31285  1.0000
  H   H23       1.0  0.22363  0.03090  0.00861  1.0000
  C   C17       1.0  0.24423  0.06834  0.05440  1.0000
  H   H24       1.0  0.01232  0.08285  0.19340  1.0000
  H   H25       1.0  0.22744  0.39750  0.27356  1.0000
  H   H26       1.0  0.01944  0.10963  0.16466  1.0000
  H   H27       1.0  0.25404  0.02580  0.05908  1.0000
  H   H28       1.0  0.01354  0.10168  0.13942  1.0000
  H   H29       1.0  0.00581  0.01223  0.17215  1.0000
  C   C18       1.0  0.03702  0.00047  0.01744  1.0000
  H   H30       1.0  0.02270  0.33010  0.31442  1.0000
  H   H31       1.0  0.23807  0.38602  0.23960  1.0000
  C   C19       1.0  0.11280  0.43657  0.30436  1.0000
  C   C20       1.0  0.22904  0.04104  0.02158  1.0000
  H   H32       1.0  0.24518  0.14600  0.99236  1.0000
  H   H33       1.0  0.02059  0.09562  0.28886  1.0000
  S   S8        1.0  0.22636  0.02680  0.31696  1.0000
  H   H34       1.0  0.17692  0.09520  0.30542  1.0000
  H   H35       1.0  0.10167  0.02345  0.31969  1.0000
  H   H36       1.0  0.23603  0.11438  0.07850  1.0000
  H   H37       1.0  0.06155  0.03765  0.00835  1.0000
  C   C21       1.0  0.13902  0.44545  0.31591  1.0000
  C   C22       1.0  0.00680  0.12447  0.23167  1.0000
  C   C23       1.0  0.23969  0.39921  0.27124  1.0000
  N   N4        1.0  0.06157  0.99479  0.99596  1.0000
  H   H38       1.0  0.23523  0.45701  0.29681  1.0000
  C   C24       1.0  0.08686  0.42529  0.29151  1.0000
  H   H39       1.0  0.22555  0.38204  0.30846  1.0000
  H   H40       1.0  0.02586  0.37734  0.29849  1.0000
  H   H41       1.0  0.10850  0.09242  0.30246  1.0000
  H   H42       1.0  0.15964  0.14997  0.31947  1.0000
  C   C25       1.0  0.23067  0.43803  0.30539  1.0000
  C   C26       1.0  0.23432  0.08377  0.04125  1.0000
  H   H43       1.0  0.10606  0.39135  0.30764  1.0000
  H   H44       1.0  0.09145  0.40994  0.27992  1.0000
  C   C27       1.0  0.04047  0.45060  0.02278  1.0000
  H   H45       1.0  0.09035  0.47230  0.27018  1.0000
  C   C28       1.0  0.09117  0.46702  0.31180  1.0000
  H   H46       1.0  0.01592  0.00197  0.03521  1.0000
  C   C29       1.0  0.24627  0.03872  0.05023  1.0000
  H   H47       1.0  0.02030  0.42130  0.31821  1.0000
  C   C30       1.0  0.10119  0.46463  0.27711  1.0000
  C   C31       1.0  0.02172  0.37560  0.31425  1.0000
  C   C32       1.0  0.13172  0.09756  0.31261  1.0000
  S   S9        1.0  0.03050  0.02868  0.31573  1.0000
  C   C33       1.0  0.23875  0.02536  0.03407  1.0000
  C   C34       1.0  0.24931  0.40846  0.28727  1.0000
  H   H48       1.0  0.22625  0.44562  0.32055  1.0000
  H   H49       1.0  0.01889  0.45161  0.03930  1.0000
  H   H50       1.0  0.03624  0.02317  0.01436  1.0000
  C   C35       1.0  0.05107  0.46611  0.01075  1.0000
  H   H51       1.0  0.12444  0.47803  0.30475  1.0000
  H   H52       1.0  0.16019  0.10914  0.29374  1.0000
  C   C36       1.0  0.01719  0.09152  0.15399  1.0000
  C   C37       1.0  0.11578  0.09898  0.31495  1.0000
  C   C38       1.0  0.11492  0.40720  0.30955  1.0000
  H   H53       1.0  0.23251  0.10657  0.04259  1.0000
  N   N5        1.0  0.00551  0.07142  0.16267  1.0000
  C   C39       1.0  0.23563  0.38971  0.31706  1.0000
  C   C40       1.0  0.24566  0.39230  0.25179  1.0000
  H   H54       1.0  0.06095  0.45472  0.00484  1.0000
  C   C41       1.0  0.25337  0.48209  0.26113  1.0000
  H   H55       1.0  0.08037  0.47642  0.30613  1.0000
  C   C42       1.0  0.22680  0.07013  0.02521  1.0000
  H   H56       1.0  0.13602  0.08965  0.29805  1.0000
  C   C43       1.0  0.12525  0.45537  0.30797  1.0000
  C   C44       1.0  0.00797  0.07609  0.24599  1.0000
  C   C45       1.0  0.12880  0.39744  0.31742  1.0000
  H   H57       1.0  0.24400  0.37177  0.31762  1.0000
  C   C46       1.0  0.24912  0.12404  0.99258  1.0000
  C   C47       1.0  0.25086  0.06644  0.09066  1.0000
  C   C48       1.0  0.24845  0.11257  0.07464  1.0000
  C   C49       1.0  0.02735  0.46391  0.03055  1.0000
  H   H58       1.0  0.01163  0.14579  0.23040  1.0000
  C   C50       1.0  0.25360  0.45835  0.22149  1.0000
  H   H59       1.0  0.16057  0.07257  0.30338  1.0000
  S   S10       1.0  0.19752  0.48210  0.31242  1.0000
  H   H60       1.0  0.22054  0.43024  0.29699  1.0000
  H   H61       1.0  0.25482  0.12205  0.08767  1.0000
  H   H62       1.0  0.24320  0.48255  0.07291  1.0000
  H   H63       1.0  0.13027  0.37494  0.32109  1.0000
  H   H64       1.0  0.13540  0.18151  0.42867  1.0000
  C   C51       1.0  0.10411  0.44047  0.36589  1.0000
  S   S11       1.0  0.04473  0.08574  0.35431  1.0000
  H   H65       1.0  0.00832  0.37191  0.37125  1.0000
  S   S12       1.0  0.19354  0.02909  0.34222  1.0000
  H   H66       1.0  0.01149  0.41791  0.35438  1.0000
  Fe  Fe7       1.0  0.21159  0.99603  0.33574  1.0000
  H   H67       1.0  0.24115  0.30685  0.58760  1.0000
  Fe  Fe8       1.0  0.04521  0.25538  0.43370  1.0000
  S   S13       1.0  0.03055  0.27243  0.40821  1.0000
  S   S14       1.0  0.03728  0.23948  0.46596  1.0000
  Fe  Fe9       1.0  0.07506  0.26312  0.40770  1.0000
  S   S15       1.0  0.06220  0.28006  0.38065  1.0000
  S   S16       1.0  0.10027  0.25912  0.39846  1.0000
  Fe  Fe10      1.0  0.04882  0.30640  0.40311  1.0000
  S   S17       1.0  0.04385  0.35426  0.39812  1.0000
  Fe  Fe11      1.0  0.04531  0.24483  0.38747  1.0000
  S   S18       1.0  0.03688  0.22115  0.35948  1.0000
  S   S19       1.0  0.06257  0.29162  0.43023  1.0000
  S   S20       1.0  0.05899  0.22581  0.41293  1.0000
  Fe  Fe12      1.0  0.18538  0.28494  0.42800  1.0000
  S   S21       1.0  0.18890  0.27124  0.39529  1.0000
  S   S22       1.0  0.16212  0.28656  0.44448  1.0000
  Fe  Fe13      1.0  0.22029  0.29106  0.43555  1.0000
  S   S23       1.0  0.22603  0.27772  0.40288  1.0000
  S   S24       1.0  0.23828  0.29224  0.46112  1.0000
  Fe  Fe14      1.0  0.20647  0.30685  0.39431  1.0000
  S   S25       1.0  0.20519  0.33511  0.36590  1.0000
  Fe  Fe15      1.0  0.20796  0.24321  0.40639  1.0000
  S   S26       1.0  0.21053  0.19435  0.40213  1.0000
  S   S27       1.0  0.20180  0.32228  0.42659  1.0000
  S   S28       1.0  0.20333  0.25484  0.43951  1.0000
  C   C52       1.0  0.11696  0.26897  0.41165  1.0000
  C   C53       1.0  0.13075  0.27139  0.40033  1.0000
  C   C54       1.0  0.14456  0.27768  0.41010  1.0000
  C   C55       1.0  0.14474  0.28137  0.43140  1.0000
  C   C56       1.0  0.13087  0.27965  0.44270  1.0000
  C   C57       1.0  0.11700  0.27353  0.43287  1.0000
  H   H68       1.0  0.13082  0.26807  0.38388  1.0000
  H   H69       1.0  0.15508  0.27927  0.40116  1.0000
  H   H70       1.0  0.13091  0.28255  0.45920  1.0000
  H   H71       1.0  0.10644  0.27170  0.44176  1.0000
  C   C58       1.0  0.20773  0.13123  0.34737  1.0000
  C   C59       1.0  0.20675  0.16105  0.34403  1.0000
  C   C60       1.0  0.20745  0.18066  0.36050  1.0000
  C   C61       1.0  0.20921  0.17072  0.38064  1.0000
  C   C62       1.0  0.20996  0.14089  0.38404  1.0000
  C   C63       1.0  0.20918  0.12127  0.36757  1.0000
  C   C64       1.0  0.00662  0.31779  0.37519  1.0000
  H   H72       1.0  0.20690  0.20347  0.35753  1.0000
  H   H73       1.0  0.21131  0.13282  0.39951  1.0000
  C   C65       1.0  0.14445  0.19754  0.43201  1.0000
  C   C66       1.0  0.21583  0.43146  0.36516  1.0000
  C   C67       1.0  0.22199  0.41378  0.38044  1.0000
  C   C68       1.0  0.21830  0.38439  0.38144  1.0000
  C   C69       1.0  0.20861  0.37240  0.36691  1.0000
  C   C70       1.0  0.20227  0.39017  0.35183  1.0000
  C   C71       1.0  0.20570  0.41963  0.35111  1.0000
  H   H74       1.0  0.22979  0.42272  0.39143  1.0000
  H   H75       1.0  0.22329  0.37085  0.39307  1.0000
  H   H76       1.0  0.19475  0.38103  0.34056  1.0000
  C   C72       1.0  0.16464  0.20158  0.36063  1.0000
  C   C73       1.0  0.05202  0.41963  0.34509  1.0000
  C   C74       1.0  0.05602  0.39060  0.34247  1.0000
  C   C75       1.0  0.05380  0.37037  0.35849  1.0000
  C   C76       1.0  0.04741  0.37886  0.37741  1.0000
  C   C77       1.0  0.04366  0.40797  0.38013  1.0000
  C   C78       1.0  0.04599  0.42825  0.36414  1.0000
  H   H77       1.0  0.17423  0.20128  0.34977  1.0000
  H   H78       1.0  0.05689  0.34821  0.35608  1.0000
  H   H79       1.0  0.03879  0.41491  0.39469  1.0000
  H   H80       1.0  0.04283  0.45043  0.36647  1.0000
  C   C79       1.0  0.04379  0.12364  0.35529  1.0000
  C   C80       1.0  0.04468  0.14074  0.33757  1.0000
  C   C81       1.0  0.04259  0.17063  0.33898  1.0000
  C   C82       1.0  0.04028  0.18378  0.35818  1.0000
  C   C83       1.0  0.04000  0.16680  0.37594  1.0000
  C   C84       1.0  0.04154  0.13686  0.37446  1.0000
  C   C85       1.0  0.01171  0.37167  0.35521  1.0000
  H   H81       1.0  0.02361  0.29500  0.48476  1.0000
  H   H82       1.0  0.03817  0.17664  0.39081  1.0000
  H   H83       1.0  0.04093  0.12384  0.38826  1.0000
  H   H84       1.0  0.21607  0.31339  0.50066  1.0000
  C   C86       1.0  0.11841  0.11665  0.34944  1.0000
  H   H85       1.0  0.00887  0.11521  0.34246  1.0000
  H   H86       1.0  0.23635  0.28333  0.55574  1.0000
  H   H87       1.0  0.07966  0.44098  0.37045  1.0000
  C   C87       1.0  0.15504  0.19817  0.39633  1.0000
  C   C88       1.0  0.22538  0.29608  0.52850  1.0000
  H   H88       1.0  0.16019  0.06309  0.34048  1.0000
  C   C89       1.0  0.01971  0.22758  0.47795  1.0000
  C   C90       1.0  0.01990  0.21724  0.49836  1.0000
  H   H89       1.0  0.04700  0.13099  0.32283  1.0000
  H   H90       1.0  0.03068  0.21636  0.50626  1.0000
  H   H91       1.0  0.03304  0.29942  0.33868  1.0000
  C   C91       1.0  0.13767  0.20772  0.36783  1.0000
  H   H92       1.0  0.00844  0.14773  0.32842  1.0000
  H   H93       1.0  0.08829  0.45523  0.32628  1.0000
  H   H94       1.0  0.16290  0.14168  0.34611  1.0000
  H   H95       1.0  0.14108  0.12210  0.36016  1.0000
  H   H96       1.0  0.03615  0.31507  0.36338  1.0000
  H   H97       1.0  0.14723  0.19493  0.44855  1.0000
  H   H98       1.0  0.03366  0.28970  0.51974  1.0000
  C   C92       1.0  0.24850  0.36088  0.57566  1.0000
  H   H99       1.0  0.12620  0.21233  0.36255  1.0000
  H   H100      1.0  0.22833  0.36069  0.50468  1.0000
  H   H101      1.0  0.23745  0.23119  0.45524  1.0000
  C   C93       1.0  0.16480  0.13413  0.33012  1.0000
  C   C94       1.0  0.22295  0.31760  0.51403  1.0000
  H   H102      1.0  0.17742  0.08422  0.34138  1.0000
  C   C95       1.0  0.24966  0.31885  0.47356  1.0000
  H   H103      1.0  0.24139  0.35517  0.45663  1.0000
  C   C96       1.0  0.01987  0.34868  0.32356  1.0000
  H   H104      1.0  0.14797  0.21075  0.33759  1.0000
  H   H105      1.0  0.16184  0.09198  0.35843  1.0000
  H   H106      1.0  0.18133  0.21070  0.41812  1.0000
  H   H107      1.0  0.25007  0.38003  0.56561  1.0000
  N   N6        1.0  0.10248  0.35405  0.39017  1.0000
  C   C97       1.0  0.11216  0.35198  0.40862  1.0000
  C   C98       1.0  0.08690  0.34377  0.39620  1.0000
  C   C99       1.0  0.10859  0.33428  0.37423  1.0000
  C   C100      1.0  0.10279  0.38379  0.38205  1.0000
  C   C101      1.0  0.11688  0.39663  0.37571  1.0000
  C   C102      1.0  0.08936  0.40069  0.37996  1.0000
  C   C103      1.0  0.11748  0.42457  0.36781  1.0000
  C   C104      1.0  0.09008  0.42852  0.37189  1.0000
  H   H108      1.0  0.10840  0.36758  0.42058  1.0000
  H   H109      1.0  0.11160  0.33019  0.41569  1.0000
  H   H110      1.0  0.12448  0.35606  0.40509  1.0000
  H   H111      1.0  0.08166  0.35710  0.40863  1.0000
  H   H112      1.0  0.08714  0.32135  0.40220  1.0000
  H   H113      1.0  0.07906  0.34363  0.38292  1.0000
  H   H114      1.0  0.10198  0.33604  0.35982  1.0000
  H   H115      1.0  0.12086  0.33838  0.37040  1.0000
  H   H116      1.0  0.10791  0.31154  0.37939  1.0000
  H   H117      1.0  0.12758  0.38518  0.37694  1.0000
  H   H118      1.0  0.07815  0.39302  0.38459  1.0000
  H   H119      1.0  0.12840  0.43405  0.36327  1.0000
  C   C105      1.0  0.01451  0.12555  0.49505  1.0000
  C   C106      1.0  0.23780  0.20893  0.44921  1.0000
  H   H120      1.0  0.17884  0.19327  0.38612  1.0000
  H   H121      1.0  0.16645  0.16030  0.43824  1.0000
  H   H122      1.0  0.10464  0.46220  0.35993  1.0000
  C   C107      1.0  0.25015  0.17460  0.42722  1.0000
  C   C108      1.0  0.00563  0.22867  0.46803  1.0000
  H   H123      1.0  0.03712  0.13964  0.48544  1.0000
  H   H124      1.0  0.22017  0.27521  0.52641  1.0000
  C   C109      1.0  0.23476  0.30109  0.54533  1.0000
  H   H125      1.0  0.13956  0.21947  0.43042  1.0000
  N   N7        1.0  0.25264  0.33376  0.56506  1.0000
  H   H126      1.0  0.15159  0.40893  0.32659  1.0000
  C   C110      1.0  0.14011  0.20342  0.38880  1.0000
  H   H127      1.0  0.24851  0.43301  0.33733  1.0000
  C   C111      1.0  0.02140  0.28892  0.51748  1.0000
  C   C112      1.0  0.22985  0.34427  0.51632  1.0000
  C   C113      1.0  0.03272  0.47320  0.63538  1.0000
  H   H128      1.0  0.01902  0.11393  0.50798  1.0000
  C   C114      1.0  0.16719  0.19712  0.38154  1.0000
  C   C115      1.0  0.23938  0.34943  0.53291  1.0000
  C   C116      1.0  0.01351  0.39845  0.34570  1.0000
  H   H129      1.0  0.20995  0.09847  0.37047  1.0000
  H   H130      1.0  0.15596  0.14805  0.41636  1.0000
  H   H131      1.0  0.12591  0.00852  0.33588  1.0000
  C   C117      1.0  0.24892  0.34805  0.46861  1.0000
  S   S29       1.0  0.22168  0.46774  0.36333  1.0000
  H   H132      1.0  0.17527  0.16100  0.41330  1.0000
  N   N8        1.0  0.15818  0.19385  0.41844  1.0000
  H   H133      1.0  0.11315  0.12390  0.36373  1.0000
  Fe  Fe16      1.0  0.04904  0.05882  0.32580  1.0000
  C   C118      1.0  0.16420  0.16451  0.42171  1.0000
  H   H134      1.0  0.02698  0.28076  0.36133  1.0000
  H   H135      1.0  0.04299  0.18367  0.32518  1.0000
  C   C119      1.0  0.01991  0.15554  0.46532  1.0000
  H   H136      1.0  0.17141  0.21455  0.44206  1.0000
  H   H137      1.0  0.01456  0.32909  0.38567  1.0000
  H   H138      1.0  0.16658  0.23688  0.42076  1.0000
  H   H139      1.0  0.00680  0.20016  0.52431  1.0000
  C   C120      1.0  0.01470  0.34585  0.34431  1.0000
  C   C121      1.0  0.02789  0.30250  0.35425  1.0000
  H   H140      1.0  0.22721  0.20607  0.44017  1.0000
  H   H141      1.0  0.20070  0.43298  0.33945  1.0000
  C   C122      1.0  0.16987  0.21477  0.42510  1.0000
  C   C123      1.0  0.14990  0.20690  0.35378  1.0000
  N   N9        1.0  0.01284  0.31706  0.35377  1.0000
  H   H142      1.0  0.01631  0.28155  0.54913  1.0000
  H   H143      1.0  0.13012  0.20507  0.39880  1.0000
  H   H144      1.0  0.24516  0.36996  0.53323  1.0000
  H   H145      1.0  0.23158  0.39355  0.33314  1.0000
  H   H146      1.0  0.23710  0.19416  0.46267  1.0000
  H   H147      1.0  0.04082  0.45956  0.62727  1.0000
  C   C124      1.0  0.00633  0.20811  0.50871  1.0000
  C   C125      1.0  0.01850  0.40042  0.32529  1.0000
  H   H148      1.0  0.23637  0.36044  0.58121  1.0000
  H   H149      1.0  0.02801  0.16738  0.45567  1.0000
  C   C126      1.0  0.24202  0.32809  0.54807  1.0000
  C   C127      1.0  0.02499  0.14003  0.48219  1.0000
  C   C128      1.0  0.01576  0.29203  0.49774  1.0000
  H   H150      1.0  0.23990  0.17332  0.41728  1.0000
  C   C129      1.0  0.01136  0.28413  0.53415  1.0000
  C   C130      1.0  0.25280  0.31074  0.58094  1.0000
  H   H151      1.0  0.24281  0.22179  0.40870  1.0000
  S   S30       1.0  0.05438  0.44371  0.32382  1.0000
  H   H152      1.0  0.25170  0.24714  0.42500  1.0000
  H   H153      1.0  0.20568  0.16909  0.32849  1.0000
  C   C131      1.0  0.13436  0.11550  0.34724  1.0000
  S   S31       1.0  0.06723  0.02443  0.32557  1.0000
  S   S32       1.0  0.20695  0.10768  0.32576  1.0000
  H   H154      1.0  0.24857  0.15763  0.43915  1.0000
  H   H155      1.0  0.06065  0.38360  0.32781  1.0000
  H   H156      1.0  0.17743  0.13472  0.32739  1.0000
  H   H157      1.0  0.00681  0.29505  0.32579  1.0000
  N   N10       1.0  0.25177  0.20345  0.43654  1.0000
  C   C132      1.0  0.16468  0.08528  0.34249  1.0000
  C   C133      1.0  0.25248  0.22465  0.41946  1.0000
  C   C134      1.0  0.14153  0.10585  0.32875  1.0000
  H   H158      1.0  0.09676  0.10904  0.33507  1.0000
  N   N11       1.0  0.15845  0.10502  0.32681  1.0000
  C   C135      1.0  0.10914  0.10835  0.33333  1.0000
  C   C136      1.0  0.25402  0.42706  0.32232  1.0000
  Fe  Fe17      1.0  0.04192  0.30235  0.79010  1.0000
  S   S33       1.0  0.03574  0.28837  0.82252  1.0000
  S   S34       1.0  0.02462  0.30506  0.76384  1.0000
  Fe  Fe18      1.0  0.07644  0.29814  0.79875  1.0000
  S   S35       1.0  0.07291  0.28449  0.83167  1.0000
  S   S36       1.0  0.09881  0.30144  0.78045  1.0000
  Fe  Fe19      1.0  0.05450  0.25533  0.82013  1.0000
  S   S37       1.0  0.05137  0.20739  0.82756  1.0000
  Fe  Fe20      1.0  0.05453  0.31858  0.83208  1.0000
  S   S38       1.0  0.05112  0.34522  0.86096  1.0000
  S   S39       1.0  0.05925  0.26684  0.78698  1.0000
  S   S40       1.0  0.05951  0.33462  0.79999  1.0000
  Fe  Fe21      1.0  0.18728  0.27238  0.81264  1.0000
  S   S41       1.0  0.19909  0.28808  0.84086  1.0000
  S   S42       1.0  0.16198  0.26461  0.82002  1.0000
  Fe  Fe22      1.0  0.21817  0.26362  0.78916  1.0000
  S   S43       1.0  0.23172  0.27881  0.81621  1.0000
  S   S44       1.0  0.22801  0.25246  0.75688  1.0000
  Fe  Fe23      1.0  0.21542  0.25178  0.83531  1.0000
  S   S45       1.0  0.22206  0.22748  0.86405  1.0000
  Fe  Fe24      1.0  0.21416  0.31411  0.81973  1.0000
  S   S46       1.0  0.22266  0.36019  0.82505  1.0000
  S   S47       1.0  0.20288  0.23429  0.80834  1.0000
  S   S48       1.0  0.20142  0.30081  0.79141  1.0000
  Fe  Fe25      1.0  0.04264  0.02596  0.93468  1.0000
  S   S49       1.0  0.03837  0.04516  0.90320  1.0000
  S   S50       1.0  0.02414  0.02391  0.96057  1.0000
  Fe  Fe26      1.0  0.07736  0.02085  0.92552  1.0000
  S   S51       1.0  0.07559  0.03906  0.89376  1.0000
  S   S52       1.0  0.09943  0.00266  0.93836  1.0000
  Fe  Fe27      1.0  0.05961  0.07197  0.90743  1.0000
  S   S53       1.0  0.06337  0.12046  0.90233  1.0000
  Fe  Fe28      1.0  0.05467  0.01102  0.89162  1.0000
  H   H159      1.0  0.16053  0.19362  0.80702  1.0000
  S   S54       1.0  0.06283  0.05530  0.93982  1.0000
  C   C137      1.0  0.02649  0.18312  0.88800  1.0000
  Fe  Fe29      1.0  0.18596  0.05454  0.92710  1.0000
  S   S55       1.0  0.19063  0.03841  0.89534  1.0000
  S   S56       1.0  0.16200  0.07297  0.93154  1.0000
  Fe  Fe30      1.0  0.21966  0.04681  0.93964  1.0000
  S   S57       1.0  0.22626  0.02930  0.90818  1.0000
  S   S58       1.0  0.23795  0.04775  0.96491  1.0000
  Fe  Fe31      1.0  0.21181  0.06562  0.89615  1.0000
  S   S59       1.0  0.21577  0.09154  0.86688  1.0000
  Fe  Fe32      1.0  0.20436  0.00342  0.90987  1.0000
  S   S60       1.0  0.20178  0.45339  0.89279  1.0000
  S   S61       1.0  0.20643  0.08431  0.92714  1.0000
  S   S62       1.0  0.19856  0.01835  0.94216  1.0000
  H   H160      1.0  0.25213  0.40116  0.89800  1.0000
  C   C138      1.0  0.11680  0.02221  0.93608  1.0000
  C   C139      1.0  0.11717  0.05010  0.92814  1.0000
  C   C140      1.0  0.13111  0.06527  0.92677  1.0000
  C   C141      1.0  0.14488  0.05250  0.93282  1.0000
  C   C142      1.0  0.14457  0.02442  0.94046  1.0000
  C   C143      1.0  0.13055  0.00946  0.94228  1.0000
  H   H161      1.0  0.10665  0.06024  0.92345  1.0000
  H   H162      1.0  0.13115  0.08713  0.92120  1.0000
  H   H163      1.0  0.15505  0.01462  0.94560  1.0000
  N   N12       1.0  0.01268  0.47839  0.68815  1.0000
  H   H164      1.0  0.03667  0.24218  0.92704  1.0000
  H   H165      1.0  0.24270  0.31938  0.86492  1.0000
  H   H166      1.0  0.24943  0.09404  0.68147  1.0000
  C   C144      1.0  0.25489  0.32355  0.74012  1.0000
  H   H167      1.0  0.16025  0.01047  0.88971  1.0000
  C   C145      1.0  0.20746  0.42847  0.87316  1.0000
  C   C146      1.0  0.19977  0.40192  0.87202  1.0000
  C   C147      1.0  0.20422  0.38088  0.85750  1.0000
  C   C148      1.0  0.21644  0.38609  0.84372  1.0000
  C   C149      1.0  0.22406  0.41270  0.84474  1.0000
  C   C150      1.0  0.21963  0.43373  0.85931  1.0000
  H   H168      1.0  0.19035  0.39750  0.88260  1.0000
  H   H169      1.0  0.19813  0.36071  0.85694  1.0000
  H   H170      1.0  0.23351  0.41712  0.83421  1.0000
  H   H171      1.0  0.22572  0.45390  0.85993  1.0000
  C   C151      1.0  0.22073  0.18962  0.86460  1.0000
  C   C152      1.0  0.22180  0.17500  0.88345  1.0000
  C   C153      1.0  0.22053  0.14491  0.88440  1.0000
  C   C154      1.0  0.21824  0.12920  0.86645  1.0000
  C   C155      1.0  0.21738  0.14382  0.84758  1.0000
  C   C156      1.0  0.21853  0.17390  0.84665  1.0000
  H   H172      1.0  0.22359  0.18698  0.89739  1.0000
  H   H173      1.0  0.22135  0.13388  0.89900  1.0000
  H   H174      1.0  0.21572  0.13183  0.83360  1.0000
  H   H175      1.0  0.21784  0.18485  0.83202  1.0000
  C   C157      1.0  0.05543  0.18339  0.84827  1.0000
  C   C158      1.0  0.05077  0.15456  0.84685  1.0000
  C   C159      1.0  0.05335  0.13484  0.86298  1.0000
  C   C160      1.0  0.06061  0.14372  0.88085  1.0000
  C   C161      1.0  0.06556  0.17242  0.88209  1.0000
  C   C162      1.0  0.06307  0.19208  0.86592  1.0000
  H   H176      1.0  0.04491  0.14744  0.83329  1.0000
  H   H177      1.0  0.04946  0.11289  0.86175  1.0000
  H   H178      1.0  0.07116  0.17957  0.89584  1.0000
  H   H179      1.0  0.06692  0.21394  0.86731  1.0000
  C   C163      1.0  0.05317  0.38305  0.86036  1.0000
  C   C164      1.0  0.05157  0.39863  0.87871  1.0000
  C   C165      1.0  0.05300  0.42874  0.87872  1.0000
  C   C166      1.0  0.05596  0.44353  0.86031  1.0000
  C   C167      1.0  0.05766  0.42792  0.84200  1.0000
  C   C168      1.0  0.05630  0.39785  0.84200  1.0000
  H   H180      1.0  0.04915  0.38740  0.89299  1.0000
  H   H181      1.0  0.05166  0.44047  0.89292  1.0000
  H   H182      1.0  0.05997  0.43919  0.82769  1.0000
  H   H183      1.0  0.05753  0.38619  0.82777  1.0000
  C   C169      1.0  0.11656  0.29353  0.79200  1.0000
  C   C170      1.0  0.13024  0.29568  0.78033  1.0000
  C   C171      1.0  0.14442  0.28816  0.78890  1.0000
  C   C172      1.0  0.14496  0.27796  0.80913  1.0000
  C   C173      1.0  0.13128  0.27603  0.82080  1.0000
  C   C174      1.0  0.11720  0.28412  0.81239  1.0000
  H   H184      1.0  0.12989  0.30300  0.76455  1.0000
  H   H185      1.0  0.15485  0.28952  0.77970  1.0000
  H   H186      1.0  0.13158  0.26809  0.83643  1.0000
  H   H187      1.0  0.10683  0.28289  0.82164  1.0000
  C   C175      1.0  0.04697  0.26460  0.87325  1.0000
  C   C176      1.0  0.23837  0.12430  0.75337  1.0000
  C   C177      1.0  0.21553  0.35605  0.90902  1.0000
  H   H188      1.0  0.23740  0.29616  0.91922  1.0000
  H   H189      1.0  0.20485  0.34513  0.91220  1.0000
  N   N13       1.0  0.22764  0.31260  0.89148  1.0000
  C   C178      1.0  0.02863  0.32541  0.69713  1.0000
  H   H190      1.0  0.14672  0.16626  0.83420  1.0000
  H   H191      1.0  0.01910  0.31134  0.69378  1.0000
  H   H192      1.0  0.02532  0.28565  0.91415  1.0000
  C   C179      1.0  0.24507  0.14354  0.73946  1.0000
  H   H193      1.0  0.20642  0.39498  0.92229  1.0000
  H   H194      1.0  0.25113  0.30323  0.89893  1.0000
  H   H195      1.0  0.24317  0.16638  0.74129  1.0000
  H   H196      1.0  0.10280  0.42722  0.87161  1.0000
  C   C180      1.0  0.24440  0.23422  0.74625  1.0000
  C   C181      1.0  0.02858  0.35349  0.68982  1.0000
  C   C182      1.0  0.01925  0.36154  0.75076  1.0000
  C   C183      1.0  0.23103  0.31162  0.86907  1.0000
  C   C184      1.0  0.02018  0.45293  0.69734  1.0000
  C   C185      1.0  0.03522  0.28557  0.90312  1.0000
  H   H197      1.0  0.24871  0.35393  0.71603  1.0000
  C   C186      1.0  0.02929  0.17633  0.90843  1.0000
  H   H198      1.0  0.22652  0.34713  0.73593  1.0000
  H   H199      1.0  0.01516  0.40444  0.73956  1.0000
  C   C187      1.0  0.22810  0.34268  0.89867  1.0000
  H   H200      1.0  0.08660  0.47569  0.89003  1.0000
  C   C188      1.0  0.12394  0.47205  0.87385  1.0000
  C   C189      1.0  0.03368  0.22658  0.91560  1.0000
  H   H201      1.0  0.23252  0.10981  0.97040  1.0000
  H   H202      1.0  0.02607  0.21527  0.86488  1.0000
  H   H203      1.0  0.12924  0.99357  0.87555  1.0000
  C   C190      1.0  0.03111  0.23419  0.89474  1.0000
  H   H204      1.0  0.22094  0.34361  0.76241  1.0000
  H   H205      1.0  0.02912  0.15410  0.91345  1.0000
  H   H206      1.0  0.23899  0.27248  0.89748  1.0000
  H   H207      1.0  0.03624  0.30768  0.89653  1.0000
  H   H208      1.0  0.16843  0.47172  0.88200  1.0000
  C   C191      1.0  0.21255  0.29842  0.89502  1.0000
  C   C192      1.0  0.24090  0.09498  0.75114  1.0000
  H   H209      1.0  0.02416  0.16606  0.87721  1.0000
  C   C193      1.0  0.10085  0.44638  0.86175  1.0000
  C   C194      1.0  0.01852  0.46942  0.96878  1.0000
  H   H210      1.0  0.02070  0.29542  0.86940  1.0000
  C   C195      1.0  0.24190  0.10352  0.98004  1.0000
  H   H211      1.0  0.24257  0.37734  0.77182  1.0000
  H   H212      1.0  0.12842  0.42907  0.86134  1.0000
  C   C196      1.0  0.22879  0.33495  0.75025  1.0000
  H   H213      1.0  0.10278  0.45988  0.90252  1.0000
  H   H214      1.0  0.01746  0.43307  0.68868  1.0000
  H   H215      1.0  0.15759  0.99899  0.86360  1.0000
  H   H216      1.0  0.25173  0.06184  0.73428  1.0000
  C   C197      1.0  0.15614  0.47187  0.87963  1.0000
  H   H217      1.0  0.01907  0.36107  0.68080  1.0000
  S   S63       1.0  0.05753  0.99022  0.92247  1.0000
  C   C198      1.0  0.21629  0.38473  0.91512  1.0000
  H   H218      1.0  0.23027  0.28938  0.86301  1.0000
  H   H219      1.0  0.08821  0.44786  0.85983  1.0000
  C   C199      1.0  0.01189  0.38217  0.73839  1.0000
  C   C200      1.0  0.13316  0.44815  0.86806  1.0000
  H   H220      1.0  0.04591  0.25008  0.85986  1.0000
  C   C201      1.0  0.24200  0.38836  0.90129  1.0000
  H   H221      1.0  0.04597  0.28207  0.91168  1.0000
  H   H222      1.0  0.01846  0.25993  0.86039  1.0000
  C   C202      1.0  0.24678  0.07495  0.98008  1.0000
  H   H223      1.0  0.04025  0.39394  0.68926  1.0000
  C   C203      1.0  0.03279  0.19801  0.92222  1.0000
  C   C204      1.0  0.22942  0.40090  0.91110  1.0000
  H   H224      1.0  0.22283  0.32517  0.86054  1.0000
  H   H225      1.0  0.03384  0.44866  0.66270  1.0000
  H   H226      1.0  0.05734  0.25810  0.88176  1.0000
  H   H227      1.0  0.23570  0.08012  0.76209  1.0000
  C   C205      1.0  0.01372  0.99661  0.97454  1.0000
  S   S64       1.0  0.05276  0.98661  0.86174  1.0000
  N   N14       1.0  0.06513  0.32510  0.72884  1.0000
  C   C206      1.0  0.06452  0.34264  0.74776  1.0000
  C   C207      1.0  0.06413  0.29452  0.73523  1.0000
  C   C208      1.0  0.08027  0.32936  0.71853  1.0000
  C   C209      1.0  0.05270  0.33416  0.71506  1.0000
  C   C210      1.0  0.05237  0.36257  0.70714  1.0000
  C   C211      1.0  0.04040  0.31579  0.70969  1.0000
  C   C212      1.0  0.04046  0.37201  0.69474  1.0000
  H   H228      1.0  0.05316  0.34031  0.75572  1.0000
  H   H229      1.0  0.07354  0.33613  0.75873  1.0000
  H   H230      1.0  0.06628  0.36583  0.74463  1.0000
  H   H231      1.0  0.05338  0.29009  0.74419  1.0000
  H   H232      1.0  0.07371  0.28840  0.74546  1.0000
  H   H233      1.0  0.06463  0.27997  0.72175  1.0000
  H   H234      1.0  0.08278  0.35227  0.71523  1.0000
  H   H235      1.0  0.08978  0.32165  0.72836  1.0000
  H   H236      1.0  0.08094  0.31750  0.70374  1.0000
  H   H237      1.0  0.06115  0.37791  0.71090  1.0000
  H   H238      1.0  0.13528  0.00389  0.90043  1.0000
  N   N15       1.0  0.16834  0.12845  0.88026  1.0000
  C   C213      1.0  0.17525  0.11350  0.86223  1.0000
  C   C214      1.0  0.17919  0.12707  0.89744  1.0000
  C   C215      1.0  0.15438  0.11214  0.88659  1.0000
  C   C216      1.0  0.16533  0.15887  0.87514  1.0000
  C   C217      1.0  0.15085  0.17211  0.87867  1.0000
  C   C218      1.0  0.17721  0.17648  0.86683  1.0000
  C   C219      1.0  0.14843  0.20087  0.87342  1.0000
  C   C220      1.0  0.17465  0.20511  0.86155  1.0000
  C   C221      1.0  0.16026  0.21724  0.86473  1.0000
  H   H239      1.0  0.18665  0.12225  0.85770  1.0000
  H   H240      1.0  0.17739  0.09041  0.86556  1.0000
  H   H241      1.0  0.16778  0.11501  0.84863  1.0000
  H   H242      1.0  0.18188  0.10451  0.90158  1.0000
  H   H243      1.0  0.17440  0.13750  0.91150  1.0000
  H   H244      1.0  0.19026  0.13766  0.89358  1.0000
  H   H245      1.0  0.15699  0.08910  0.88942  1.0000
  H   H246      1.0  0.14945  0.12013  0.90141  1.0000
  H   H247      1.0  0.14550  0.11292  0.87459  1.0000
  H   H248      1.0  0.14126  0.16078  0.88559  1.0000
  H   H249      1.0  0.18868  0.16834  0.86457  1.0000
  H   H250      1.0  0.13733  0.21064  0.87613  1.0000
  H   H251      1.0  0.18393  0.21805  0.85507  1.0000
  H   H252      1.0  0.15834  0.23948  0.86058  1.0000
  N   N16       1.0  0.09894  0.20053  0.81444  1.0000
  C   C222      1.0  0.09163  0.17174  0.81464  1.0000
  C   C223      1.0  0.09566  0.21470  0.83438  1.0000
  C   C224      1.0  0.09153  0.21769  0.79810  1.0000
  C   C225      1.0  0.11573  0.19783  0.81151  1.0000
  C   C226      1.0  0.12408  0.21277  0.79580  1.0000
  C   C227      1.0  0.12436  0.18083  0.82526  1.0000
  C   C228      1.0  0.14002  0.21074  0.79412  1.0000
  C   C229      1.0  0.14031  0.17896  0.82339  1.0000
  C   C230      1.0  0.14812  0.19411  0.80798  1.0000
  H   H253      1.0  0.07889  0.17322  0.81561  1.0000
  H   H254      1.0  0.09466  0.15963  0.80045  1.0000
  H   H255      1.0  0.09492  0.15852  0.82809  1.0000
  H   H256      1.0  0.10195  0.23539  0.83547  1.0000
  H   H257      1.0  0.09894  0.20121  0.84771  1.0000
  H   H258      1.0  0.08326  0.21944  0.83639  1.0000
  H   H259      1.0  0.09376  0.20845  0.78261  1.0000
  H   H260      1.0  0.07886  0.21832  0.80035  1.0000
  H   H261      1.0  0.09546  0.24041  0.79811  1.0000
  H   H262      1.0  0.11867  0.22699  0.78499  1.0000
  H   H263      1.0  0.11883  0.16935  0.83782  1.0000
  H   H264      1.0  0.14623  0.22316  0.78253  1.0000
  H   H265      1.0  0.15586  0.42979  0.86658  1.0000
  C   C231      1.0  0.24600  0.23173  0.72471  1.0000
  H   H266      1.0  0.01594  0.44879  0.71337  1.0000
  H   H267      1.0  0.02757  0.46310  0.95818  1.0000
  H   H268      1.0  0.20328  0.31001  0.88692  1.0000
  C   C232      1.0  0.25439  0.13358  0.72333  1.0000
  H   H269      1.0  0.22536  0.31228  0.74752  1.0000
  H   H270      1.0  0.07025  0.99062  0.96485  1.0000
  H   H271      1.0  0.25493  0.22415  0.77501  1.0000
  H   H272      1.0  0.23728  0.24069  0.71503  1.0000
  H   H273      1.0  0.22966  0.42342  0.91518  1.0000
  H   H274      1.0  0.03926  0.29419  0.71557  1.0000
  C   C233      1.0  0.23931  0.29543  0.90226  1.0000
  H   H275      1.0  0.00892  0.27045  0.88389  1.0000
  H   H276      1.0  0.23128  0.13219  0.76598  1.0000
  N   N17       1.0  0.03317  0.26379  0.88678  1.0000
  C   C234      1.0  0.14901  0.44822  0.87098  1.0000
  C   C235      1.0  0.02859  0.46720  0.65586  1.0000
  H   H277      1.0  0.24698  0.38043  0.74506  1.0000
  C   C236      1.0  0.02750  0.21151  0.88115  1.0000
  C   C237      1.0  0.24145  0.35964  0.89529  1.0000
  C   C238      1.0  0.01518  0.33255  0.74956  1.0000
  H   H278      1.0  0.02804  0.36810  0.76123  1.0000
  C   C239      1.0  0.01972  0.27265  0.87465  1.0000
  H   H279      1.0  0.04912  0.28647  0.86701  1.0000
  C   C240      1.0  0.01161  0.44884  0.98203  1.0000
  H   H280      1.0  0.21249  0.27606  0.88905  1.0000
  H   H281      1.0  0.10581  0.44260  0.84613  1.0000
  H   H282      1.0  0.25148  0.35096  0.88766  1.0000
  H   H283      1.0  0.20955  0.29685  0.91168  1.0000
  H   H284      1.0  0.04984  0.98654  0.96794  1.0000
  H   H285      1.0  0.03513  0.19246  0.93805  1.0000
  H   H286      1.0  0.03280  0.45573  0.69805  1.0000
  C   C241      1.0  0.25019  0.08475  0.73501  1.0000
  N   N18       1.0  0.10714  0.47281  0.87109  1.0000
  C   C242      1.0  0.16007  0.99143  0.87943  1.0000
  C   C243      1.0  0.24632  0.32259  0.77670  1.0000
  H   H287      1.0  0.06522  0.47496  0.97307  1.0000
  C   C244      1.0  0.09930  0.47662  0.89131  1.0000
  H   H288      1.0  0.23888  0.33306  0.78859  1.0000
  N   N19       1.0  0.24505  0.33672  0.75630  1.0000
  H   H289      1.0  0.01556  0.42689  0.98158  1.0000
  H   H290      1.0  0.24258  0.29982  0.77607  1.0000
  H   H291      1.0  0.07075  0.03455  0.98363  1.0000
  H   H292      1.0  0.05040  0.03324  0.98540  1.0000
  H   H293      1.0  0.13036  0.98797  0.94861  1.0000
  C   C245      1.0  0.24925  0.36731  0.75896  1.0000
  S   S65       1.0  0.05811  0.48129  0.85944  1.0000
  C   C246      1.0  0.25542  0.33534  0.71994  1.0000
  C   C247      1.0  0.13390  0.98509  0.89017  1.0000
  Fe  Fe33      1.0  0.07154  0.53907  0.29839  1.0000
  S   S66       1.0  0.09524  0.54651  0.28402  1.0000
  Fe  Fe34      1.0  0.03663  0.53917  0.29050  1.0000
  C   C248      1.0  0.24875  0.50636  0.09988  1.0000
  S   S67       1.0  0.01605  0.54332  0.26878  1.0000
  H   H294      1.0  0.07990  0.48835  0.00333  1.0000
  S   S68       1.0  0.05333  0.57328  0.30024  1.0000
  S   S69       1.0  0.05532  0.50625  0.28584  1.0000
  Fe  Fe35      1.0  0.21322  0.50976  0.29270  1.0000
  C   C249      1.0  0.01758  0.59277  0.24399  1.0000
  S   S70       1.0  0.04633  0.94702  0.31858  1.0000
  C   C250      1.0  0.04889  0.98308  0.00897  1.0000
  C   C251      1.0  0.25031  0.56056  0.24244  1.0000
  C   C252      1.0  0.02467  0.95918  0.03330  1.0000
  S   S71       1.0  0.19815  0.54910  0.29668  1.0000
  C   C253      1.0  0.00919  0.56855  0.25026  1.0000
  C   C254      1.0  0.11286  0.54109  0.29660  1.0000
  C   C255      1.0  0.12661  0.54163  0.28499  1.0000
  C   C256      1.0  0.14078  0.53604  0.29427  1.0000
  N   N20       1.0  0.24028  0.57662  0.25695  1.0000
  H   H295      1.0  0.15541  0.93561  0.30039  1.0000
  H   H296      1.0  0.07384  0.91422  0.30542  1.0000
  H   H297      1.0  0.12630  0.54595  0.26865  1.0000
  H   H298      1.0  0.15124  0.53594  0.28509  1.0000
  H   H299      1.0  0.02867  0.59678  0.25054  1.0000
  H   H300      1.0  0.24128  0.59731  0.03118  1.0000
  H   H301      1.0  0.08997  0.90259  0.29011  1.0000
  H   H302      1.0  0.09044  0.98323  0.29243  1.0000
  C   C257      1.0  0.08176  0.62940  0.30930  1.0000
  H   H303      1.0  0.09871  0.48521  0.31570  1.0000
  H   H304      1.0  0.23424  0.91444  0.24081  1.0000
  H   H305      1.0  0.25351  0.49133  0.27632  1.0000
  C   C258      1.0  0.24495  0.60720  0.25730  1.0000
  C   C259      1.0  0.25095  0.96992  0.25828  1.0000
  H   H306      1.0  0.07858  0.96421  0.00576  1.0000
  C   C260      1.0  0.11057  0.93954  0.30408  1.0000
  H   H307      1.0  0.22939  0.56929  0.04175  1.0000
  H   H308      1.0  0.21658  0.58783  0.26293  1.0000
  H   H309      1.0  0.01106  0.54553  0.18759  1.0000
  C   C261      1.0  0.14300  0.93617  0.30116  1.0000
  H   H310      1.0  0.01505  0.94991  0.04183  1.0000
  C   C262      1.0  0.24043  0.97865  0.22484  1.0000
  C   C263      1.0  0.24758  0.55583  0.07432  1.0000
  C   C264      1.0  0.07533  0.51046  0.00204  1.0000
  C   C265      1.0  0.08653  0.96061  0.29109  1.0000
  H   H311      1.0  0.24199  0.52421  0.05061  1.0000
  H   H312      1.0  0.24893  0.89501  0.21232  1.0000
  H   H313      1.0  0.14135  0.96681  0.27663  1.0000
  C   C266      1.0  0.24461  0.54542  0.22525  1.0000
  C   C267      1.0  0.25126  0.55768  0.09544  1.0000
  H   H314      1.0  0.03213  0.53032  0.01079  1.0000
  C   C268      1.0  0.11908  0.95564  0.28914  1.0000
  S   S72       1.0  0.22173  0.49293  0.26125  1.0000
  H   H315      1.0  0.10727  0.60293  0.30191  1.0000
  N   N21       1.0  0.09373  0.94176  0.30662  1.0000
  C   C269      1.0  0.22379  0.57561  0.25170  1.0000
  H   H316      1.0  0.07501  0.51994  0.01771  1.0000
  H   H317      1.0  0.08393  0.52262  0.99252  1.0000
  H   H318      1.0  0.03525  0.91857  0.02758  1.0000
  C   C270      1.0  0.02479  0.49277  0.02635  1.0000
  C   C271      1.0  0.11345  0.53573  0.31774  1.0000
  C   C272      1.0  0.24171  0.56447  0.27792  1.0000
  H   H319      1.0  0.21932  0.55322  0.25203  1.0000
  H   H320      1.0  0.04567  0.88559  0.32108  1.0000
  H   H321      1.0  0.22175  0.58506  0.23627  1.0000
  C   C273      1.0  0.25443  0.53018  0.21207  1.0000
  C   C274      1.0  0.01166  0.61182  0.22912  1.0000
  H   H322      1.0  0.25025  0.97168  0.27485  1.0000
  C   C275      1.0  0.04875  0.49551  0.00599  1.0000
  C   C276      1.0  0.14129  0.52987  0.31530  1.0000
  C   C277      1.0  0.01027  0.56217  0.17537  1.0000
  H   H323      1.0  0.24525  0.61389  0.08483  1.0000
  Fe  Fe36      1.0  0.05141  0.49250  0.31892  1.0000
  C   C278      1.0  0.03521  0.50842  0.01412  1.0000
  Fe  Fe37      1.0  0.18381  0.52214  0.31873  1.0000
  C   C279      1.0  0.24141  0.57715  0.04046  1.0000
  C   C280      1.0  0.04803  0.95321  0.01322  1.0000
  H   H324      1.0  0.01432  0.50275  0.03193  1.0000
  H   H325      1.0  0.05641  0.93853  0.00693  1.0000
  N   N22       1.0  0.24809  0.58172  0.06104  1.0000
  H   H326      1.0  0.08423  0.64965  0.30075  1.0000
  H   H327      1.0  0.05515  0.55375  0.00402  1.0000
  N   N23       1.0  0.05996  0.51119  0.99273  1.0000
  C   C281      1.0  0.25320  0.86278  0.26682  1.0000
  H   H328      1.0  0.23888  0.62472  0.06041  1.0000
  H   H329      1.0  0.07384  0.96104  0.29306  1.0000
  C   C282      1.0  0.24324  0.88547  0.26325  1.0000
  H   H330      1.0  0.11375  0.97045  0.27866  1.0000
  H   H331      1.0  0.24825  0.56173  0.03109  1.0000
  H   H332      1.0  0.08971  0.89832  0.31763  1.0000
  H   H333      1.0  0.25456  0.81471  0.20860  1.0000
  H   H334      1.0  0.08892  0.95309  0.27515  1.0000
  H   H335      1.0  0.25366  0.96280  0.19874  1.0000
  C   C283      1.0  0.25161  0.53333  0.10801  1.0000
  H   H336      1.0  0.02097  0.56130  0.16584  1.0000
  C   C284      1.0  0.03604  0.94153  0.02513  1.0000
  H   H337      1.0  0.22770  0.59917  0.07521  1.0000
  H   H338      1.0  0.25479  0.53524  0.12397  1.0000
  H   H339      1.0  0.08146  0.61189  0.29771  1.0000
  H   H340      1.0  0.11263  0.63936  0.30725  1.0000
  C   C285      1.0  0.13504  0.95377  0.28776  1.0000
  H   H341      1.0  0.25457  0.57778  0.10228  1.0000
  H   H342      1.0  0.01833  0.63038  0.22445  1.0000
  C   C286      1.0  0.11904  0.92151  0.31733  1.0000
  S   S73       1.0  0.22849  0.52162  0.31867  1.0000
  C   C287      1.0  0.10826  0.61912  0.31437  1.0000
  C   C288      1.0  0.25036  0.88485  0.22710  1.0000
  C   C289      1.0  0.08659  0.91297  0.30488  1.0000
  H   H343      1.0  0.23675  0.89491  0.27589  1.0000
  H   H344      1.0  0.23908  0.54112  0.27791  1.0000
  C   C290      1.0  0.24457  0.52796  0.06653  1.0000
  H   H345      1.0  0.01014  0.58312  0.18355  1.0000
  H   H346      1.0  0.23737  0.61999  0.26776  1.0000
  H   H347      1.0  0.23376  0.57500  0.28916  1.0000
  C   C291      1.0  0.24178  0.89636  0.24344  1.0000
  C   C292      1.0  0.13501  0.91984  0.31578  1.0000
  H   H348      1.0  0.25339  0.56709  0.28410  1.0000
  H   H349      1.0  0.24983  0.51812  0.19939  1.0000
  H   H350      1.0  0.23256  0.54425  0.22194  1.0000
  H   H351      1.0  0.06999  0.63053  0.31615  1.0000
  C   C293      1.0  0.23958  0.60576  0.07085  1.0000
  S   S74       1.0  0.19942  0.97722  0.30892  1.0000
  C   C294      1.0  0.24519  0.50369  0.07921  1.0000
  H   H352      1.0  0.24448  0.61690  0.24165  1.0000
  C   C295      1.0  0.25307  0.96478  0.21529  1.0000
  H   H353      1.0  0.24972  0.48741  0.10951  1.0000
  C   C296      1.0  0.23921  0.98135  0.24640  1.0000
  C   C297      1.0  0.05594  0.54177  0.98931  1.0000
  H   H354      1.0  0.25434  0.85448  0.28231  1.0000
  H   H355      1.0  0.10796  0.48443  0.27974  1.0000
  H   H356      1.0  0.25363  0.86943  0.55760  1.0000
  H   H357      1.0  0.15834  0.81715  0.38517  1.0000
  S   S75       1.0  0.04864  0.58377  0.36050  1.0000
  H   H358      1.0  0.23701  0.50419  0.39257  1.0000
  S   S76       1.0  0.19760  0.53448  0.34631  1.0000
  C   C298      1.0  0.24968  0.81881  0.47657  1.0000
  C   C299      1.0  0.17843  0.85819  0.39420  1.0000
  H   H359      1.0  0.14683  0.83836  0.36845  1.0000
  Fe  Fe38      1.0  0.04631  0.76767  0.42838  1.0000
  S   S77       1.0  0.03817  0.78377  0.39769  1.0000
  S   S78       1.0  0.03170  0.77109  0.45808  1.0000
  Fe  Fe39      1.0  0.07935  0.75987  0.41143  1.0000
  S   S79       1.0  0.07355  0.77533  0.37981  1.0000
  S   S80       1.0  0.10261  0.74086  0.41865  1.0000
  Fe  Fe40      1.0  0.05990  0.81002  0.39567  1.0000
  S   S81       1.0  0.06188  0.85886  0.39121  1.0000
  Fe  Fe41      1.0  0.05244  0.74784  0.38418  1.0000
  S   S82       1.0  0.04451  0.72014  0.35779  1.0000
  S   S83       1.0  0.06725  0.79608  0.42730  1.0000
  S   S84       1.0  0.05901  0.73011  0.41484  1.0000
  Fe  Fe42      1.0  0.18844  0.79205  0.42426  1.0000
  S   S85       1.0  0.19350  0.77708  0.39220  1.0000
  S   S86       1.0  0.16466  0.80961  0.43201  1.0000
  Fe  Fe43      1.0  0.22240  0.78776  0.43691  1.0000
  S   S87       1.0  0.22946  0.77157  0.40536  1.0000
  S   S88       1.0  0.24151  0.79136  0.46094  1.0000
  Fe  Fe44      1.0  0.21393  0.80629  0.39363  1.0000
  S   S89       1.0  0.22002  0.83386  0.36579  1.0000
  Fe  Fe45      1.0  0.20838  0.74340  0.40653  1.0000
  S   S90       1.0  0.20429  0.69581  0.39861  1.0000
  S   S91       1.0  0.20801  0.82379  0.42478  1.0000
  S   S92       1.0  0.20223  0.75710  0.43909  1.0000
  C   C300      1.0  0.11979  0.76087  0.42056  1.0000
  C   C301      1.0  0.13385  0.74626  0.42024  1.0000
  C   C302      1.0  0.14773  0.76105  0.42305  1.0000
  C   C303      1.0  0.14763  0.79056  0.42666  1.0000
  C   C304      1.0  0.13358  0.80526  0.42678  1.0000
  C   C305      1.0  0.11972  0.79055  0.42353  1.0000
  H   H360      1.0  0.13402  0.72330  0.41799  1.0000
  H   H361      1.0  0.15845  0.74947  0.42295  1.0000
  H   H362      1.0  0.13338  0.82805  0.42971  1.0000
  H   H363      1.0  0.10896  0.80199  0.42400  1.0000
  C   C306      1.0  0.21726  0.62965  0.34818  1.0000
  C   C307      1.0  0.22584  0.65508  0.35013  1.0000
  C   C308      1.0  0.22178  0.67607  0.36490  1.0000
  C   C309      1.0  0.20912  0.67181  0.37810  1.0000
  C   C310      1.0  0.20043  0.64654  0.37592  1.0000
  C   C311      1.0  0.20438  0.62573  0.36102  1.0000
  H   H364      1.0  0.01907  0.82996  0.42578  1.0000
  H   H365      1.0  0.22866  0.69522  0.36640  1.0000
  H   H366      1.0  0.19059  0.64296  0.38597  1.0000
  H   H367      1.0  0.19752  0.60654  0.35963  1.0000
  C   C312      1.0  0.21842  0.93230  0.36394  1.0000
  C   C313      1.0  0.21802  0.91772  0.38289  1.0000
  C   C314      1.0  0.21826  0.88759  0.38368  1.0000
  C   C315      1.0  0.21928  0.87175  0.36552  1.0000
  C   C316      1.0  0.21973  0.88631  0.34657  1.0000
  C   C317      1.0  0.21912  0.91646  0.34575  1.0000
  H   H368      1.0  0.21738  0.92986  0.39701  1.0000
  H   H369      1.0  0.21755  0.87671  0.39833  1.0000
  C   C318      1.0  0.23059  0.81059  0.52211  1.0000
  C   C319      1.0  0.22994  0.57246  0.41075  1.0000
  C   C320      1.0  0.05099  0.92299  0.33897  1.0000
  C   C321      1.0  0.04957  0.89327  0.33575  1.0000
  C   C322      1.0  0.05304  0.87331  0.35138  1.0000
  C   C323      1.0  0.05785  0.88283  0.37056  1.0000
  C   C324      1.0  0.05943  0.91255  0.37371  1.0000
  C   C325      1.0  0.05604  0.93252  0.35805  1.0000
  H   H370      1.0  0.03722  0.91339  0.43805  1.0000
  H   H371      1.0  0.05177  0.85057  0.34866  1.0000
  H   H372      1.0  0.06316  0.92022  0.38845  1.0000
  H   H373      1.0  0.05714  0.95526  0.36084  1.0000
  C   C326      1.0  0.04773  0.62165  0.35919  1.0000
  C   C327      1.0  0.04321  0.63603  0.34139  1.0000
  C   C328      1.0  0.04224  0.66619  0.34117  1.0000
  C   C329      1.0  0.04592  0.68223  0.35865  1.0000
  C   C330      1.0  0.05066  0.66781  0.37631  1.0000
  C   C331      1.0  0.05147  0.63769  0.37659  1.0000
  C   C332      1.0  0.23326  0.62281  0.43467  1.0000
  H   H374      1.0  0.07809  0.60027  0.34529  1.0000
  H   H375      1.0  0.05356  0.67978  0.38983  1.0000
  H   H376      1.0  0.05497  0.62675  0.39043  1.0000
  H   H377      1.0  0.18824  0.85340  0.35554  1.0000
  H   H378      1.0  0.21953  0.92748  0.33108  1.0000
  H   H379      1.0  0.09774  0.59001  0.34718  1.0000
  H   H380      1.0  0.17019  0.84444  0.34443  1.0000
  H   H381      1.0  0.18918  0.87029  0.39127  1.0000
  C   C333      1.0  0.17685  0.84356  0.35881  1.0000
  H   H382      1.0  0.01428  0.79524  0.64495  1.0000
  H   H383      1.0  0.04935  0.88768  0.42549  1.0000
  C   C334      1.0  0.02098  0.74493  0.47257  1.0000
  H   H384      1.0  0.21156  0.59672  0.39665  1.0000
  C   C335      1.0  0.08608  0.69286  0.35553  1.0000
  H   H385      1.0  0.12786  0.52522  0.34326  1.0000
  C   C336      1.0  0.10624  0.64654  0.35542  1.0000
  C   C337      1.0  0.22037  0.59666  0.40805  1.0000
  C   C338      1.0  0.10768  0.66840  0.36992  1.0000
  C   C339      1.0  0.24834  0.81065  0.55096  1.0000
  H   H386      1.0  0.24540  0.88837  0.49177  1.0000
  H   H387      1.0  0.01109  0.67411  0.47408  1.0000
  C   C340      1.0  0.01814  0.92274  0.38211  1.0000
  C   C341      1.0  0.09473  0.64742  0.34030  1.0000
  S   S93       1.0  0.22328  0.60320  0.32989  1.0000
  C   C342      1.0  0.09763  0.69153  0.36994  1.0000
  H   H388      1.0  0.22051  0.87424  0.33243  1.0000
  H   H389      1.0  0.21078  0.51540  0.39081  1.0000
  H   H390      1.0  0.23899  0.85575  0.57526  1.0000
  H   H391      1.0  0.15565  0.96763  0.35625  1.0000
  H   H392      1.0  0.22294  0.82208  0.51205  1.0000
  H   H393      1.0  0.03915  0.83734  0.42055  1.0000
  C   C343      1.0  0.02089  0.91340  0.40216  1.0000
  C   C344      1.0  0.24123  0.57448  0.42618  1.0000
  H   H394      1.0  0.23779  0.84113  0.40619  1.0000
  C   C345      1.0  0.24403  0.76720  0.53061  1.0000
  H   H395      1.0  0.03168  0.83699  0.44625  1.0000
  C   C346      1.0  0.23879  0.52316  0.40262  1.0000
  H   H396      1.0  0.21471  0.63983  0.41722  1.0000
  H   H397      1.0  0.09868  0.70834  0.38127  1.0000
  C   C347      1.0  0.01228  0.88099  0.44154  1.0000
  H   H398      1.0  0.22251  0.57074  0.37009  1.0000
  H   H399      1.0  0.22852  0.77115  0.50543  1.0000
  H   H400      1.0  0.24668  0.74498  0.52734  1.0000
  H   H401      1.0  0.14880  0.84744  0.39541  1.0000
  Fe  Fe46      1.0  0.04929  0.55586  0.33211  1.0000
  H   H402      1.0  0.23350  0.85191  0.46935  1.0000
  H   H403      1.0  0.11654  0.66738  0.38135  1.0000
  C   C348      1.0  0.22206  0.62143  0.41979  1.0000
  C   C349      1.0  0.24278  0.59936  0.43792  1.0000
  N   N24       1.0  0.16848  0.85773  0.37605  1.0000
  C   C350      1.0  0.01151  0.69633  0.47871  1.0000
  C   C351      1.0  0.23373  0.78183  0.51833  1.0000
  H   H404      1.0  0.13483  0.93567  0.36871  1.0000
  C   C352      1.0  0.24354  0.84647  0.47798  1.0000
  H   H405      1.0  0.11411  0.62877  0.35630  1.0000
  H   H406      1.0  0.18179  0.83618  0.39882  1.0000
  H   H407      1.0  0.17250  0.86808  0.40771  1.0000
  H   H408      1.0  0.20359  0.55075  0.39404  1.0000
  C   C353      1.0  0.01801  0.87380  0.37048  1.0000
  C   C354      1.0  0.15494  0.83959  0.38138  1.0000
  C   C355      1.0  0.02902  0.84339  0.43018  1.0000
  C   C356      1.0  0.01261  0.75368  0.49019  1.0000
  C   C357      1.0  0.17300  0.93523  0.35829  1.0000
  H   H409      1.0  0.13995  0.88603  0.37776  1.0000
  N   N25       1.0  0.08036  0.73986  0.48127  1.0000
  C   C358      1.0  0.06679  0.75796  0.48614  1.0000
  C   C359      1.0  0.07753  0.72568  0.46138  1.0000
  C   C360      1.0  0.08136  0.71759  0.49753  1.0000
  C   C361      1.0  0.09494  0.75613  0.47981  1.0000
  C   C362      1.0  0.10886  0.74180  0.47489  1.0000
  C   C363      1.0  0.09581  0.78630  0.48275  1.0000
  C   C364      1.0  0.12273  0.75667  0.47299  1.0000
  C   C365      1.0  0.10978  0.80095  0.48080  1.0000
  C   C366      1.0  0.12319  0.78617  0.47592  1.0000
  H   H410      1.0  0.06493  0.77444  0.47399  1.0000
  H   H411      1.0  0.05600  0.74510  0.48696  1.0000
  H   H412      1.0  0.06782  0.76873  0.50127  1.0000
  H   H413      1.0  0.07789  0.74171  0.44871  1.0000
  H   H414      1.0  0.06616  0.71479  0.46117  1.0000
  H   H415      1.0  0.08627  0.70923  0.45739  1.0000
  H   H416      1.0  0.08403  0.72737  0.51262  1.0000
  H   H417      1.0  0.07040  0.70548  0.49939  1.0000
  H   H418      1.0  0.09037  0.70147  0.49402  1.0000
  H   H419      1.0  0.10908  0.71907  0.47184  1.0000
  H   H420      1.0  0.08585  0.79915  0.48624  1.0000
  H   H421      1.0  0.13313  0.74542  0.46852  1.0000
  H   H422      1.0  0.11019  0.82400  0.48272  1.0000
  H   H423      1.0  0.13394  0.79765  0.47388  1.0000
  Fe  Fe47      1.0  0.21204  0.49623  0.33850  1.0000
  C   C367      1.0  0.03930  0.89010  0.43615  1.0000
  C   C368      1.0  0.17624  0.90678  0.36337  1.0000
  C   C369      1.0  0.16459  0.88758  0.37034  1.0000
  C   C370      1.0  0.14950  0.89880  0.37222  1.0000
  C   C371      1.0  0.08890  0.59718  0.33624  1.0000
  H   H424      1.0  0.07809  0.71064  0.35586  1.0000
  C   C372      1.0  0.21231  0.53550  0.39978  1.0000
  C   C373      1.0  0.08454  0.67118  0.34094  1.0000
  H   H425      1.0  0.01401  0.87380  0.45769  1.0000
  H   H426      1.0  0.17930  0.82063  0.36227  1.0000
  H   H427      1.0  0.09299  0.93863  0.33986  1.0000
  H   H428      1.0  0.01034  0.53135  0.62721  1.0000
  H   H429      1.0  0.24138  0.84041  0.43331  1.0000
  H   H430      1.0  0.18805  0.90011  0.36209  1.0000
  H   H431      1.0  0.23580  0.65850  0.34030  1.0000
  S   S94       1.0  0.06860  0.52397  0.33085  1.0000
  C   C374      1.0  0.24418  0.85183  0.41867  1.0000
  N   N26       1.0  0.22814  0.54689  0.39759  1.0000
  C   C375      1.0  0.14638  0.92739  0.36714  1.0000
  H   H432      1.0  0.01724  0.85854  0.35802  1.0000
  N   N27       1.0  0.09337  0.62387  0.32524  1.0000
  H   H433      1.0  0.20939  0.53056  0.41614  1.0000
  H   H434      1.0  0.25148  0.60056  0.44956  1.0000
  C   C376      1.0  0.23783  0.82499  0.53804  1.0000
  H   H435      1.0  0.23044  0.53612  0.36544  1.0000
  H   H436      1.0  0.23536  0.84756  0.53945  1.0000
  C   C377      1.0  0.02267  0.88383  0.40690  1.0000
  H   H437      1.0  0.24904  0.55724  0.42946  1.0000
  H   H438      1.0  0.23957  0.87390  0.42009  1.0000
  C   C378      1.0  0.25027  0.86711  0.49089  1.0000
  H   H439      1.0  0.18216  0.94952  0.35313  1.0000
  H   H440      1.0  0.02177  0.92958  0.41388  1.0000
  H   H441      1.0  0.01734  0.94545  0.37867  1.0000
  H   H442      1.0  0.02668  0.70885  0.45344  1.0000
  C   C379      1.0  0.02041  0.71604  0.46695  1.0000
  H   H443      1.0  0.04276  0.88186  0.45146  1.0000
  N   N28       1.0  0.02578  0.87454  0.42824  1.0000
  S   S95       1.0  0.21841  0.97017  0.36375  1.0000
  H   H444      1.0  0.09621  0.97409  0.32975  1.0000
  H   H445      1.0  0.23699  0.51547  0.41871  1.0000
  C   C380      1.0  0.15809  0.94549  0.36013  1.0000
  H   H446      1.0  0.24251  0.56510  0.37359  1.0000
  H   H447      1.0  0.23456  0.64217  0.44364  1.0000
  C   C381      1.0  0.23103  0.55504  0.37578  1.0000
  H   H448      1.0  0.25096  0.52970  0.40028  1.0000
  C   C382      1.0  0.25141  0.85524  0.57120  1.0000
  H   H449      1.0  0.01505  0.91034  0.35065  1.0000
  C   C383      1.0  0.25126  0.78131  0.54668  1.0000
  H   H450      1.0  0.11722  0.61071  0.32468  1.0000
  C   C384      1.0  0.02096  0.86422  0.39042  1.0000
  C   C385      1.0  0.01569  0.51378  0.63536  1.0000
  S   S96       1.0  0.15839  0.51969  0.32761  1.0000
  H   H451      1.0  0.01294  0.77592  0.49477  1.0000
  H   H452      1.0  0.11335  0.90891  0.32919  1.0000
  H   H453      1.0  0.07757  0.95816  0.32910  1.0000
  H   H454      1.0  0.02227  0.84140  0.39234  1.0000
  H   H455      1.0  0.24313  0.80589  0.59152  1.0000
  C   C386      1.0  0.01676  0.90299  0.36629  1.0000
  H   H456      1.0  0.00974  0.90432  0.44199  1.0000
  H   H457      1.0  0.03852  0.67715  0.32746  1.0000
  H   H458      1.0  0.08700  0.57925  0.32537  1.0000
  C   C387      1.0  0.12757  0.52998  0.32697  1.0000
  H   H459      1.0  0.14129  0.90615  0.32612  1.0000
  C   C388      1.0  0.09001  0.95360  0.32723  1.0000
  Fe  Fe48      1.0  0.21258  0.55910  0.32421  1.0000
  H   H460      1.0  0.04012  0.62392  0.32796  1.0000
  H   H461      1.0  0.07511  0.67343  0.33059  1.0000
  H   H462      1.0  0.02922  0.50061  0.60916  1.0000
  S   S97       1.0  0.03159  0.52318  0.32295  1.0000
  H   H463      1.0  0.10304  0.53547  0.32695  1.0000
  C   C389      1.0  0.02623  0.49635  0.62514  1.0000
  C   C390      1.0  0.25535  0.80944  0.58710  1.0000
  Fe  Fe49      1.0  0.05180  0.81304  0.78725  1.0000
  S   S98       1.0  0.03753  0.79565  0.81372  1.0000
  S   S99       1.0  0.04340  0.83392  0.75711  1.0000
  Fe  Fe50      1.0  0.08209  0.80588  0.81185  1.0000
  S   S100      1.0  0.06941  0.78848  0.83968  1.0000
  S   S101      1.0  0.10677  0.82052  0.81677  1.0000
  Fe  Fe51      1.0  0.05605  0.76201  0.81751  1.0000
  S   S102      1.0  0.05062  0.71386  0.82132  1.0000
  Fe  Fe52      1.0  0.05233  0.82335  0.83357  1.0000
  S   S103      1.0  0.04350  0.85136  0.85966  1.0000
  S   S104      1.0  0.06962  0.77776  0.78947  1.0000
  S   S105      1.0  0.06562  0.84227  0.80723  1.0000
  Fe  Fe53      1.0  0.19253  0.77318  0.80639  1.0000
  S   S106      1.0  0.19644  0.78720  0.83888  1.0000
  S   S107      1.0  0.16991  0.75995  0.79257  1.0000
  Fe  Fe54      1.0  0.22671  0.77206  0.79457  1.0000
  S   S108      1.0  0.23327  0.78627  0.82633  1.0000
  S   S109      1.0  0.24455  0.76864  0.76814  1.0000
  Fe  Fe55      1.0  0.21556  0.75481  0.83795  1.0000
  S   S110      1.0  0.21901  0.72844  0.86686  1.0000
  Fe  Fe56      1.0  0.21382  0.81798  0.82527  1.0000
  S   S111      1.0  0.21900  0.86461  0.83443  1.0000
  S   S112      1.0  0.21039  0.73829  0.80653  1.0000
  S   S113      1.0  0.20850  0.80620  0.79251  1.0000
  Fe  Fe57      1.0  0.04135  0.52757  0.92832  1.0000
  S   S114      1.0  0.03838  0.54268  0.89542  1.0000
  S   S115      1.0  0.02158  0.52491  0.95243  1.0000
  Fe  Fe58      1.0  0.07649  0.52678  0.92318  1.0000
  S   S116      1.0  0.07609  0.54146  0.89041  1.0000
  S   S117      1.0  0.09787  0.51264  0.93983  1.0000
  Fe  Fe59      1.0  0.05808  0.57327  0.90044  1.0000
  S   S118      1.0  0.06075  0.62182  0.89412  1.0000
  Fe  Fe60      1.0  0.05667  0.50993  0.88760  1.0000
  H   H464      1.0  0.06240  0.95832  0.97545  1.0000
  S   S119      1.0  0.05985  0.56032  0.93391  1.0000
  H   H465      1.0  0.21475  0.83338  0.92296  1.0000
  Fe  Fe61      1.0  0.18640  0.55041  0.91764  1.0000
  S   S120      1.0  0.19310  0.53571  0.88597  1.0000
  S   S121      1.0  0.16266  0.57038  0.91982  1.0000
  Fe  Fe62      1.0  0.21948  0.54374  0.93365  1.0000
  S   S122      1.0  0.22791  0.52744  0.90273  1.0000
  S   S123      1.0  0.23761  0.54643  0.95918  1.0000
  Fe  Fe63      1.0  0.21384  0.56354  0.88983  1.0000
  S   S124      1.0  0.22241  0.59228  0.86375  1.0000
  Fe  Fe64      1.0  0.20635  0.50067  0.90150  1.0000
  S   S125      1.0  0.19798  0.95656  0.90251  1.0000
  S   S126      1.0  0.20639  0.58081  0.92044  1.0000
  S   S127      1.0  0.19867  0.51432  0.93353  1.0000
  C   C391      1.0  0.24387  0.60390  0.91520  1.0000
  C   C392      1.0  0.11588  0.52801  0.93320  1.0000
  C   C393      1.0  0.11694  0.55415  0.92268  1.0000
  C   C394      1.0  0.13137  0.56666  0.91860  1.0000
  C   C395      1.0  0.14489  0.55287  0.92453  1.0000
  C   C396      1.0  0.14387  0.52626  0.93448  1.0000
  C   C397      1.0  0.12940  0.51403  0.93895  1.0000
  H   H466      1.0  0.10662  0.56522  0.91826  1.0000
  H   H467      1.0  0.13202  0.58733  0.91104  1.0000
  H   H468      1.0  0.15419  0.51547  0.93917  1.0000
  H   H469      1.0  0.01066  0.84556  0.65558  1.0000
  H   H470      1.0  0.23687  0.59443  0.90286  1.0000
  H   H471      1.0  0.01561  0.91829  0.82652  1.0000
  C   C398      1.0  0.24528  0.82098  0.87302  1.0000
  H   H472      1.0  0.17555  0.60885  0.83986  1.0000
  H   H473      1.0  0.02033  0.90020  0.77337  1.0000
  C   C399      1.0  0.20372  0.93171  0.88302  1.0000
  C   C400      1.0  0.19701  0.90419  0.88299  1.0000
  C   C401      1.0  0.20124  0.88359  0.86808  1.0000
  C   C402      1.0  0.21247  0.89006  0.85311  1.0000
  C   C403      1.0  0.21910  0.91763  0.85307  1.0000
  C   C404      1.0  0.21472  0.93837  0.86782  1.0000
  H   H474      1.0  0.18851  0.89870  0.89467  1.0000
  H   H475      1.0  0.19583  0.86274  0.86826  1.0000
  H   H476      1.0  0.22775  0.92300  0.84156  1.0000
  H   H477      1.0  0.21999  0.95937  0.86754  1.0000
  C   C405      1.0  0.21994  0.69064  0.86567  1.0000
  C   C406      1.0  0.21765  0.67452  0.88376  1.0000
  C   C407      1.0  0.21820  0.64439  0.88335  1.0000
  C   C408      1.0  0.22144  0.63012  0.86493  1.0000
  C   C409      1.0  0.22385  0.64626  0.84688  1.0000
  C   C410      1.0  0.22295  0.67638  0.84718  1.0000
  H   H478      1.0  0.21522  0.68539  0.89811  1.0000
  H   H479      1.0  0.21605  0.63231  0.89730  1.0000
  H   H480      1.0  0.22633  0.63540  0.83253  1.0000
  H   H481      1.0  0.22480  0.68856  0.83316  1.0000
  C   C411      1.0  0.05376  0.68859  0.84171  1.0000
  C   C412      1.0  0.04970  0.65959  0.83890  1.0000
  C   C413      1.0  0.05181  0.63885  0.85457  1.0000
  C   C414      1.0  0.05797  0.64680  0.87344  1.0000
  C   C415      1.0  0.06205  0.67578  0.87623  1.0000
  C   C416      1.0  0.06000  0.69649  0.86053  1.0000
  H   H482      1.0  0.04485  0.65312  0.82448  1.0000
  H   H483      1.0  0.04857  0.61678  0.85209  1.0000
  H   H484      1.0  0.06679  0.68231  0.89071  1.0000
  H   H485      1.0  0.06316  0.71859  0.86306  1.0000
  C   C417      1.0  0.04649  0.88892  0.86014  1.0000
  C   C418      1.0  0.04355  0.90396  0.87843  1.0000
  C   C419      1.0  0.04564  0.93386  0.87927  1.0000
  C   C420      1.0  0.05033  0.94903  0.86165  1.0000
  C   C421      1.0  0.05317  0.93402  0.84334  1.0000
  C   C422      1.0  0.05148  0.90409  0.84265  1.0000
  H   H486      1.0  0.03962  0.89247  0.89203  1.0000
  H   H487      1.0  0.04331  0.94523  0.89343  1.0000
  H   H488      1.0  0.05686  0.94563  0.82967  1.0000
  H   H489      1.0  0.05404  0.89291  0.82854  1.0000
  C   C423      1.0  0.12403  0.80230  0.81053  1.0000
  C   C424      1.0  0.13789  0.81346  0.81775  1.0000
  C   C425      1.0  0.15198  0.80046  0.81263  1.0000
  C   C426      1.0  0.15236  0.77627  0.80004  1.0000
  C   C427      1.0  0.13850  0.76488  0.79300  1.0000
  C   C428      1.0  0.12438  0.77775  0.79829  1.0000
  H   H490      1.0  0.13772  0.83237  0.82727  1.0000
  H   H491      1.0  0.16255  0.80942  0.81816  1.0000
  H   H492      1.0  0.13867  0.74611  0.78330  1.0000
  H   H493      1.0  0.11379  0.76896  0.79263  1.0000
  H   H494      1.0  0.13671  0.69870  0.83948  1.0000
  H   H495      1.0  0.23276  0.60898  0.96388  1.0000
  C   C429      1.0  0.02573  0.84496  0.74587  1.0000
  C   C430      1.0  0.00887  0.94685  0.98464  1.0000
  H   H496      1.0  0.03721  0.86789  0.72119  1.0000
  C   C431      1.0  0.23116  0.84884  0.89966  1.0000
  H   H497      1.0  0.05186  0.79503  0.71970  1.0000
  H   H498      1.0  0.15847  0.73103  0.83146  1.0000
  H   H499      1.0  0.03337  0.86230  0.81831  1.0000
  C   C432      1.0  0.25188  0.74125  0.75154  1.0000
  C   C433      1.0  0.01354  0.49791  0.96906  1.0000
  H   H500      1.0  0.03311  0.89376  0.80277  1.0000
  H   H501      1.0  0.22032  0.78926  0.87357  1.0000
  H   H502      1.0  0.21990  0.66771  0.69452  1.0000
  H   H503      1.0  0.18641  0.64657  0.88777  1.0000
  C   C434      1.0  0.01550  0.80525  0.68593  1.0000
  N   N29       1.0  0.14863  0.96980  0.88663  1.0000
  C   C435      1.0  0.14747  0.49562  0.88538  1.0000
  N   N30       1.0  0.01073  0.87795  0.81207  1.0000
  H   H504      1.0  0.18243  0.59100  0.86248  1.0000
  C   C436      1.0  0.17564  0.63399  0.88879  1.0000
  C   C437      1.0  0.02698  0.87324  0.80594  1.0000
  H   H505      1.0  0.04954  0.49680  0.96501  1.0000
  H   H506      1.0  0.14068  0.65283  0.85624  1.0000
  N   N31       1.0  0.09184  0.86624  0.87477  1.0000
  C   C438      1.0  0.10700  0.85276  0.87784  1.0000
  C   C439      1.0  0.08026  0.85132  0.88798  1.0000
  C   C440      1.0  0.08769  0.86126  0.85307  1.0000
  C   C441      1.0  0.09238  0.89697  0.88035  1.0000
  C   C442      1.0  0.09630  0.90528  0.90057  1.0000
  C   C443      1.0  0.08854  0.91933  0.86643  1.0000
  C   C444      1.0  0.09608  0.93405  0.90656  1.0000
  C   C445      1.0  0.08835  0.94800  0.87260  1.0000
  C   C446      1.0  0.09198  0.95532  0.89264  1.0000
  H   H507      1.0  0.11044  0.85287  0.89417  1.0000
  H   H508      1.0  0.10704  0.82987  0.87290  1.0000
  H   H509      1.0  0.11607  0.86391  0.86858  1.0000
  H   H510      1.0  0.07852  0.82865  0.88318  1.0000
  H   H511      1.0  0.06891  0.86207  0.88709  1.0000
  H   H512      1.0  0.08344  0.85081  0.90441  1.0000
  H   H513      1.0  0.07603  0.86920  0.84980  1.0000
  H   H514      1.0  0.09605  0.87121  0.84205  1.0000
  H   H515      1.0  0.08748  0.83803  0.84940  1.0000
  H   H516      1.0  0.09913  0.88946  0.91205  1.0000
  H   H517      1.0  0.08513  0.91523  0.85085  1.0000
  H   H518      1.0  0.14599  0.88386  0.83131  1.0000
  H   H519      1.0  0.08475  0.96460  0.86199  1.0000
  H   H520      1.0  0.23868  0.70648  0.76458  1.0000
  N   N32       1.0  0.19882  0.73528  0.73967  1.0000
  C   C447      1.0  0.19912  0.71511  0.75735  1.0000
  C   C448      1.0  0.20153  0.76452  0.74779  1.0000
  C   C449      1.0  0.18326  0.73494  0.73093  1.0000
  C   C450      1.0  0.21027  0.72636  0.72387  1.0000
  C   C451      1.0  0.20945  0.69864  0.71500  1.0000
  C   C452      1.0  0.22258  0.74429  0.71710  1.0000
  C   C453      1.0  0.22047  0.68924  0.70068  1.0000
  C   C454      1.0  0.23339  0.73479  0.70255  1.0000
  C   C455      1.0  0.23245  0.70724  0.69454  1.0000
  H   H521      1.0  0.21080  0.71401  0.76385  1.0000
  H   H522      1.0  0.19104  0.72178  0.76991  1.0000
  H   H523      1.0  0.19573  0.69300  0.75314  1.0000
  H   H524      1.0  0.21285  0.76604  0.75531  1.0000
  H   H525      1.0  0.19275  0.77056  0.75964  1.0000
  H   H526      1.0  0.20099  0.78109  0.73547  1.0000
  H   H527      1.0  0.17971  0.71315  0.72613  1.0000
  H   H528      1.0  0.17445  0.74233  0.74239  1.0000
  H   H529      1.0  0.18266  0.74929  0.71725  1.0000
  H   H530      1.0  0.20043  0.68382  0.71935  1.0000
  H   H531      1.0  0.22444  0.76547  0.72322  1.0000
  H   H532      1.0  0.21059  0.87984  0.93929  1.0000
  H   H533      1.0  0.09055  0.49796  0.85468  1.0000
  H   H534      1.0  0.24065  0.59280  0.92981  1.0000
  H   H535      1.0  0.10916  0.49585  0.84243  1.0000
  C   C456      1.0  0.04189  0.79729  0.71013  1.0000
  H   H536      1.0  0.18477  0.71699  0.84071  1.0000
  C   C457      1.0  0.22103  0.85160  0.91688  1.0000
  C   C458      1.0  0.24709  0.71265  0.75300  1.0000
  H   H537      1.0  0.02838  0.50890  0.70074  1.0000
  H   H538      1.0  0.24167  0.83481  0.85995  1.0000
  C   C459      1.0  0.24219  0.60263  0.97339  1.0000
  C   C460      1.0  0.22601  0.90254  0.91897  1.0000
  H   H539      1.0  0.17850  0.61347  0.89664  1.0000
  C   C461      1.0  0.16038  0.90938  0.85052  1.0000
  C   C462      1.0  0.14822  0.69226  0.84346  1.0000
  H   H540      1.0  0.01154  0.83863  0.82978  1.0000
  H   H541      1.0  0.00953  0.52280  0.69674  1.0000
  H   H542      1.0  0.24955  0.66982  0.74085  1.0000
  H   H543      1.0  0.10598  0.51831  0.86447  1.0000
  H   H544      1.0  0.24101  0.77798  0.89822  1.0000
  H   H545      1.0  0.01701  0.88764  0.84318  1.0000
  H   H546      1.0  0.01160  0.92436  0.98301  1.0000
  C   C463      1.0  0.21898  0.81051  0.88108  1.0000
  C   C464      1.0  0.01597  0.50337  0.70138  1.0000
  H   H547      1.0  0.02798  0.85934  0.79213  1.0000
  H   H548      1.0  0.14661  0.62097  0.88225  1.0000
  H   H549      1.0  0.12259  0.94593  0.86800  1.0000
  N   N33       1.0  0.16890  0.62896  0.86837  1.0000
  H   H550      1.0  0.14946  0.60582  0.85681  1.0000
  N   N34       1.0  0.23355  0.82054  0.88988  1.0000
  S   S128      1.0  0.05825  0.49301  0.91978  1.0000
  C   C465      1.0  0.14639  0.90090  0.84259  1.0000
  H   H551      1.0  0.09867  0.93998  0.92223  1.0000
  H   H552      1.0  0.12869  0.49375  0.94705  1.0000
  C   C466      1.0  0.06102  0.98196  0.97520  1.0000
  H   H553      1.0  0.16500  0.94737  0.90531  1.0000
  H   H554      1.0  0.01270  0.49908  0.71776  1.0000
  H   H555      1.0  0.24913  0.80661  0.91310  1.0000
  C   C467      1.0  0.04328  0.80958  0.69064  1.0000
  H   H556      1.0  0.24123  0.92000  0.89588  1.0000
  H   H557      1.0  0.24035  0.62666  0.91673  1.0000
  H   H558      1.0  0.24573  0.87480  0.87876  1.0000
  C   C468      1.0  0.14758  0.94619  0.87156  1.0000
  C   C469      1.0  0.02758  0.78873  0.71767  1.0000
  C   C470      1.0  0.21855  0.87808  0.92636  1.0000
  C   C471      1.0  0.17526  0.70260  0.84409  1.0000
  H   H559      1.0  0.16754  0.64580  0.89909  1.0000
  C   C472      1.0  0.16046  0.71057  0.83894  1.0000
  H   H560      1.0  0.12539  0.51456  0.88768  1.0000
  H   H561      1.0  0.24719  0.79924  0.86648  1.0000
  H   H562      1.0  0.15309  0.51392  0.89220  1.0000
  C   C473      1.0  0.01692  0.96735  0.97246  1.0000
  H   H563      1.0  0.21490  0.82578  0.86922  1.0000
  H   H564      1.0  0.15797  0.58974  0.87876  1.0000
  C   C474      1.0  0.17996  0.61237  0.85558  1.0000
  H   H565      1.0  0.19123  0.62322  0.85387  1.0000
  H   H566      1.0  0.12515  0.97114  0.89787  1.0000
  H   H567      1.0  0.15483  0.97512  0.91831  1.0000
  H   H568      1.0  0.17211  0.93732  0.87056  1.0000
  C   C475      1.0  0.02622  0.86166  0.72773  1.0000
  H   H569      1.0  0.24292  0.74851  0.69800  1.0000
  H   H570      1.0  0.10193  0.49771  0.89822  1.0000
  C   C476      1.0  0.15362  0.95799  0.90660  1.0000
  C   C477      1.0  0.16572  0.65686  0.85833  1.0000
  H   H571      1.0  0.24631  0.64556  0.98440  1.0000
  H   H572      1.0  0.14532  0.94185  0.91276  1.0000
  C   C478      1.0  0.15508  0.61074  0.87159  1.0000
  C   C479      1.0  0.17788  0.67619  0.85362  1.0000
  H   H573      1.0  0.18956  0.67107  0.85733  1.0000
  C   C480      1.0  0.15071  0.66580  0.85308  1.0000
  H   H574      1.0  0.17086  0.89879  0.84550  1.0000
  H   H575      1.0  0.02559  0.96042  0.96153  1.0000
  H   H576      1.0  0.12210  0.90775  0.84281  1.0000
  H   H577      1.0  0.06469  0.55298  0.97949  1.0000
  H   H578      1.0  0.22969  0.79501  0.91745  1.0000
  C   C481      1.0  0.03033  0.81333  0.67861  1.0000
  H   H579      1.0  0.24124  0.69961  0.68390  1.0000
  C   C482      1.0  0.24665  0.57382  0.97405  1.0000
  H   H580      1.0  0.22375  0.92321  0.92597  1.0000
  C   C483      1.0  0.10310  0.49727  0.85758  1.0000
  C   C484      1.0  0.13162  0.49577  0.88264  1.0000
  C   C485      1.0  0.23840  0.87435  0.89230  1.0000
  C   C486      1.0  0.13343  0.93657  0.86352  1.0000
  C   C487      1.0  0.23857  0.79922  0.90537  1.0000
  C   C488      1.0  0.13295  0.91441  0.84911  1.0000
  C   C489      1.0  0.23590  0.90066  0.90200  1.0000
  H   H581      1.0  0.04489  0.54390  0.98111  1.0000
  C   C490      1.0  0.01451  0.79280  0.70593  1.0000
  H   H582      1.0  0.02657  0.77994  0.73311  1.0000
  C   C491      1.0  0.16099  0.93160  0.86481  1.0000
  C   C492      1.0  0.25337  0.69184  0.73956  1.0000
  H   H583      1.0  0.05444  0.81643  0.68495  1.0000
  H   H584      1.0  0.20970  0.80811  0.89286  1.0000
  C   C493      1.0  0.01266  0.87035  0.71790  1.0000
  H   H585      1.0  0.03204  0.82256  0.66349  1.0000
  C   C494      1.0  0.01044  0.89699  0.83025  1.0000
  H   H586      1.0  0.09133  0.97751  0.89749  1.0000
  C   C495      1.0  0.01137  0.83692  0.75396  1.0000
  H   H587      1.0  0.01071  0.82377  0.76766  1.0000
  H   H588      1.0  0.01337  0.88352  0.70420  1.0000
  H   H589      1.0  0.06896  0.50903  0.96173  1.0000
  C   C496      1.0  0.06095  0.49732  0.97232  1.0000
  C   C497      1.0  0.00820  0.90143  0.77681  1.0000
  C   C498      1.0  0.24985  0.62338  0.98523  1.0000
  C   C499      1.0  0.01159  0.50815  0.65585  1.0000
  C   C500      1.0  0.01778  0.48453  0.66671  1.0000
  H   H590      1.0  0.17199  0.98305  0.87939  1.0000
  Fe  Fe65      1.0  0.43385  0.17847  0.05271  1.0000
  S   S129      1.0  0.44292  0.15984  0.08197  1.0000
  S   S130      1.0  0.40942  0.19576  0.05194  1.0000
  Fe  Fe66      1.0  0.46633  0.18126  0.03196  1.0000
  S   S131      1.0  0.47742  0.16265  0.06011  1.0000
  S   S132      1.0  0.47768  0.19150  0.00033  1.0000
  Fe  Fe67      1.0  0.45760  0.13141  0.06196  1.0000
  S   S133      1.0  0.45968  0.08225  0.06425  1.0000
  Fe  Fe68      1.0  0.46176  0.19257  0.07789  1.0000
  S   S134      1.0  0.46798  0.21822  0.10613  1.0000
  S   S135      1.0  0.44726  0.14819  0.03259  1.0000
  S   S136      1.0  0.45195  0.21285  0.04983  1.0000
  Fe  Fe69      1.0  0.28839  0.14886  0.04549  1.0000
  S   S137      1.0  0.28147  0.16514  0.07693  1.0000
  S   S138      1.0  0.27008  0.14377  0.02058  1.0000
  Fe  Fe70      1.0  0.32257  0.14755  0.05719  1.0000
  S   S139      1.0  0.31796  0.16252  0.08953  1.0000
  S   S140      1.0  0.34530  0.13155  0.04408  1.0000
  Fe  Fe71      1.0  0.29788  0.13196  0.08883  1.0000
  S   S141      1.0  0.29028  0.10354  0.11567  1.0000
  Fe  Fe72      1.0  0.30198  0.19469  0.07529  1.0000
  S   S142      1.0  0.30275  0.24358  0.08050  1.0000
  S   S143      1.0  0.30373  0.11445  0.05766  1.0000
  S   S144      1.0  0.30773  0.18097  0.04265  1.0000
  Fe  Fe73      1.0  0.45696  0.37880  0.13912  1.0000
  S   S145      1.0  0.45238  0.36379  0.17156  1.0000
  S   S146      1.0  0.45825  0.35336  0.10952  1.0000
  Fe  Fe74      1.0  0.45893  0.44228  0.15041  1.0000
  S   S147      1.0  0.45445  0.43219  0.18397  1.0000
  C   C501      1.0  0.41451  0.02936  0.11702  1.0000
  Fe  Fe75      1.0  0.47082  0.39506  0.18055  1.0000
  S   S148      1.0  0.48983  0.39163  0.20457  1.0000
  Fe  Fe76      1.0  0.43630  0.40168  0.17311  1.0000
  S   S149      1.0  0.41378  0.39667  0.19117  1.0000
  S   S150      1.0  0.47657  0.40727  0.14774  1.0000
  S   S151      1.0  0.43953  0.41444  0.13996  1.0000
  Fe  Fe77      1.0  0.29371  0.44264  0.14335  1.0000
  S   S152      1.0  0.30751  0.46072  0.16891  1.0000
  C   C502      1.0  0.30909  0.03790  0.17918  1.0000
  Fe  Fe78      1.0  0.29709  0.38038  0.15888  1.0000
  S   S153      1.0  0.31081  0.39507  0.18603  1.0000
  S   S154      1.0  0.29471  0.33142  0.15583  1.0000
  Fe  Fe79      1.0  0.29338  0.43104  0.18937  1.0000
  S   S155      1.0  0.28528  0.44799  0.22116  1.0000
  Fe  Fe80      1.0  0.32354  0.42347  0.16349  1.0000
  S   S156      1.0  0.34876  0.42735  0.15346  1.0000
  S   S157      1.0  0.27877  0.41432  0.16376  1.0000
  S   S158      1.0  0.31044  0.40741  0.13648  1.0000
  C   C503      1.0  0.26744  0.46044  0.23190  1.0000
  H   H591      1.0  0.44298  0.43606  0.08041  1.0000
  H   H592      1.0  0.28330  0.40456  0.25982  1.0000
  H   H593      1.0  0.42300  0.21573  0.14156  1.0000
  N   N35       1.0  0.41567  0.01253  0.13630  1.0000
  C   C504      1.0  0.39570  0.40497  0.18055  1.0000
  C   C505      1.0  0.39445  0.41532  0.16045  1.0000
  C   C506      1.0  0.37998  0.42202  0.15254  1.0000
  C   C507      1.0  0.36656  0.41845  0.16457  1.0000
  C   C508      1.0  0.36774  0.40785  0.18463  1.0000
  C   C509      1.0  0.38225  0.40114  0.19255  1.0000
  H   H594      1.0  0.40466  0.41840  0.15103  1.0000
  H   H595      1.0  0.37922  0.43019  0.13701  1.0000
  H   H596      1.0  0.35752  0.40511  0.19410  1.0000
  H   H597      1.0  0.38308  0.39320  0.20814  1.0000
  C   C510      1.0  0.29988  0.26748  0.10167  1.0000
  C   C511      1.0  0.30066  0.29728  0.09806  1.0000
  C   C512      1.0  0.29888  0.31715  0.11428  1.0000
  C   C513      1.0  0.29632  0.30750  0.13447  1.0000
  C   C514      1.0  0.29554  0.27771  0.13809  1.0000
  C   C515      1.0  0.29730  0.25784  0.12185  1.0000
  H   H598      1.0  0.30265  0.30507  0.08255  1.0000
  H   H599      1.0  0.29946  0.33992  0.11113  1.0000
  H   H600      1.0  0.29354  0.26989  0.15359  1.0000
  H   H601      1.0  0.29667  0.23507  0.12497  1.0000
  C   C516      1.0  0.29240  0.00517  0.11311  1.0000
  C   C517      1.0  0.29706  0.02161  0.09597  1.0000
  C   C518      1.0  0.29698  0.05174  0.09678  1.0000
  C   C519      1.0  0.29163  0.06572  0.11448  1.0000
  C   C520      1.0  0.28676  0.04927  0.13152  1.0000
  C   C521      1.0  0.28739  0.01912  0.13099  1.0000
  H   H602      1.0  0.30093  0.01094  0.08209  1.0000
  H   H603      1.0  0.30099  0.06402  0.08366  1.0000
  H   H604      1.0  0.28234  0.05995  0.14509  1.0000
  H   H605      1.0  0.28354  0.00657  0.14412  1.0000
  C   C522      1.0  0.46246  0.01700  0.11830  1.0000
  C   C523      1.0  0.46418  0.04663  0.12183  1.0000
  C   C524      1.0  0.46325  0.06686  0.10563  1.0000
  C   C525      1.0  0.46069  0.05777  0.08551  1.0000
  C   C526      1.0  0.45900  0.02814  0.08196  1.0000
  C   C527      1.0  0.45980  0.00792  0.09819  1.0000
  H   H606      1.0  0.46629  0.05402  0.13726  1.0000
  H   H607      1.0  0.46467  0.08947  0.10870  1.0000
  H   H608      1.0  0.45703  0.02076  0.06650  1.0000
  H   H609      1.0  0.45187  0.44788  0.10353  1.0000
  C   C528      1.0  0.46581  0.25595  0.10682  1.0000
  C   C529      1.0  0.46572  0.27007  0.12586  1.0000
  C   C530      1.0  0.46341  0.29991  0.12698  1.0000
  C   C531      1.0  0.46127  0.31588  0.10901  1.0000
  C   C532      1.0  0.46147  0.30179  0.08999  1.0000
  C   C533      1.0  0.46377  0.27200  0.08888  1.0000
  H   H610      1.0  0.46741  0.25785  0.13981  1.0000
  H   H611      1.0  0.46337  0.31055  0.14172  1.0000
  H   H612      1.0  0.45991  0.31397  0.07600  1.0000
  H   H613      1.0  0.46403  0.26151  0.07410  1.0000
  C   C534      1.0  0.39182  0.17689  0.05071  1.0000
  C   C535      1.0  0.39112  0.14775  0.04588  1.0000
  C   C536      1.0  0.37679  0.13407  0.04416  1.0000
  C   C537      1.0  0.36307  0.14917  0.04771  1.0000
  C   C538      1.0  0.36380  0.17810  0.05311  1.0000
  C   C539      1.0  0.37810  0.19194  0.05434  1.0000
  H   H614      1.0  0.40158  0.13597  0.04295  1.0000
  H   H615      1.0  0.37632  0.11171  0.03990  1.0000
  H   H616      1.0  0.35334  0.19001  0.05577  1.0000
  H   H617      1.0  0.37854  0.21449  0.05807  1.0000
  H   H618      1.0  0.28093  0.99245  0.19288  1.0000
  C   C540      1.0  0.31119  0.11382  0.00529  1.0000
  H   H619      1.0  0.47865  0.40617  0.10068  1.0000
  C   C541      1.0  0.28692  0.05986  0.21064  1.0000
  H   H620      1.0  0.27576  0.08156  0.01472  1.0000
  H   H621      1.0  0.32514  0.04245  0.15379  1.0000
  C   C542      1.0  0.33116  0.00289  0.19677  1.0000
  H   H622      1.0  0.28580  0.07099  0.19560  1.0000
  H   H623      1.0  0.33961  0.98850  0.20314  1.0000
  N   N36       1.0  0.41812  0.23648  0.11281  1.0000
  C   C543      1.0  0.42445  0.23676  0.09148  1.0000
  C   C544      1.0  0.40232  0.22485  0.11294  1.0000
  C   C545      1.0  0.39938  0.19737  0.10459  1.0000
  C   C546      1.0  0.38955  0.23992  0.12140  1.0000
  C   C547      1.0  0.38456  0.18607  0.10412  1.0000
  C   C548      1.0  0.37475  0.22830  0.12094  1.0000
  C   C549      1.0  0.37225  0.20158  0.11213  1.0000
  H   H624      1.0  0.43574  0.24765  0.09034  1.0000
  H   H625      1.0  0.41659  0.24763  0.08066  1.0000
  H   H626      1.0  0.41229  0.28133  0.11148  1.0000
  H   H627      1.0  0.43965  0.22676  0.12696  1.0000
  H   H628      1.0  0.40850  0.18465  0.09785  1.0000
  H   H629      1.0  0.39065  0.26076  0.12831  1.0000
  H   H630      1.0  0.38258  0.16544  0.09696  1.0000
  H   H631      1.0  0.36511  0.24019  0.12721  1.0000
  H   H632      1.0  0.36075  0.19289  0.11134  1.0000
  N   N37       1.0  0.34589  0.32877  0.14657  1.0000
  C   C550      1.0  0.33776  0.31065  0.16219  1.0000
  C   C551      1.0  0.35920  0.34216  0.15678  1.0000
  C   C552      1.0  0.33550  0.35206  0.14026  1.0000
  C   C553      1.0  0.35021  0.31170  0.12820  1.0000
  C   C554      1.0  0.36490  0.31369  0.11843  1.0000
  C   C555      1.0  0.33930  0.29369  0.11876  1.0000
  C   C556      1.0  0.36839  0.29812  0.10058  1.0000
  C   C557      1.0  0.34290  0.27820  0.10098  1.0000
  C   C558      1.0  0.35742  0.28036  0.09192  1.0000
  H   H633      1.0  0.34451  0.29120  0.16595  1.0000
  H   H634      1.0  0.33542  0.32256  0.17671  1.0000
  H   H635      1.0  0.32624  0.30366  0.15715  1.0000
  H   H636      1.0  0.36475  0.35900  0.14697  1.0000
  H   H637      1.0  0.36787  0.32590  0.16107  1.0000
  H   H638      1.0  0.35566  0.35353  0.17113  1.0000
  H   H639      1.0  0.32485  0.34362  0.13336  1.0000
  H   H640      1.0  0.33191  0.36542  0.15363  1.0000
  H   H641      1.0  0.34109  0.36657  0.12872  1.0000
  H   H642      1.0  0.37381  0.32748  0.12407  1.0000
  H   H643      1.0  0.32774  0.29183  0.12474  1.0000
  H   H644      1.0  0.37959  0.30004  0.09324  1.0000
  H   H645      1.0  0.33425  0.26478  0.09401  1.0000
  H   H646      1.0  0.36011  0.26840  0.07805  1.0000
  N   N38       1.0  0.29035  0.02887  0.20835  1.0000
  H   H647      1.0  0.39770  0.00111  0.10311  1.0000
  C   C559      1.0  0.35192  0.48345  0.10814  1.0000
  S   S159      1.0  0.46308  0.99275  0.13974  1.0000
  C   C560      1.0  0.48685  0.37215  0.27629  1.0000
  H   H648      1.0  0.45134  0.41046  0.09714  1.0000
  C   C561      1.0  0.48207  0.11171  0.01214  1.0000
  H   H649      1.0  0.42651  0.21491  0.08547  1.0000
  C   C562      1.0  0.32304  0.03313  0.16890  1.0000
  C   C563      1.0  0.42205  0.98384  0.13150  1.0000
  H   H650      1.0  0.42921  0.19606  0.11925  1.0000
  C   C564      1.0  0.30565  0.02499  0.19854  1.0000
  C   C565      1.0  0.26630  0.08793  0.00530  1.0000
  H   H651      1.0  0.31544  0.48312  0.09085  1.0000
  H   H652      1.0  0.29610  0.07091  0.21924  1.0000
  C   C566      1.0  0.31720  0.00741  0.20715  1.0000
  C   C567      1.0  0.25902  0.06739  0.99285  1.0000
  C   C568      1.0  0.45283  0.43239  0.09061  1.0000
  C   C569      1.0  0.46908  0.46487  0.07102  1.0000
  C   C570      1.0  0.30846  0.15934  0.98867  1.0000
  C   C571      1.0  0.33403  0.01555  0.17765  1.0000
  H   H653      1.0  0.47562  0.13215  0.01099  1.0000
  H   H654      1.0  0.47676  0.09574  0.00181  1.0000
  C   C572      1.0  0.47990  0.42850  0.09463  1.0000
  H   H655      1.0  0.32738  0.45275  0.09550  1.0000
  C   C573      1.0  0.49462  0.20906  0.99046  1.0000
  H   H656      1.0  0.32912  0.46157  0.13088  1.0000
  H   H657      1.0  0.47953  0.41648  0.05384  1.0000
  S   S160      1.0  0.28696  0.46872  0.11532  1.0000
  H   H658      1.0  0.48014  0.10362  0.02816  1.0000
  H   H659      1.0  0.47932  0.44283  0.10829  1.0000
  H   H660      1.0  0.29730  0.02469  0.23989  1.0000
  H   H661      1.0  0.25667  0.07755  0.10354  1.0000
  C   C574      1.0  0.42563  0.02610  0.15178  1.0000
  C   C575      1.0  0.48537  0.34362  0.28238  1.0000
  C   C576      1.0  0.49246  0.33672  0.22191  1.0000
  H   H662      1.0  0.42140  0.04773  0.15619  1.0000
  N   N39       1.0  0.49858  0.11614  0.00715  1.0000
  C   C577      1.0  0.49930  0.31653  0.23515  1.0000
  H   H663      1.0  0.27630  0.09268  0.07712  1.0000
  H   H664      1.0  0.27355  0.41658  0.29384  1.0000
  C   C578      1.0  0.45856  0.47447  0.05610  1.0000
  C   C579      1.0  0.40347  0.03548  0.08279  1.0000
  H   H665      1.0  0.48849  0.48004  0.08912  1.0000
  H   H666      1.0  0.43763  0.02814  0.14603  1.0000
  H   H667      1.0  0.46841  0.39163  0.06928  1.0000
  H   H668      1.0  0.41562  0.26746  0.13721  1.0000
  C   C580      1.0  0.28888  0.01554  0.22910  1.0000
  H   H669      1.0  0.26689  0.01763  0.20216  1.0000
  C   C581      1.0  0.46872  0.41398  0.06302  1.0000
  N   N40       1.0  0.45077  0.38203  0.24447  1.0000
  C   C582      1.0  0.43571  0.38092  0.25538  1.0000
  C   C583      1.0  0.45377  0.41242  0.23872  1.0000
  C   C584      1.0  0.44969  0.36554  0.22514  1.0000
  C   C585      1.0  0.46271  0.36936  0.25758  1.0000
  C   C586      1.0  0.46151  0.34037  0.26423  1.0000
  C   C587      1.0  0.47580  0.38492  0.26397  1.0000
  C   C588      1.0  0.47273  0.32775  0.27635  1.0000
  H   H670      1.0  0.27823  0.02582  0.17972  1.0000
  H   H671      1.0  0.41170  0.07146  0.06483  1.0000
  H   H672      1.0  0.43615  0.39240  0.27032  1.0000
  H   H673      1.0  0.42653  0.39096  0.24607  1.0000
  H   H674      1.0  0.43189  0.35860  0.25863  1.0000
  H   H675      1.0  0.45434  0.42638  0.25249  1.0000
  H   H676      1.0  0.44458  0.42126  0.22888  1.0000
  H   H677      1.0  0.46467  0.41467  0.22963  1.0000
  H   H678      1.0  0.44617  0.34293  0.22777  1.0000
  H   H679      1.0  0.44109  0.37499  0.21464  1.0000
  H   H680      1.0  0.46093  0.36522  0.21679  1.0000
  H   H681      1.0  0.45201  0.32706  0.25980  1.0000
  H   H682      1.0  0.47804  0.40675  0.25921  1.0000
  C   C589      1.0  0.26938  0.08213  0.06515  1.0000
  C   C590      1.0  0.26137  0.11649  0.00533  1.0000
  N   N41       1.0  0.46779  0.43553  0.07971  1.0000
  C   C591      1.0  0.49790  0.36495  0.22096  1.0000
  H   H683      1.0  0.49153  0.43007  0.08744  1.0000
  H   H684      1.0  0.29962  0.11463  0.01271  1.0000
  H   H685      1.0  0.30085  0.05116  0.17149  1.0000
  H   H686      1.0  0.49495  0.29482  0.23576  1.0000
  C   C592      1.0  0.41922  0.26622  0.12075  1.0000
  H   H687      1.0  0.26293  0.04541  0.99308  1.0000
  H   H688      1.0  0.39581  0.02815  0.07099  1.0000
  H   H689      1.0  0.47186  0.30534  0.28074  1.0000
  H   H690      1.0  0.43156  0.06272  0.12365  1.0000
  H   H691      1.0  0.48306  0.33033  0.21238  1.0000
  H   H692      1.0  0.42950  0.08792  0.09127  1.0000
  H   H693      1.0  0.44957  0.46063  0.05074  1.0000
  C   C593      1.0  0.40457  0.02027  0.10129  1.0000
  C   C594      1.0  0.42786  0.21796  0.12571  1.0000
  H   H694      1.0  0.29052  0.99192  0.22844  1.0000
  H   H695      1.0  0.43124  0.27439  0.11991  1.0000
  H   H696      1.0  0.34462  0.01095  0.16935  1.0000
  C   C595      1.0  0.41236  0.05991  0.07929  1.0000
  H   H697      1.0  0.29745  0.16302  0.99718  1.0000
  H   H698      1.0  0.27724  0.01871  0.23606  1.0000
  C   C596      1.0  0.26717  0.47236  0.25180  1.0000
  C   C597      1.0  0.42230  0.06930  0.09430  1.0000
  H   H699      1.0  0.35296  0.46051  0.11284  1.0000
  H   H700      1.0  0.49963  0.15775  0.02107  1.0000
  H   H701      1.0  0.27776  0.47406  0.26005  1.0000
  H   H702      1.0  0.27145  0.09386  0.05043  1.0000
  H   H703      1.0  0.31562  0.99615  0.22157  1.0000
  H   H704      1.0  0.27587  0.06341  0.21910  1.0000
  C   C598      1.0  0.42341  0.05441  0.11293  1.0000
  H   H705      1.0  0.31945  0.12404  0.01588  1.0000
  C   C599      1.0  0.27860  0.01571  0.19520  1.0000
  H   H706      1.0  0.33294  0.47861  0.07638  1.0000
  H   H707      1.0  0.39455  0.02995  0.14830  1.0000
  H   H708      1.0  0.31757  0.16893  0.99827  1.0000
  H   H709      1.0  0.45901  0.41553  0.05232  1.0000
  H   H710      1.0  0.31455  0.09092  0.00424  1.0000
  C   C600      1.0  0.26530  0.40972  0.28276  1.0000
  H   H711      1.0  0.49696  0.38411  0.28054  1.0000
  H   H712      1.0  0.49430  0.33350  0.29122  1.0000
  H   H713      1.0  0.27397  0.06007  0.06329  1.0000
  H   H714      1.0  0.42631  0.01300  0.16610  1.0000
  H   H715      1.0  0.45844  0.98531  0.09511  1.0000
  H   H716      1.0  0.25970  0.44678  0.31617  1.0000
  C   C601      1.0  0.40028  0.00886  0.14606  1.0000
  H   H717      1.0  0.50231  0.07279  0.99734  1.0000
  H   H718      1.0  0.25602  0.04468  0.09024  1.0000
  C   C602      1.0  0.50473  0.13602  0.02273  1.0000
  H   H719      1.0  0.50215  0.12845  0.03868  1.0000
  H   H720      1.0  0.50387  0.07809  0.02459  1.0000
  C   C603      1.0  0.27114  0.40255  0.26329  1.0000
  C   C604      1.0  0.32758  0.47613  0.09190  1.0000
  H   H721      1.0  0.39257  0.99518  0.13687  1.0000
  H   H722      1.0  0.43315  0.98578  0.12289  1.0000
  H   H723      1.0  0.40098  0.99825  0.16139  1.0000
  H   H724      1.0  0.26594  0.38940  0.23259  1.0000
  C   C605      1.0  0.26135  0.39398  0.24783  1.0000
  H   H725      1.0  0.50532  0.21569  0.01955  1.0000
  S   S161      1.0  0.44397  0.16112  0.63936  1.0000
  Fe  Fe81      1.0  0.46345  0.12925  0.64021  1.0000
  S   S162      1.0  0.46973  0.10078  0.61302  1.0000
  C   C606      1.0  0.36957  0.05298  0.60528  1.0000
  H   H726      1.0  0.50502  0.14685  0.42071  1.0000
  S   S163      1.0  0.31623  0.15348  0.63322  1.0000
  C   C607      1.0  0.27547  0.18324  0.45375  1.0000
  S   S164      1.0  0.29317  0.21402  0.61050  1.0000
  H   H727      1.0  0.49510  0.42822  0.38813  1.0000
  H   H728      1.0  0.50363  0.37692  0.42351  1.0000
  Fe  Fe82      1.0  0.47117  0.42501  0.53804  1.0000
  S   S165      1.0  0.47634  0.40858  0.56992  1.0000
  S   S166      1.0  0.49069  0.42420  0.51349  1.0000
  Fe  Fe83      1.0  0.43648  0.42796  0.54874  1.0000
  S   S167      1.0  0.43943  0.41179  0.58097  1.0000
  S   S168      1.0  0.41349  0.44234  0.53621  1.0000
  Fe  Fe84      1.0  0.45963  0.44209  0.58113  1.0000
  H   H729      1.0  0.35560  0.44947  0.61813  1.0000
  Fe  Fe85      1.0  0.45583  0.37948  0.56738  1.0000
  S   S169      1.0  0.45558  0.33034  0.57166  1.0000
  S   S170      1.0  0.45574  0.46042  0.54964  1.0000
  S   S171      1.0  0.45154  0.39392  0.53474  1.0000
  Fe  Fe86      1.0  0.29707  0.37682  0.58231  1.0000
  S   S172      1.0  0.30751  0.35859  0.55346  1.0000
  S   S173      1.0  0.28803  0.34981  0.60909  1.0000
  Fe  Fe87      1.0  0.30207  0.43952  0.56844  1.0000
  S   S174      1.0  0.31275  0.42514  0.53827  1.0000
  N   N42       1.0  0.35424  0.08402  0.62962  1.0000
  Fe  Fe88      1.0  0.29366  0.39202  0.53692  1.0000
  S   S175      1.0  0.27829  0.38657  0.50857  1.0000
  Fe  Fe89      1.0  0.32549  0.39297  0.55734  1.0000
  S   S176      1.0  0.35049  0.37960  0.55939  1.0000
  S   S177      1.0  0.28225  0.40871  0.56588  1.0000
  S   S178      1.0  0.31578  0.40897  0.58738  1.0000
  C   C608      1.0  0.26771  0.35968  0.49516  1.0000
  C   C609      1.0  0.25787  0.36822  0.47933  1.0000
  H   H730      1.0  0.49931  0.05000  0.43859  1.0000
  H   H731      1.0  0.46316  0.30302  0.64461  1.0000
  H   H732      1.0  0.38398  0.18803  0.63940  1.0000
  C   C610      1.0  0.39603  0.42477  0.54273  1.0000
  C   C611      1.0  0.38233  0.43432  0.53398  1.0000
  C   C612      1.0  0.36825  0.42078  0.53882  1.0000
  C   C613      1.0  0.36776  0.39766  0.55261  1.0000
  C   C614      1.0  0.38145  0.38825  0.56140  1.0000
  C   C615      1.0  0.39550  0.40173  0.55654  1.0000
  H   H733      1.0  0.38265  0.45201  0.52317  1.0000
  H   H734      1.0  0.35785  0.42792  0.53163  1.0000
  H   H735      1.0  0.38122  0.37042  0.57209  1.0000
  H   H736      1.0  0.40595  0.39413  0.56335  1.0000
  C   C616      1.0  0.29988  0.05357  0.63195  1.0000
  C   C617      1.0  0.30161  0.06309  0.61159  1.0000
  C   C618      1.0  0.30262  0.04311  0.59533  1.0000
  C   C619      1.0  0.30195  0.01332  0.59906  1.0000
  C   C620      1.0  0.30033  0.00382  0.61944  1.0000
  C   C621      1.0  0.29926  0.02380  0.63571  1.0000
  H   H737      1.0  0.30205  0.08582  0.60830  1.0000
  H   H738      1.0  0.30390  0.05079  0.57967  1.0000
  C   C622      1.0  0.48939  0.35164  0.53697  1.0000
  H   H739      1.0  0.47182  0.39689  0.47209  1.0000
  C   C623      1.0  0.29251  0.25181  0.61078  1.0000
  C   C624      1.0  0.28897  0.26701  0.62872  1.0000
  C   C625      1.0  0.28779  0.29711  0.62805  1.0000
  C   C626      1.0  0.29058  0.31223  0.60961  1.0000
  C   C627      1.0  0.29455  0.29701  0.59184  1.0000
  C   C628      1.0  0.29526  0.26692  0.59236  1.0000
  C   C629      1.0  0.49260  0.06732  0.44507  1.0000
  C   C630      1.0  0.26837  0.33659  0.55643  1.0000
  H   H740      1.0  0.29683  0.30827  0.57758  1.0000
  H   H741      1.0  0.29801  0.25527  0.57843  1.0000
  C   C631      1.0  0.46036  0.26571  0.62562  1.0000
  C   C632      1.0  0.46118  0.29546  0.62919  1.0000
  C   C633      1.0  0.45944  0.31557  0.61306  1.0000
  C   C634      1.0  0.45701  0.30620  0.59299  1.0000
  C   C635      1.0  0.45618  0.27646  0.58940  1.0000
  C   C636      1.0  0.45779  0.25636  0.60556  1.0000
  H   H742      1.0  0.28673  0.25554  0.64295  1.0000
  H   H743      1.0  0.46016  0.33829  0.61614  1.0000
  H   H744      1.0  0.45712  0.23363  0.60249  1.0000
  H   H745      1.0  0.37952  0.06646  0.60718  1.0000
  C   C637      1.0  0.47087  0.00221  0.61101  1.0000
  C   C638      1.0  0.46994  0.01844  0.59295  1.0000
  C   C639      1.0  0.46939  0.04856  0.59386  1.0000
  C   C640      1.0  0.46905  0.06278  0.61284  1.0000
  C   C641      1.0  0.46916  0.04649  0.63096  1.0000
  C   C642      1.0  0.47048  0.01640  0.63003  1.0000
  H   H746      1.0  0.46990  0.00791  0.57823  1.0000
  H   H747      1.0  0.46912  0.06094  0.57977  1.0000
  C   C643      1.0  0.48741  0.38398  0.44778  1.0000
  H   H748      1.0  0.50479  0.08081  0.62353  1.0000
  H   H749      1.0  0.27375  0.16202  0.44767  1.0000
  H   H750      1.0  0.33448  0.29881  0.63877  1.0000
  C   C644      1.0  0.35555  0.05888  0.61585  1.0000
  H   H751      1.0  0.48579  0.36130  0.45078  1.0000
  H   H752      1.0  0.32841  0.28685  0.58955  1.0000
  C   C645      1.0  0.47430  0.10987  0.46271  1.0000
  N   N43       1.0  0.34183  0.26088  0.62271  1.0000
  H   H753      1.0  0.49163  0.99891  0.55402  1.0000
  S   S179      1.0  0.48067  0.16195  0.65064  1.0000
  C   C646      1.0  0.36330  0.31035  0.57375  1.0000
  C   C647      1.0  0.34945  0.27750  0.60595  1.0000
  C   C648      1.0  0.36559  0.28186  0.60477  1.0000
  C   C649      1.0  0.34068  0.28971  0.58998  1.0000
  C   C650      1.0  0.34464  0.01694  0.59859  1.0000
  C   C651      1.0  0.35855  0.01179  0.58850  1.0000
  H   H754      1.0  0.38185  0.02555  0.58399  1.0000
  C   C652      1.0  0.49504  0.47945  0.49714  1.0000
  H   H755      1.0  0.33612  0.45261  0.60996  1.0000
  H   H756      1.0  0.33491  0.00305  0.59574  1.0000
  H   H757      1.0  0.25708  0.39072  0.47539  1.0000
  H   H758      1.0  0.46067  0.07516  0.47521  1.0000
  C   C653      1.0  0.38426  0.17459  0.65299  1.0000
  C   C654      1.0  0.28819  0.18691  0.46625  1.0000
  H   H759      1.0  0.25590  0.36486  0.58916  1.0000
  H   H760      1.0  0.33629  0.06726  0.64968  1.0000
  H   H761      1.0  0.28465  0.30872  0.64185  1.0000
  H   H762      1.0  0.35551  0.13014  0.62721  1.0000
  S   S180      1.0  0.35304  0.18001  0.65315  1.0000
  H   H763      1.0  0.28409  0.25743  0.47769  1.0000
  C   C655      1.0  0.49155  0.30151  0.54433  1.0000
  H   H764      1.0  0.26334  0.22260  0.41036  1.0000
  H   H765      1.0  0.27630  0.32326  0.51164  1.0000
  H   H766      1.0  0.33197  0.04258  0.61937  1.0000
  H   H767      1.0  0.36117  0.23627  0.63314  1.0000
  C   C656      1.0  0.47943  0.40392  0.45967  1.0000
  H   H768      1.0  0.48652  0.09618  0.65115  1.0000
  C   C657      1.0  0.49684  0.09640  0.44174  1.0000
  C   C658      1.0  0.50007  0.45100  0.49792  1.0000
  C   C659      1.0  0.32969  0.27847  0.63272  1.0000
  C   C660      1.0  0.33904  0.08652  0.64011  1.0000
  C   C661      1.0  0.47062  0.08107  0.46588  1.0000
  H   H769      1.0  0.30117  0.21629  0.48451  1.0000
  H   H770      1.0  0.34349  0.22119  0.60613  1.0000
  N   N44       1.0  0.49889  0.32989  0.54743  1.0000
  H   H771      1.0  0.30960  0.48038  0.61601  1.0000
  H   H772      1.0  0.29796  0.01605  0.65134  1.0000
  C   C662      1.0  0.34817  0.44950  0.60449  1.0000
  C   C663      1.0  0.34309  0.04000  0.61214  1.0000
  H   H773      1.0  0.48754  0.34639  0.52055  1.0000
  H   H774      1.0  0.26032  0.31643  0.59397  1.0000
  H   H775      1.0  0.40897  0.17156  0.65244  1.0000
  H   H776      1.0  0.38462  0.30153  0.58833  1.0000
  Fe  Fe90      1.0  0.29896  0.18830  0.63890  1.0000
  H   H777      1.0  0.33850  0.10534  0.65059  1.0000
  H   H778      1.0  0.32914  0.22132  0.62619  1.0000
  H   H779      1.0  0.48942  0.14024  0.44905  1.0000
  H   H780      1.0  0.34058  0.31596  0.56255  1.0000
  H   H781      1.0  0.46712  0.12630  0.46960  1.0000
  H   H782      1.0  0.32576  0.23992  0.60274  1.0000
  H   H783      1.0  0.27669  0.34143  0.56862  1.0000
  H   H784      1.0  0.49463  0.37334  0.53710  1.0000
  C   C664      1.0  0.37232  0.29816  0.58888  1.0000
  H   H785      1.0  0.37328  0.27301  0.61592  1.0000
  C   C665      1.0  0.49566  0.31925  0.58580  1.0000
  S   S181      1.0  0.46314  0.24148  0.64664  1.0000
  H   H786      1.0  0.49907  0.10383  0.40063  1.0000
  H   H787      1.0  0.49802  0.01884  0.48774  1.0000
  H   H788      1.0  0.47100  0.00401  0.64409  1.0000
  C   C666      1.0  0.34753  0.30608  0.57428  1.0000
  H   H789      1.0  0.26022  0.16925  0.41722  1.0000
  H   H790      1.0  0.43067  0.46471  0.60877  1.0000
  S   S182      1.0  0.29852  0.07775  0.65321  1.0000
  H   H791      1.0  0.26933  0.35422  0.54491  1.0000
  H   H792      1.0  0.45425  0.26887  0.57398  1.0000
  H   H793      1.0  0.36852  0.11176  0.61053  1.0000
  C   C667      1.0  0.35682  0.11066  0.61749  1.0000
  C   C668      1.0  0.37102  0.02969  0.59190  1.0000
  H   H794      1.0  0.34904  0.42748  0.59791  1.0000
  H   H795      1.0  0.35963  0.99395  0.57793  1.0000
  C   C669      1.0  0.26863  0.33040  0.49988  1.0000
  H   H796      1.0  0.47697  0.03739  0.45959  1.0000
  S   S183      1.0  0.46365  0.46760  0.61026  1.0000
  H   H797      1.0  0.50215  0.47382  0.40610  1.0000
  H   H798      1.0  0.46834  0.05700  0.64567  1.0000
  C   C670      1.0  0.35241  0.25163  0.63907  1.0000
  C   C671      1.0  0.48720  0.11759  0.45081  1.0000
  C   C672      1.0  0.49761  0.39317  0.43225  1.0000
  C   C673      1.0  0.47975  0.05985  0.45706  1.0000
  C   C674      1.0  0.48144  0.43308  0.45589  1.0000
  C   C675      1.0  0.33475  0.23480  0.61404  1.0000
  H   H799      1.0  0.47975  0.30093  0.55116  1.0000
  H   H800      1.0  0.37152  0.44653  0.57764  1.0000
  H   H801      1.0  0.49032  0.29650  0.52774  1.0000
  H   H802      1.0  0.26182  0.25178  0.45623  1.0000
  H   H803      1.0  0.36851  0.32335  0.56162  1.0000
  H   H804      1.0  0.34848  0.11239  0.60481  1.0000
  C   C676      1.0  0.36595  0.08232  0.64583  1.0000
  H   H805      1.0  0.35829  0.27021  0.64613  1.0000
  H   H806      1.0  0.26033  0.28779  0.49329  1.0000
  C   C677      1.0  0.50021  0.42276  0.42830  1.0000
  H   H807      1.0  0.32046  0.28432  0.62203  1.0000
  S   S184      1.0  0.30344  0.98931  0.57772  1.0000
  H   H808      1.0  0.47793  0.35339  0.54456  1.0000
  C   C678      1.0  0.25964  0.31023  0.48923  1.0000
  H   H809      1.0  0.49319  0.31327  0.61856  1.0000
  C   C679      1.0  0.49168  0.44254  0.44052  1.0000
  H   H810      1.0  0.27213  0.31654  0.54867  1.0000
  C   C680      1.0  0.50005  0.99613  0.48593  1.0000
  C   C681      1.0  0.36907  0.46835  0.58370  1.0000
  H   H811      1.0  0.49015  0.29886  0.58333  1.0000
  C   C682      1.0  0.29130  0.21355  0.47484  1.0000
  C   C683      1.0  0.26545  0.20645  0.44949  1.0000
  H   H812      1.0  0.33113  0.46882  0.57344  1.0000
  C   C684      1.0  0.34364  0.46624  0.57038  1.0000
  H   H813      1.0  0.29569  0.16895  0.46934  1.0000
  H   H814      1.0  0.49832  0.28389  0.55126  1.0000
  H   H815      1.0  0.37658  0.47124  0.59711  1.0000
  H   H816      1.0  0.26287  0.41077  0.32594  1.0000
  H   H817      1.0  0.32970  0.08958  0.62890  1.0000
  C   C685      1.0  0.50051  0.33757  0.56937  1.0000
  H   H818      1.0  0.49300  0.46547  0.43899  1.0000
  H   H819      1.0  0.41881  0.46873  0.57480  1.0000
  H   H820      1.0  0.32393  0.26679  0.64569  1.0000
  H   H821      1.0  0.34523  0.44394  0.56475  1.0000
  H   H822      1.0  0.37784  0.08388  0.63952  1.0000
  H   H823      1.0  0.34622  0.24012  0.65179  1.0000
  C   C686      1.0  0.26896  0.23321  0.45859  1.0000
  H   H824      1.0  0.34713  0.48064  0.55743  1.0000
  H   H825      1.0  0.50453  0.36025  0.62702  1.0000
  C   C687      1.0  0.28170  0.23666  0.47100  1.0000
  H   H826      1.0  0.47540  0.44848  0.46550  1.0000
  Fe  Fe91      1.0  0.46083  0.19279  0.65223  1.0000
  H   H827      1.0  0.25749  0.29030  0.57472  1.0000
  N   N45       1.0  0.35261  0.47181  0.58914  1.0000
  C   C688      1.0  0.49729  0.32736  0.60631  1.0000
  C   C689      1.0  0.50367  0.35381  0.61110  1.0000
  H   H828      1.0  0.48317  0.98408  0.50925  1.0000
  H   H829      1.0  0.36494  0.06183  0.65459  1.0000
  Fe  Fe92      1.0  0.47415  0.14721  0.68268  1.0000
  H   H830      1.0  0.25978  0.21634  0.69894  1.0000
  S   S185      1.0  0.49273  0.14471  0.70743  1.0000
  C   C690      1.0  0.48351  0.46742  0.73534  1.0000
  C   C691      1.0  0.46592  0.12076  0.75720  1.0000
  S   S186      1.0  0.45799  0.11289  0.67202  1.0000
  S   S187      1.0  0.45544  0.18030  0.68521  1.0000
  Fe  Fe93      1.0  0.29695  0.17733  0.68497  1.0000
  Fe  Fe94      1.0  0.43971  0.14711  0.67214  1.0000
  S   S188      1.0  0.28680  0.18833  0.71709  1.0000
  H   H831      1.0  0.48733  0.20626  0.95908  1.0000
  C   C692      1.0  0.27295  0.28674  0.72788  1.0000
  C   C693      1.0  0.25881  0.21791  0.71549  1.0000
  S   S189      1.0  0.31490  0.14216  0.68272  1.0000
  C   C694      1.0  0.39910  0.14814  0.67800  1.0000
  C   C695      1.0  0.27556  0.11616  0.95262  1.0000
  C   C696      1.0  0.28650  0.12985  0.96458  1.0000
  H   H832      1.0  0.27491  0.05422  0.71702  1.0000
  C   C697      1.0  0.37104  0.14956  0.68069  1.0000
  C   C698      1.0  0.49881  0.08901  0.72168  1.0000
  C   C699      1.0  0.47866  0.13655  0.76445  1.0000
  C   C700      1.0  0.28955  0.07185  0.95487  1.0000
  H   H833      1.0  0.33021  0.10275  0.97379  1.0000
  C   C701      1.0  0.26951  0.06246  0.70282  1.0000
  H   H834      1.0  0.27958  0.26753  0.73082  1.0000
  H   H835      1.0  0.43932  0.14209  0.77159  1.0000
  C   C702      1.0  0.27032  0.20631  0.72770  1.0000
  H   H836      1.0  0.49814  0.47153  0.80262  1.0000
  H   H837      1.0  0.48368  0.14801  0.94179  1.0000
  C   C703      1.0  0.47702  0.07795  0.77327  1.0000
  H   H838      1.0  0.28754  0.10267  0.72123  1.0000
  H   H839      1.0  0.43537  0.10876  0.75906  1.0000
  C   C704      1.0  0.32657  0.12546  0.97525  1.0000
  H   H840      1.0  0.32688  0.13522  0.95960  1.0000
  H   H841      1.0  0.44385  0.12938  0.71490  1.0000
  C   C705      1.0  0.45620  0.16483  0.74035  1.0000
  H   H842      1.0  0.47704  0.45224  0.72636  1.0000
  H   H843      1.0  0.26012  0.12681  0.68223  1.0000
  C   C706      1.0  0.46540  0.09107  0.76212  1.0000
  C   C707      1.0  0.38530  0.14022  0.68807  1.0000
  H   H844      1.0  0.26463  0.33238  0.68898  1.0000
  H   H845      1.0  0.36478  0.10024  0.65701  1.0000
  H   H846      1.0  0.45610  0.07767  0.75713  1.0000
  C   C708      1.0  0.27703  0.08724  0.94785  1.0000
  H   H847      1.0  0.47662  0.05512  0.77641  1.0000
  C   C709      1.0  0.50243  0.11824  0.72238  1.0000
  H   H848      1.0  0.46700  0.16818  0.73125  1.0000
  S   S190      1.0  0.41685  0.13653  0.68802  1.0000
  Fe  Fe95      1.0  0.30217  0.12654  0.65497  1.0000
  H   H849      1.0  0.27745  0.19984  0.75892  1.0000
  H   H850      1.0  0.48031  0.15904  0.76112  1.0000
  S   S191      1.0  0.31132  0.20758  0.66533  1.0000
  C   C710      1.0  0.28282  0.10708  0.70575  1.0000
  H   H851      1.0  0.25843  0.05118  0.70055  1.0000
  H   H852      1.0  0.47775  0.12916  0.97569  1.0000
  C   C711      1.0  0.49637  0.21317  0.96905  1.0000
  C   C712      1.0  0.26446  0.32312  0.70431  1.0000
  C   C713      1.0  0.49010  0.12326  0.77584  1.0000
  C   C714      1.0  0.26870  0.20875  0.74924  1.0000
  H   H853      1.0  0.36054  0.14365  0.68873  1.0000
  C   C715      1.0  0.48969  0.13272  0.97189  1.0000
  H   H854      1.0  0.42928  0.14151  0.74763  1.0000
  H   H855      1.0  0.38566  0.12704  0.70177  1.0000
  H   H856      1.0  0.44845  0.09633  0.72687  1.0000
  C   C716      1.0  0.49385  0.45758  0.74996  1.0000
  H   H857      1.0  0.46357  0.11862  0.71677  1.0000
  H   H858      1.0  0.25950  0.14946  0.71315  1.0000
  S   S192      1.0  0.28352  0.15990  0.65848  1.0000
  C   C717      1.0  0.43877  0.13144  0.75635  1.0000
  N   N46       1.0  0.45360  0.13396  0.74499  1.0000
  H   H859      1.0  0.44682  0.17403  0.73099  1.0000
  H   H860      1.0  0.26554  0.12778  0.94763  1.0000
  H   H861      1.0  0.48970  0.08167  0.71201  1.0000
  C   C718      1.0  0.50256  0.47708  0.76177  1.0000
  H   H862      1.0  0.26404  0.28767  0.75823  1.0000
  C   C719      1.0  0.45232  0.11889  0.72508  1.0000
  H   H863      1.0  0.45667  0.17784  0.75461  1.0000
  H   H864      1.0  0.49854  0.08368  0.78831  1.0000
  H   H865      1.0  0.30838  0.17172  0.97402  1.0000
  C   C720      1.0  0.29946  0.11480  0.97193  1.0000
  C   C721      1.0  0.49293  0.14371  0.95223  1.0000
  C   C722      1.0  0.26394  0.29872  0.74361  1.0000
  N   N47       1.0  0.26744  0.09406  0.70357  1.0000
  H   H866      1.0  0.28004  0.28914  0.69611  1.0000
  H   H867      1.0  0.27719  0.05605  0.68971  1.0000
  H   H868      1.0  0.49487  0.43464  0.75160  1.0000
  H   H869      1.0  0.29114  0.09874  0.69408  1.0000
  H   H870      1.0  0.49293  0.10070  0.67700  1.0000
  C   C723      1.0  0.48935  0.09402  0.78009  1.0000
  H   H871      1.0  0.28266  0.13071  0.70373  1.0000
  Fe  Fe96      1.0  0.32793  0.17104  0.66086  1.0000
  C   C724      1.0  0.37048  0.16694  0.66313  1.0000
  H   H872      1.0  0.50420  0.42614  0.78425  1.0000
  C   C725      1.0  0.27319  0.29883  0.70828  1.0000
  H   H873      1.0  0.49989  0.13554  0.78084  1.0000
  C   C726      1.0  0.26107  0.10315  0.68360  1.0000
  H   H874      1.0  0.26819  0.07652  0.93923  1.0000
  H   H875      1.0  0.28425  0.15197  0.96834  1.0000
  C   C727      1.0  0.25589  0.22256  0.75845  1.0000
  H   H876      1.0  0.30998  0.07237  0.97208  1.0000
  H   H877      1.0  0.29044  0.04919  0.95147  1.0000
  C   C728      1.0  0.30063  0.08535  0.96670  1.0000
  C   C729      1.0  0.39847  0.16524  0.66033  1.0000
  H   H878      1.0  0.26845  0.09608  0.67038  1.0000
  H   H879      1.0  0.33553  0.13616  0.98453  1.0000
  N   N48       1.0  0.31115  0.12832  0.98499  1.0000
  H   H880      1.0  0.26162  0.36956  0.76247  1.0000
  C   C730      1.0  0.50153  0.12783  0.98620  1.0000
  C   C731      1.0  0.49426  0.08734  0.66298  1.0000
  H   H881      1.0  0.50438  0.04645  0.73247  1.0000
  H   H882      1.0  0.49009  0.06547  0.66702  1.0000
  C   C732      1.0  0.25728  0.10387  0.72060  1.0000
  H   H883      1.0  0.25824  0.32342  0.78240  1.0000
  Fe  Fe97      1.0  0.43271  0.67979  0.04640  1.0000
  S   S193      1.0  0.43607  0.66431  0.07862  1.0000
  S   S194      1.0  0.40959  0.69773  0.03688  1.0000
  Fe  Fe98      1.0  0.46695  0.67281  0.03448  1.0000
  S   S195      1.0  0.47238  0.65588  0.06618  1.0000
  S   S196      1.0  0.48747  0.67430  0.01153  1.0000
  Fe  Fe99      1.0  0.45078  0.62957  0.06466  1.0000
  S   S197      1.0  0.44533  0.58306  0.07450  1.0000
  Fe  Fe100     1.0  0.45725  0.69162  0.07770  1.0000
  S   S198      1.0  0.46365  0.71651  0.10618  1.0000
  S   S199      1.0  0.44623  0.64373  0.03199  1.0000
  S   S200      1.0  0.45302  0.70999  0.04644  1.0000
  Fe  Fe101     1.0  0.28843  0.64787  0.03904  1.0000
  S   S201      1.0  0.27890  0.66431  0.06931  1.0000
  S   S202      1.0  0.27133  0.64339  0.01243  1.0000
  Fe  Fe102     1.0  0.32138  0.64730  0.05587  1.0000
  S   S203      1.0  0.31376  0.66282  0.08704  1.0000
  S   S204      1.0  0.34616  0.63241  0.05288  1.0000
  Fe  Fe103     1.0  0.29436  0.63155  0.08373  1.0000
  S   S205      1.0  0.28702  0.60494  0.11154  1.0000
  Fe  Fe104     1.0  0.29916  0.69441  0.07017  1.0000
  S   S206      1.0  0.29838  0.74325  0.07563  1.0000
  S   S207      1.0  0.30281  0.61358  0.05371  1.0000
  S   S208      1.0  0.30782  0.68037  0.03875  1.0000
  Fe  Fe105     1.0  0.46365  0.88087  0.13298  1.0000
  S   S209      1.0  0.45679  0.86393  0.16412  1.0000
  S   S210      1.0  0.46674  0.85267  0.10481  1.0000
  Fe  Fe106     1.0  0.46097  0.94404  0.14582  1.0000
  S   S211      1.0  0.45358  0.93094  0.17812  1.0000
  C   C733      1.0  0.26482  0.95347  0.22718  1.0000
  Fe  Fe107     1.0  0.47250  0.89775  0.17669  1.0000
  S   S212      1.0  0.48961  0.89485  0.20343  1.0000
  Fe  Fe108     1.0  0.43855  0.89821  0.16306  1.0000
  S   S213      1.0  0.41432  0.88186  0.17006  1.0000
  S   S214      1.0  0.48068  0.91275  0.14518  1.0000
  S   S215      1.0  0.44462  0.91327  0.13114  1.0000
  Fe  Fe109     1.0  0.29802  0.94022  0.13860  1.0000
  S   S216      1.0  0.30684  0.96018  0.16721  1.0000
  C   C734      1.0  0.26074  0.86181  0.23021  1.0000
  Fe  Fe110     1.0  0.30252  0.87901  0.15418  1.0000
  S   S217      1.0  0.31194  0.89547  0.18410  1.0000
  S   S218      1.0  0.30093  0.82975  0.15236  1.0000
  Fe  Fe111     1.0  0.29252  0.92746  0.18429  1.0000
  S   S219      1.0  0.28123  0.93588  0.21613  1.0000
  Fe  Fe112     1.0  0.32550  0.92693  0.16483  1.0000
  S   S220      1.0  0.34957  0.94488  0.16945  1.0000
  S   S221      1.0  0.28229  0.90924  0.15550  1.0000
  S   S222      1.0  0.31743  0.90869  0.13501  1.0000
  H   H884      1.0  0.29009  0.84129  0.23213  1.0000
  N   N49       1.0  0.33568  0.49271  0.10779  1.0000
  N   N50       1.0  0.27028  0.84941  0.21340  1.0000
  H   H885      1.0  0.27254  0.94736  0.25818  1.0000
  C   C735      1.0  0.43759  0.56270  0.14532  1.0000
  C   C736      1.0  0.39650  0.89990  0.16852  1.0000
  C   C737      1.0  0.39545  0.92980  0.16866  1.0000
  C   C738      1.0  0.38096  0.94309  0.16879  1.0000
  C   C739      1.0  0.36742  0.92677  0.16833  1.0000
  C   C740      1.0  0.36848  0.89689  0.16768  1.0000
  C   C741      1.0  0.38295  0.88355  0.16799  1.0000
  H   H886      1.0  0.40576  0.94256  0.16947  1.0000
  H   H887      1.0  0.38014  0.96614  0.16968  1.0000
  H   H888      1.0  0.35814  0.88409  0.16752  1.0000
  H   H889      1.0  0.38361  0.86042  0.16814  1.0000
  C   C742      1.0  0.29896  0.76669  0.09735  1.0000
  C   C743      1.0  0.30122  0.75677  0.11742  1.0000
  C   C744      1.0  0.30177  0.77633  0.13396  1.0000
  C   C745      1.0  0.30013  0.80608  0.13077  1.0000
  C   C746      1.0  0.29787  0.81597  0.11071  1.0000
  C   C747      1.0  0.29733  0.79643  0.09417  1.0000
  H   H890      1.0  0.30247  0.73404  0.12023  1.0000
  H   H891      1.0  0.30349  0.76832  0.14937  1.0000
  H   H892      1.0  0.29651  0.83869  0.10791  1.0000
  H   H893      1.0  0.29554  0.80445  0.07878  1.0000
  C   C748      1.0  0.28810  0.50659  0.11466  1.0000
  C   C749      1.0  0.28949  0.52071  0.09559  1.0000
  C   C750      1.0  0.28995  0.55083  0.09446  1.0000
  C   C751      1.0  0.28841  0.56711  0.11237  1.0000
  C   C752      1.0  0.28718  0.55298  0.13146  1.0000
  C   C753      1.0  0.28727  0.52284  0.13265  1.0000
  H   H894      1.0  0.29010  0.50831  0.08160  1.0000
  H   H895      1.0  0.29110  0.56138  0.07970  1.0000
  H   H896      1.0  0.28601  0.56543  0.14539  1.0000
  C   C754      1.0  0.49921  0.86758  0.21776  1.0000
  C   C755      1.0  0.46047  0.51306  0.12064  1.0000
  C   C756      1.0  0.46958  0.53766  0.11724  1.0000
  C   C757      1.0  0.46520  0.55924  0.10322  1.0000
  C   C758      1.0  0.45156  0.55662  0.09244  1.0000
  C   C759      1.0  0.44251  0.53192  0.09574  1.0000
  C   C760      1.0  0.44687  0.51035  0.10978  1.0000
  H   H897      1.0  0.48013  0.54001  0.12550  1.0000
  H   H898      1.0  0.47253  0.57756  0.10047  1.0000
  H   H899      1.0  0.43197  0.52955  0.08744  1.0000
  H   H900      1.0  0.25678  0.61013  0.26292  1.0000
  C   C761      1.0  0.46361  0.75444  0.10596  1.0000
  C   C762      1.0  0.46765  0.76934  0.12376  1.0000
  C   C763      1.0  0.46824  0.79951  0.12382  1.0000
  C   C764      1.0  0.46497  0.81496  0.10597  1.0000
  C   C765      1.0  0.46070  0.80006  0.08828  1.0000
  C   C766      1.0  0.45986  0.76995  0.08833  1.0000
  H   H901      1.0  0.47054  0.75754  0.13751  1.0000
  H   H902      1.0  0.47163  0.81078  0.13751  1.0000
  H   H903      1.0  0.45807  0.81188  0.07444  1.0000
  H   H904      1.0  0.45638  0.75883  0.07467  1.0000
  C   C767      1.0  0.39198  0.67977  0.04202  1.0000
  C   C768      1.0  0.39147  0.65280  0.05147  1.0000
  C   C769      1.0  0.37732  0.63887  0.05490  1.0000
  C   C770      1.0  0.36350  0.65185  0.04924  1.0000
  C   C771      1.0  0.36396  0.67900  0.04003  1.0000
  C   C772      1.0  0.37815  0.69282  0.03636  1.0000
  H   H905      1.0  0.40200  0.64240  0.05576  1.0000
  H   H906      1.0  0.37710  0.61773  0.06181  1.0000
  H   H907      1.0  0.35346  0.68879  0.03504  1.0000
  H   H908      1.0  0.37846  0.71350  0.02878  1.0000
  C   C773      1.0  0.48087  0.51272  0.06924  1.0000
  H   H909      1.0  0.29428  0.84519  0.20529  1.0000
  H   H910      1.0  0.27116  0.57310  0.05076  1.0000
  H   H911      1.0  0.27005  0.80596  0.22527  1.0000
  H   H912      1.0  0.33466  0.49547  0.14093  1.0000
  H   H913      1.0  0.46791  0.60956  0.17189  1.0000
  H   H914      1.0  0.33226  0.60521  0.08846  1.0000
  C   C774      1.0  0.50420  0.81767  0.22686  1.0000
  H   H915      1.0  0.32074  0.58780  0.12109  1.0000
  H   H916      1.0  0.42428  0.97113  0.14567  1.0000
  C   C775      1.0  0.48897  0.74826  0.04240  1.0000
  H   H917      1.0  0.26972  0.59600  0.07278  1.0000
  H   H918      1.0  0.27353  0.80877  0.19824  1.0000
  C   C776      1.0  0.50279  0.72611  0.06994  1.0000
  H   H919      1.0  0.32208  0.53775  0.13068  1.0000
  C   C777      1.0  0.48343  0.90848  0.27768  1.0000
  C   C778      1.0  0.47836  0.88810  0.26379  1.0000
  H   H920      1.0  0.48937  0.76328  0.02905  1.0000
  C   C779      1.0  0.26770  0.86294  0.19307  1.0000
  H   H921      1.0  0.26529  0.60975  0.04790  1.0000
  C   C780      1.0  0.26695  0.81837  0.21136  1.0000
  H   H922      1.0  0.48001  0.75625  0.05329  1.0000
  H   H923      1.0  0.28616  0.51220  0.14742  1.0000
  H   H924      1.0  0.49839  0.81756  0.31664  1.0000
  H   H925      1.0  0.48926  0.52791  0.07469  1.0000
  H   H926      1.0  0.47040  0.54340  0.04912  1.0000
  C   C781      1.0  0.34123  0.53456  0.08428  1.0000
  N   N51       1.0  0.45436  0.63757  0.13823  1.0000
  C   C782      1.0  0.46447  0.65551  0.15107  1.0000
  C   C783      1.0  0.46198  0.63419  0.11788  1.0000
  C   C784      1.0  0.43986  0.65365  0.13555  1.0000
  C   C785      1.0  0.45119  0.60877  0.14703  1.0000
  C   C786      1.0  0.49221  0.90024  0.29449  1.0000
  C   C787      1.0  0.44037  0.59035  0.13778  1.0000
  H   H927      1.0  0.49147  0.77846  0.08335  1.0000
  H   H928      1.0  0.28954  0.87613  0.22049  1.0000
  C   C788      1.0  0.33306  0.58273  0.09252  1.0000
  H   H929      1.0  0.47617  0.64628  0.15209  1.0000
  H   H930      1.0  0.46609  0.67741  0.14438  1.0000
  H   H931      1.0  0.45956  0.65823  0.16685  1.0000
  H   H932      1.0  0.47285  0.62198  0.11915  1.0000
  H   H933      1.0  0.46481  0.65530  0.11075  1.0000
  H   H934      1.0  0.45467  0.62247  0.10690  1.0000
  H   H935      1.0  0.43323  0.65489  0.15030  1.0000
  C   C789      1.0  0.26200  0.61583  0.99812  1.0000
  C   C790      1.0  0.32668  0.57288  0.11099  1.0000
  H   H936      1.0  0.43439  0.59667  0.12408  1.0000
  C   C791      1.0  0.32750  0.54384  0.11626  1.0000
  C   C792      1.0  0.45925  0.59750  0.16406  1.0000
  H   H937      1.0  0.50181  0.79515  0.22460  1.0000
  N   N52       1.0  0.41360  0.82105  0.12423  1.0000
  C   C793      1.0  0.42911  0.83367  0.12591  1.0000
  C   C794      1.0  0.40301  0.84460  0.11861  1.0000
  C   C795      1.0  0.40859  0.80995  0.14471  1.0000
  C   C796      1.0  0.41407  0.79727  0.10924  1.0000
  C   C797      1.0  0.40572  0.79764  0.09066  1.0000
  C   C798      1.0  0.42322  0.77274  0.11298  1.0000
  C   C799      1.0  0.40650  0.77467  0.07689  1.0000
  C   C800      1.0  0.42373  0.74979  0.09925  1.0000
  C   C801      1.0  0.41544  0.75080  0.08123  1.0000
  H   H938      1.0  0.42915  0.85245  0.13638  1.0000
  H   H939      1.0  0.43753  0.81829  0.13218  1.0000
  H   H940      1.0  0.43362  0.84110  0.11066  1.0000
  H   H941      1.0  0.40285  0.86189  0.13040  1.0000
  H   H942      1.0  0.39101  0.83684  0.11746  1.0000
  H   H943      1.0  0.40663  0.85516  0.10392  1.0000
  H   H944      1.0  0.39735  0.79881  0.14387  1.0000
  H   H945      1.0  0.41698  0.79483  0.15137  1.0000
  H   H946      1.0  0.40732  0.82747  0.15616  1.0000
  H   H947      1.0  0.39869  0.81555  0.08626  1.0000
  H   H948      1.0  0.43030  0.77132  0.12640  1.0000
  H   H949      1.0  0.40033  0.77541  0.06258  1.0000
  H   H950      1.0  0.43090  0.73139  0.10234  1.0000
  H   H951      1.0  0.41614  0.73320  0.07045  1.0000
  S   S223      1.0  0.29171  0.96742  0.11110  1.0000
  C   C802      1.0  0.45655  0.56958  0.17125  1.0000
  C   C803      1.0  0.26362  0.95613  0.24874  1.0000
  C   C804      1.0  0.27603  0.54376  0.23236  1.0000
  C   C805      1.0  0.26183  0.85106  0.25060  1.0000
  H   H952      1.0  0.47927  0.73303  0.99869  1.0000
  C   C806      1.0  0.48198  0.85934  0.26667  1.0000
  C   C807      1.0  0.33480  0.52371  0.10297  1.0000
  H   H953      1.0  0.41429  0.97085  0.12191  1.0000
  H   H954      1.0  0.48504  0.72705  0.03674  1.0000
  N   N53       1.0  0.34708  0.74635  0.08242  1.0000
  C   C808      1.0  0.33929  0.72011  0.09027  1.0000
  C   C809      1.0  0.34165  0.75144  0.06120  1.0000
  C   C810      1.0  0.36379  0.74087  0.08111  1.0000
  C   C811      1.0  0.34405  0.77062  0.09653  1.0000
  C   C812      1.0  0.33758  0.79700  0.08993  1.0000
  C   C813      1.0  0.34778  0.76841  0.11764  1.0000
  C   C814      1.0  0.33497  0.81948  0.10370  1.0000
  C   C815      1.0  0.34490  0.79090  0.13132  1.0000
  C   C816      1.0  0.33848  0.81635  0.12436  1.0000
  H   H955      1.0  0.32679  0.72395  0.09260  1.0000
  H   H956      1.0  0.34064  0.70184  0.07938  1.0000
  H   H957      1.0  0.34383  0.71250  0.10513  1.0000
  H   H958      1.0  0.34372  0.73257  0.05111  1.0000
  H   H959      1.0  0.34762  0.76990  0.05370  1.0000
  H   H960      1.0  0.32906  0.75533  0.06112  1.0000
  H   H961      1.0  0.36858  0.73488  0.09623  1.0000
  H   H962      1.0  0.36653  0.72282  0.07054  1.0000
  H   H963      1.0  0.37011  0.76012  0.07535  1.0000
  H   H964      1.0  0.33400  0.80060  0.07434  1.0000
  H   H965      1.0  0.35272  0.74907  0.12380  1.0000
  H   H966      1.0  0.32958  0.83909  0.09852  1.0000
  H   H967      1.0  0.34732  0.78844  0.14751  1.0000
  H   H968      1.0  0.33578  0.83344  0.13510  1.0000
  H   H969      1.0  0.43236  0.64380  0.12391  1.0000
  C   C817      1.0  0.49089  0.85089  0.28325  1.0000
  C   C818      1.0  0.49015  0.72754  0.99158  1.0000
  C   C819      1.0  0.44577  0.55222  0.16188  1.0000
  S   S224      1.0  0.46662  0.48686  0.13881  1.0000
  C   C820      1.0  0.49647  0.83831  0.21490  1.0000
  H   H970      1.0  0.48830  0.83157  0.20362  1.0000
  H   H971      1.0  0.27152  0.57003  0.25835  1.0000
  H   H972      1.0  0.27512  0.85339  0.18074  1.0000
  H   H973      1.0  0.47199  0.89465  0.25040  1.0000
  H   H974      1.0  0.48076  0.93090  0.27516  1.0000
  C   C821      1.0  0.26641  0.58699  0.99894  1.0000
  C   C822      1.0  0.28673  0.85308  0.21807  1.0000
  C   C823      1.0  0.50449  0.81673  0.08116  1.0000
  H   H975      1.0  0.27048  0.88620  0.19340  1.0000
  H   H976      1.0  0.44203  0.67596  0.12996  1.0000
  H   H977      1.0  0.31634  0.49070  0.12879  1.0000
  C   C824      1.0  0.49619  0.87104  0.29779  1.0000
  H   H978      1.0  0.42951  0.54884  0.13771  1.0000
  H   H979      1.0  0.49409  0.82853  0.28405  1.0000
  H   H980      1.0  0.49319  0.73165  0.08066  1.0000
  C   C825      1.0  0.26635  0.55934  0.24552  1.0000
  H   H981      1.0  0.26953  0.83374  0.25418  1.0000
  C   C826      1.0  0.50084  0.78884  0.07522  1.0000
  C   C827      1.0  0.34035  0.56365  0.07921  1.0000
  H   H982      1.0  0.27580  0.58071  0.00856  1.0000
  H   H983      1.0  0.34688  0.52059  0.07335  1.0000
  H   H984      1.0  0.46306  0.56105  0.18391  1.0000
  H   H985      1.0  0.28819  0.54245  0.23527  1.0000
  H   H986      1.0  0.34527  0.57158  0.06481  1.0000
  H   H987      1.0  0.44406  0.53028  0.16707  1.0000
  C   C828      1.0  0.27008  0.52919  0.21568  1.0000
  H   H988      1.0  0.49801  0.82697  0.09351  1.0000
  H   H989      1.0  0.35849  0.49631  0.11935  1.0000
  H   H990      1.0  0.45073  0.50959  0.03731  1.0000
  H   H991      1.0  0.27754  0.51641  0.20586  1.0000
  C   C829      1.0  0.49636  0.70030  0.99483  1.0000
  C   C830      1.0  0.47028  0.52149  0.05479  1.0000
  C   C831      1.0  0.45914  0.50241  0.04823  1.0000
  H   H992      1.0  0.43956  0.49193  0.11239  1.0000
  H   H993      1.0  0.47843  0.84367  0.25545  1.0000
  H   H994      1.0  0.49595  0.91722  0.30443  1.0000
  H   H995      1.0  0.50037  0.70374  0.06498  1.0000
  C   C832      1.0  0.26426  0.59051  0.05799  1.0000
  C   C833      1.0  0.32866  0.48503  0.12801  1.0000
  N   N54       1.0  0.50411  0.74608  0.05210  1.0000
  H   H996      1.0  0.35774  0.48558  0.09289  1.0000
  C   C834      1.0  0.48029  0.48494  0.07741  1.0000
  H   H997      1.0  0.25565  0.86027  0.18814  1.0000
  S   S225      1.0  0.44343  0.66096  0.63806  1.0000
  C   C835      1.0  0.34205  0.83052  0.60514  1.0000
  S   S226      1.0  0.46843  0.60380  0.61348  1.0000
  H   H998      1.0  0.39365  0.57250  0.61737  1.0000
  H   H999      1.0  0.33883  0.84061  0.57322  1.0000
  S   S227      1.0  0.32026  0.65827  0.63711  1.0000
  Fe  Fe113     1.0  0.29923  0.68612  0.63713  1.0000
  S   S228      1.0  0.29596  0.71279  0.60832  1.0000
  C   C836      1.0  0.26547  0.82110  0.41160  1.0000
  C   C837      1.0  0.42319  0.55284  0.64738  1.0000
  Fe  Fe114     1.0  0.46759  0.91999  0.53995  1.0000
  S   S229      1.0  0.47693  0.90189  0.56943  1.0000
  S   S230      1.0  0.48473  0.92069  0.51246  1.0000
  Fe  Fe115     1.0  0.43530  0.92703  0.55986  1.0000
  S   S231      1.0  0.44303  0.91021  0.59036  1.0000
  S   S232      1.0  0.41098  0.94489  0.56116  1.0000
  Fe  Fe116     1.0  0.46380  0.93784  0.58467  1.0000
  H   H1000     1.0  0.50055  0.65630  0.59642  1.0000
  Fe  Fe117     1.0  0.45527  0.87573  0.57258  1.0000
  S   S233      1.0  0.45202  0.82716  0.57850  1.0000
  S   S234      1.0  0.45546  0.95701  0.55529  1.0000
  S   S235      1.0  0.44657  0.89139  0.54192  1.0000
  Fe  Fe118     1.0  0.30111  0.87725  0.58464  1.0000
  S   S236      1.0  0.30695  0.86046  0.55321  1.0000
  S   S237      1.0  0.29473  0.84888  0.61196  1.0000
  Fe  Fe119     1.0  0.30386  0.94050  0.57160  1.0000
  S   S238      1.0  0.30952  0.92755  0.53875  1.0000
  C   C838      1.0  0.41096  0.51189  0.57970  1.0000
  Fe  Fe120     1.0  0.29078  0.89408  0.54165  1.0000
  S   S239      1.0  0.27121  0.88800  0.51850  1.0000
  Fe  Fe121     1.0  0.32511  0.89488  0.55293  1.0000
  S   S240      1.0  0.34855  0.88123  0.54068  1.0000
  S   S241      1.0  0.28398  0.90949  0.57341  1.0000
  S   S242      1.0  0.32051  0.90919  0.58537  1.0000
  H   H1001     1.0  0.48711  0.96771  0.56905  1.0000
  C   C839      1.0  0.49418  0.97572  0.55582  1.0000
  H   H1002     1.0  0.26751  0.79104  0.48746  1.0000
  C   C840      1.0  0.33838  0.79512  0.57886  1.0000
  H   H1003     1.0  0.46446  0.51146  0.57791  1.0000
  C   C841      1.0  0.39368  0.92740  0.55484  1.0000
  C   C842      1.0  0.37999  0.93573  0.56480  1.0000
  C   C843      1.0  0.36602  0.92206  0.56047  1.0000
  C   C844      1.0  0.36565  0.89995  0.54604  1.0000
  C   C845      1.0  0.37932  0.89182  0.53593  1.0000
  C   C846      1.0  0.39324  0.90564  0.54016  1.0000
  H   H1004     1.0  0.38021  0.95275  0.57602  1.0000
  H   H1005     1.0  0.35557  0.92858  0.56829  1.0000
  H   H1006     1.0  0.37908  0.87498  0.52456  1.0000
  H   H1007     1.0  0.40362  0.89969  0.53191  1.0000
  C   C847      1.0  0.30539  0.55196  0.62702  1.0000
  C   C848      1.0  0.29990  0.56101  0.60800  1.0000
  C   C849      1.0  0.29804  0.54111  0.59191  1.0000
  C   C850      1.0  0.30152  0.51185  0.59456  1.0000
  C   C851      1.0  0.30688  0.50273  0.61365  1.0000
  C   C852      1.0  0.30883  0.52266  0.62971  1.0000
  H   H1008     1.0  0.29720  0.58338  0.60562  1.0000
  H   H1009     1.0  0.29389  0.54848  0.57725  1.0000
  H   H1010     1.0  0.35855  0.54025  0.64067  1.0000
  H   H1011     1.0  0.34492  0.81526  0.63562  1.0000
  C   C853      1.0  0.29563  0.75056  0.60965  1.0000
  C   C854      1.0  0.29089  0.76477  0.62753  1.0000
  C   C855      1.0  0.29077  0.79492  0.62806  1.0000
  C   C856      1.0  0.29543  0.81107  0.61077  1.0000
  C   C857      1.0  0.30018  0.79682  0.59291  1.0000
  C   C858      1.0  0.30010  0.76670  0.59228  1.0000
  C   C859      1.0  0.26323  0.86062  0.50263  1.0000
  H   H1012     1.0  0.34043  0.71110  0.63543  1.0000
  H   H1013     1.0  0.30400  0.80895  0.57961  1.0000
  H   H1014     1.0  0.30375  0.75583  0.57838  1.0000
  C   C860      1.0  0.45914  0.76221  0.63161  1.0000
  C   C861      1.0  0.46424  0.79076  0.63343  1.0000
  C   C862      1.0  0.46181  0.81118  0.61769  1.0000
  C   C863      1.0  0.45440  0.80320  0.59971  1.0000
  C   C864      1.0  0.44905  0.77480  0.59804  1.0000
  C   C865      1.0  0.45128  0.75451  0.61390  1.0000
  H   H1015     1.0  0.49961  0.67783  0.62875  1.0000
  H   H1016     1.0  0.46596  0.83290  0.61928  1.0000
  H   H1017     1.0  0.44333  0.76830  0.58422  1.0000
  H   H1018     1.0  0.44706  0.73287  0.61228  1.0000
  C   C866      1.0  0.46459  0.50552  0.61071  1.0000
  C   C867      1.0  0.46491  0.52195  0.59266  1.0000
  C   C868      1.0  0.46615  0.55203  0.59370  1.0000
  C   C869      1.0  0.46684  0.56595  0.61276  1.0000
  C   C870      1.0  0.46622  0.54957  0.63081  1.0000
  C   C871      1.0  0.46519  0.51950  0.62976  1.0000
  H   H1019     1.0  0.28840  0.90569  0.47702  1.0000
  H   H1020     1.0  0.46660  0.56452  0.57965  1.0000
  S   S243      1.0  0.46344  0.73706  0.65153  1.0000
  H   H1021     1.0  0.27795  0.81916  0.40821  1.0000
  H   H1022     1.0  0.39331  0.54616  0.63766  1.0000
  C   C872      1.0  0.48836  0.61601  0.49308  1.0000
  H   H1023     1.0  0.40342  0.89887  0.60107  1.0000
  C   C873      1.0  0.49438  0.94689  0.49661  1.0000
  C   C874      1.0  0.41035  0.53507  0.59327  1.0000
  H   H1024     1.0  0.27940  0.82751  0.50988  1.0000
  C   C875      1.0  0.42439  0.50738  0.61821  1.0000
  H   H1025     1.0  0.47390  0.75354  0.54653  1.0000
  C   C876      1.0  0.34154  0.77942  0.61467  1.0000
  C   C877      1.0  0.26391  0.86669  0.39458  1.0000
  H   H1026     1.0  0.32804  0.72556  0.61650  1.0000
  H   H1027     1.0  0.46502  0.50694  0.64379  1.0000
  S   S244      1.0  0.28361  0.65140  0.64993  1.0000
  C   C878      1.0  0.48790  0.72525  0.59132  1.0000
  H   H1028     1.0  0.47027  0.79709  0.64705  1.0000
  C   C879      1.0  0.48125  0.72666  0.57158  1.0000
  Fe  Fe122     1.0  0.30511  0.62475  0.65210  1.0000
  C   C880      1.0  0.27317  0.90965  0.45154  1.0000
  H   H1029     1.0  0.49231  0.67161  0.57429  1.0000
  H   H1030     1.0  0.25910  0.88874  0.39444  1.0000
  C   C881      1.0  0.26610  0.89557  0.43532  1.0000
  H   H1031     1.0  0.48184  0.79866  0.56291  1.0000
  H   H1032     1.0  0.46754  0.69900  0.61648  1.0000
  H   H1033     1.0  0.28719  0.75253  0.64089  1.0000
  C   C882      1.0  0.47443  0.68471  0.60630  1.0000
  C   C883      1.0  0.42403  0.87412  0.64081  1.0000
  C   C884      1.0  0.28325  0.89496  0.46408  1.0000
  H   H1034     1.0  0.26114  0.78824  0.58654  1.0000
  H   H1035     1.0  0.34276  0.85287  0.60959  1.0000
  C   C885      1.0  0.26938  0.83297  0.50120  1.0000
  C   C886      1.0  0.33973  0.72745  0.62294  1.0000
  H   H1036     1.0  0.40476  0.55436  0.58811  1.0000
  H   H1037     1.0  0.31955  0.76332  0.64145  1.0000
  H   H1038     1.0  0.49840  0.52134  0.48350  1.0000
  C   C887      1.0  0.48380  0.77830  0.57055  1.0000
  S   S245      1.0  0.30870  0.57624  0.64768  1.0000
  H   H1039     1.0  0.26095  0.82111  0.59989  1.0000
  H   H1040     1.0  0.49657  0.75311  0.61571  1.0000
  H   H1041     1.0  0.43304  0.83150  0.64388  1.0000
  C   C888      1.0  0.27314  0.82708  0.56131  1.0000
  H   H1042     1.0  0.25851  0.85547  0.38145  1.0000
  H   H1043     1.0  0.46776  0.68099  0.59220  1.0000
  H   H1044     1.0  0.27836  0.80556  0.55926  1.0000
  H   H1045     1.0  0.33759  0.75163  0.58806  1.0000
  N   N55       1.0  0.34265  0.75683  0.63069  1.0000
  H   H1046     1.0  0.33514  0.51798  0.57383  1.0000
  H   H1047     1.0  0.28170  0.82916  0.44307  1.0000
  H   H1048     1.0  0.34831  0.72100  0.61101  1.0000
  H   H1049     1.0  0.25950  0.76924  0.55537  1.0000
  C   C889      1.0  0.39960  0.56510  0.63136  1.0000
  C   C890      1.0  0.33133  0.76224  0.64752  1.0000
  H   H1050     1.0  0.40607  0.51354  0.56454  1.0000
  H   H1051     1.0  0.42928  0.88183  0.65470  1.0000
  H   H1052     1.0  0.27643  0.86835  0.39126  1.0000
  C   C891      1.0  0.28633  0.86614  0.46046  1.0000
  H   H1053     1.0  0.41299  0.88321  0.56857  1.0000
  C   C892      1.0  0.26265  0.81232  0.48829  1.0000
  N   N56       1.0  0.48973  0.69726  0.60184  1.0000
  C   C893      1.0  0.34092  0.52185  0.58809  1.0000
  C   C894      1.0  0.33975  0.82369  0.58464  1.0000
  H   H1054     1.0  0.35958  0.73993  0.65121  1.0000
  N   N57       1.0  0.40467  0.84503  0.58395  1.0000
  C   C895      1.0  0.40584  0.81365  0.58048  1.0000
  C   C896      1.0  0.38823  0.85295  0.58267  1.0000
  C   C897      1.0  0.41326  0.85954  0.56706  1.0000
  C   C898      1.0  0.41097  0.85434  0.60382  1.0000
  C   C899      1.0  0.41970  0.83592  0.61653  1.0000
  C   C900      1.0  0.40919  0.88314  0.61043  1.0000
  H   H1055     1.0  0.29388  0.85468  0.47065  1.0000
  H   H1056     1.0  0.28700  0.80579  0.64191  1.0000
  C   C901      1.0  0.33838  0.54861  0.59711  1.0000
  H   H1057     1.0  0.40049  0.80726  0.56579  1.0000
  H   H1058     1.0  0.41803  0.80666  0.57916  1.0000
  H   H1059     1.0  0.40006  0.80136  0.59310  1.0000
  H   H1060     1.0  0.38297  0.84484  0.56834  1.0000
  H   H1061     1.0  0.38647  0.87652  0.58216  1.0000
  H   H1062     1.0  0.38152  0.84429  0.59601  1.0000
  H   H1063     1.0  0.42552  0.85344  0.56701  1.0000
  H   H1064     1.0  0.40869  0.85405  0.55172  1.0000
  H   H1065     1.0  0.36085  0.77772  0.64705  1.0000
  H   H1066     1.0  0.42218  0.81398  0.61250  1.0000
  H   H1067     1.0  0.41438  0.91504  0.63311  1.0000
  H   H1068     1.0  0.49857  0.89326  0.33676  1.0000
  H   H1069     1.0  0.27064  0.93197  0.45467  1.0000
  H   H1070     1.0  0.33633  0.79002  0.56289  1.0000
  H   H1071     1.0  0.39833  0.58271  0.64273  1.0000
  H   H1072     1.0  0.27984  0.83837  0.57317  1.0000
  C   C902      1.0  0.34309  0.80880  0.61995  1.0000
  H   H1073     1.0  0.47532  0.66359  0.61418  1.0000
  H   H1074     1.0  0.26250  0.80794  0.42549  1.0000
  C   C903      1.0  0.35390  0.53518  0.62580  1.0000
  H   H1075     1.0  0.33091  0.56398  0.58979  1.0000
  H   H1076     1.0  0.49314  0.79777  0.59734  1.0000
  H   H1077     1.0  0.29983  0.98107  0.62266  1.0000
  C   C904      1.0  0.41557  0.89274  0.62871  1.0000
  C   C905      1.0  0.27920  0.85172  0.44444  1.0000
  H   H1078     1.0  0.47723  0.70757  0.56406  1.0000
  C   C906      1.0  0.49791  0.69930  0.62161  1.0000
  C   C907      1.0  0.35822  0.75712  0.63939  1.0000
  H   H1079     1.0  0.27472  0.83899  0.54656  1.0000
  H   H1080     1.0  0.49008  0.96476  0.54184  1.0000
  N   N58       1.0  0.26087  0.85152  0.41436  1.0000
  C   C908      1.0  0.26887  0.86611  0.43127  1.0000
  H   H1081     1.0  0.46688  0.55999  0.64557  1.0000
  C   C909      1.0  0.47927  0.75283  0.56140  1.0000
  H   H1082     1.0  0.25819  0.90783  0.42623  1.0000
  S   S246      1.0  0.47384  0.96462  0.61029  1.0000
  H   H1083     1.0  0.31309  0.51537  0.64432  1.0000
  H   H1084     1.0  0.50334  0.59927  0.42125  1.0000
  C   C910      1.0  0.41701  0.53350  0.61301  1.0000
  C   C911      1.0  0.35673  0.50850  0.61677  1.0000
  H   H1085     1.0  0.25937  0.81090  0.39862  1.0000
  N   N59       1.0  0.41595  0.55816  0.62723  1.0000
  H   H1086     1.0  0.41800  0.59088  0.60355  1.0000
  H   H1087     1.0  0.43577  0.57874  0.61371  1.0000
  H   H1088     1.0  0.43024  0.50426  0.63252  1.0000
  C   C912      1.0  0.49850  0.67717  0.58848  1.0000
  C   C913      1.0  0.33918  0.77320  0.59357  1.0000
  H   H1089     1.0  0.36711  0.75355  0.62719  1.0000
  C   C914      1.0  0.49170  0.97640  0.49838  1.0000
  H   H1090     1.0  0.42360  0.60218  0.62847  1.0000
  C   C915      1.0  0.49215  0.75173  0.60037  1.0000
  H   H1091     1.0  0.43569  0.54881  0.64552  1.0000
  C   C916      1.0  0.42361  0.58354  0.61779  1.0000
  C   C917      1.0  0.49021  0.77774  0.58997  1.0000
  C   C918      1.0  0.42610  0.84579  0.63472  1.0000
  H   H1092     1.0  0.49126  0.71204  0.63317  1.0000
  Fe  Fe123     1.0  0.46168  0.62776  0.64254  1.0000
  C   C919      1.0  0.50250  0.49952  0.48398  1.0000
  C   C920      1.0  0.50531  0.93760  0.48188  1.0000
  C   C921      1.0  0.50109  0.64037  0.46451  1.0000
  C   C922      1.0  0.34463  0.55510  0.61605  1.0000
  S   S247      1.0  0.29948  0.48810  0.57329  1.0000
  H   H1093     1.0  0.48748  0.84270  0.33189  1.0000
  H   H1094     1.0  0.49468  0.57199  0.49777  1.0000
  C   C923      1.0  0.49649  0.59114  0.48849  1.0000
  H   H1095     1.0  0.48423  0.65984  0.48467  1.0000
  C   C924      1.0  0.49065  0.64056  0.48111  1.0000
  H   H1096     1.0  0.48024  0.61618  0.50589  1.0000
  C   C925      1.0  0.35003  0.50073  0.59785  1.0000
  H   H1097     1.0  0.34191  0.57533  0.62342  1.0000
  H   H1098     1.0  0.48534  0.48595  0.50658  1.0000
  H   H1099     1.0  0.36395  0.49373  0.62494  1.0000
  C   C926      1.0  0.41815  0.48655  0.58540  1.0000
  H   H1100     1.0  0.25762  0.86539  0.58411  1.0000
  N   N60       1.0  0.25677  0.82548  0.56736  1.0000
  C   C927      1.0  0.49919  0.83723  0.32613  1.0000
  H   H1101     1.0  0.50222  0.66008  0.45586  1.0000
  C   C928      1.0  0.42479  0.48430  0.60459  1.0000
  H   H1102     1.0  0.37278  0.48403  0.57164  1.0000
  Fe  Fe124     1.0  0.46489  0.64000  0.68854  1.0000
  H   H1103     1.0  0.27590  0.56567  0.90452  1.0000
  S   S248      1.0  0.47552  0.62981  0.72010  1.0000
  H   H1104     1.0  0.37742  0.61134  0.66174  1.0000
  H   H1105     1.0  0.31889  0.64802  0.72805  1.0000
  S   S249      1.0  0.45075  0.60842  0.67077  1.0000
  S   S250      1.0  0.44641  0.67415  0.68740  1.0000
  Fe  Fe125     1.0  0.28947  0.66979  0.68100  1.0000
  C   C929      1.0  0.28651  0.61067  0.95665  1.0000
  S   S251      1.0  0.27198  0.67178  0.70801  1.0000
  Fe  Fe126     1.0  0.32356  0.67582  0.66867  1.0000
  S   S252      1.0  0.34591  0.69539  0.67921  1.0000
  S   S253      1.0  0.30353  0.70610  0.66773  1.0000
  S   S254      1.0  0.30995  0.64076  0.68413  1.0000
  H   H1106     1.0  0.33146  0.74495  0.65938  1.0000
  C   C930      1.0  0.39138  0.67618  0.67590  1.0000
  C   C931      1.0  0.37735  0.69073  0.67860  1.0000
  C   C932      1.0  0.36336  0.67679  0.67505  1.0000
  H   H1107     1.0  0.26686  0.77062  0.73517  1.0000
  H   H1108     1.0  0.50207  0.89827  0.85920  1.0000
  C   C933      1.0  0.26931  0.72780  0.72302  1.0000
  H   H1109     1.0  0.26098  0.65740  0.92202  1.0000
  C   C934      1.0  0.27611  0.65657  0.94719  1.0000
  C   C935      1.0  0.36350  0.64825  0.66864  1.0000
  H   H1110     1.0  0.49649  0.65843  0.94386  1.0000
  N   N61       1.0  0.26042  0.60076  0.91057  1.0000
  C   C936      1.0  0.49994  0.83152  0.94174  1.0000
  H   H1111     1.0  0.42206  0.57169  0.65776  1.0000
  N   N62       1.0  0.31373  0.68976  0.74073  1.0000
  H   H1112     1.0  0.26015  0.63809  0.89056  1.0000
  H   H1113     1.0  0.49096  0.86869  0.86858  1.0000
  H   H1114     1.0  0.27647  0.61496  0.88715  1.0000
  C   C937      1.0  0.29032  0.69063  0.76478  1.0000
  C   C938      1.0  0.49130  0.60979  0.72993  1.0000
  C   C939      1.0  0.39149  0.64742  0.66990  1.0000
  C   C940      1.0  0.26821  0.64378  0.93114  1.0000
  Fe  Fe127     1.0  0.45777  0.68943  0.65772  1.0000
  H   H1115     1.0  0.48466  0.61776  0.76146  1.0000
  H   H1116     1.0  0.33793  0.68086  0.73777  1.0000
  H   H1117     1.0  0.47363  0.50428  0.72060  1.0000
  C   C941      1.0  0.32967  0.69256  0.74797  1.0000
  C   C942      1.0  0.50016  0.50676  0.75811  1.0000
  H   H1118     1.0  0.31094  0.64725  0.75356  1.0000
  C   C943      1.0  0.31281  0.70298  0.72004  1.0000
  C   C944      1.0  0.50218  0.59634  0.71719  1.0000
  H   H1119     1.0  0.29326  0.59783  0.96703  1.0000
  H   H1120     1.0  0.28754  0.66844  0.76203  1.0000
  H   H1121     1.0  0.29899  0.65494  0.73173  1.0000
  H   H1122     1.0  0.33074  0.68383  0.76383  1.0000
  H   H1123     1.0  0.33368  0.71516  0.74804  1.0000
  C   C945      1.0  0.29473  0.74897  0.77215  1.0000
  C   C946      1.0  0.26452  0.69920  0.72447  1.0000
  H   H1124     1.0  0.27048  0.69465  0.78479  1.0000
  Fe  Fe128     1.0  0.43328  0.64362  0.66755  1.0000
  C   C947      1.0  0.37749  0.63360  0.66625  1.0000
  H   H1125     1.0  0.31622  0.72592  0.71987  1.0000
  C   C948      1.0  0.30301  0.70461  0.75502  1.0000
  H   H1126     1.0  0.48234  0.70260  0.94743  1.0000
  H   H1127     1.0  0.41778  0.53442  0.65567  1.0000
  H   H1128     1.0  0.49725  0.81935  0.95559  1.0000
  H   H1129     1.0  0.29612  0.77178  0.77464  1.0000
  H   H1130     1.0  0.48888  0.74496  0.92601  1.0000
  H   H1131     1.0  0.35281  0.63724  0.66593  1.0000
  C   C949      1.0  0.28528  0.64005  0.95988  1.0000
  C   C950      1.0  0.28248  0.73460  0.78155  1.0000
  H   H1132     1.0  0.30093  0.70168  0.71422  1.0000
  C   C951      1.0  0.28033  0.70549  0.77796  1.0000
  H   H1133     1.0  0.50454  0.61681  0.92756  1.0000
  H   H1134     1.0  0.37736  0.71278  0.68366  1.0000
  C   C952      1.0  0.26396  0.61539  0.89071  1.0000
  C   C953      1.0  0.30490  0.73427  0.75914  1.0000
  H   H1135     1.0  0.47647  0.83659  0.93333  1.0000
  H   H1136     1.0  0.49125  0.90222  0.88261  1.0000
  H   H1137     1.0  0.31408  0.74648  0.75195  1.0000
  C   C954      1.0  0.31044  0.65866  0.73854  1.0000
  H   H1138     1.0  0.27431  0.74625  0.79109  1.0000
  H   H1139     1.0  0.48228  0.86268  0.90177  1.0000
  H   H1140     1.0  0.32051  0.69206  0.70874  1.0000
  C   C955      1.0  0.49136  0.70115  0.93580  1.0000
  C   C956      1.0  0.49184  0.85612  0.91091  1.0000
  C   C957      1.0  0.26924  0.61387  0.92734  1.0000
  H   H1141     1.0  0.40208  0.68699  0.67887  1.0000
  C   C958      1.0  0.26303  0.74861  0.73646  1.0000
  C   C959      1.0  0.49302  0.60763  0.75141  1.0000
  H   H1142     1.0  0.27776  0.73399  0.71148  1.0000
  C   C960      1.0  0.49972  0.67576  0.93361  1.0000
  C   C961      1.0  0.49501  0.72503  0.92373  1.0000
  C   C962      1.0  0.48983  0.51634  0.74345  1.0000
  H   H1143     1.0  0.48837  0.53917  0.74078  1.0000
  C   C963      1.0  0.27855  0.59758  0.94076  1.0000
  H   H1144     1.0  0.50107  0.59763  0.70068  1.0000
  S   S255      1.0  0.40865  0.62743  0.66729  1.0000
  H   H1145     1.0  0.27488  0.67929  0.95018  1.0000
  C   C964      1.0  0.49832  0.88681  0.87352  1.0000
  H   H1146     1.0  0.25792  0.60506  0.87770  1.0000
  C   C965      1.0  0.26354  0.56971  0.90774  1.0000
  H   H1147     1.0  0.25653  0.82870  0.87852  1.0000
  H   H1148     1.0  0.27959  0.57459  0.93970  1.0000
  H   H1149     1.0  0.25980  0.55694  0.92151  1.0000
  C   C966      1.0  0.48830  0.84111  0.92909  1.0000
  H   H1150     1.0  0.29104  0.64987  0.97270  1.0000
  H   H1151     1.0  0.25711  0.56077  0.89458  1.0000
  C   C967      1.0  0.49801  0.74777  0.97901  1.0000
  H   H1152     1.0  0.49310  0.76879  0.97677  1.0000
  S   S256      1.0  0.47706  0.65734  0.66019  1.0000
  H   H1153     1.0  0.33350  0.78254  0.65579  1.0000
  C   C968      1.0  0.48154  0.49671  0.73206  1.0000
  C   C969      1.0  0.25879  0.56624  0.98700  1.0000
  C   C970      1.0  0.50536  0.59239  0.76002  1.0000
  H   H1154     1.0  0.26241  0.54410  0.98770  1.0000
  Fe  Fe129     1.0  0.57384  0.29069  0.29390  1.0000
  S   S257      1.0  0.59625  0.30032  0.27670  1.0000
  Fe  Fe130     1.0  0.53882  0.29398  0.28806  1.0000
  C   C971      1.0  0.74884  0.12343  0.27616  1.0000
  S   S258      1.0  0.51955  0.29759  0.26431  1.0000
  H   H1155     1.0  0.74296  0.24090  0.31452  1.0000
  S   S259      1.0  0.55660  0.32642  0.29713  1.0000
  S   S260      1.0  0.55641  0.25943  0.28256  1.0000
  Fe  Fe131     1.0  0.71657  0.27659  0.28782  1.0000
  C   C972      1.0  0.75339  0.32116  0.14471  1.0000
  S   S261      1.0  0.73542  0.27265  0.26244  1.0000
  H   H1156     1.0  0.73583  0.11195  0.30343  1.0000
  H   H1157     1.0  0.51733  0.13862  0.02149  1.0000
  C   C973      1.0  0.55997  0.32328  0.24429  1.0000
  S   S262      1.0  0.69557  0.30547  0.28952  1.0000
  S   S263      1.0  0.70402  0.23963  0.30278  1.0000
  H   H1158     1.0  0.55917  0.36378  0.21034  1.0000
  C   C974      1.0  0.73374  0.46983  0.30918  1.0000
  C   C975      1.0  0.74421  0.24431  0.24791  1.0000
  C   C976      1.0  0.62831  0.25595  0.30858  1.0000
  C   C977      1.0  0.58071  0.23137  0.99303  1.0000
  H   H1159     1.0  0.52630  0.13129  0.98944  1.0000
  S   S264      1.0  0.72558  0.29435  0.31752  1.0000
  C   C978      1.0  0.61385  0.28710  0.28605  1.0000
  C   C979      1.0  0.62778  0.29766  0.27780  1.0000
  C   C980      1.0  0.64193  0.28756  0.28503  1.0000
  C   C981      1.0  0.64223  0.26650  0.30041  1.0000
  H   H1160     1.0  0.65017  0.37591  0.31128  1.0000
  C   C982      1.0  0.73675  0.41963  0.31792  1.0000
  H   H1161     1.0  0.62762  0.31371  0.26575  1.0000
  H   H1162     1.0  0.65257  0.29564  0.27845  1.0000
  H   H1163     1.0  0.51464  0.39425  0.23285  1.0000
  H   H1164     1.0  0.74995  0.43095  0.00329  1.0000
  H   H1165     1.0  0.58369  0.24237  0.00753  1.0000
  C   C983      1.0  0.54953  0.35127  0.20532  1.0000
  C   C984      1.0  0.61420  0.26631  0.30157  1.0000
  C   C985      1.0  0.61152  0.26223  0.99126  1.0000
  C   C986      1.0  0.57464  0.30949  0.21424  1.0000
  H   H1166     1.0  0.56371  0.34593  0.24262  1.0000
  C   C987      1.0  0.51970  0.23158  0.99437  1.0000
  C   C988      1.0  0.73826  0.39777  0.01961  1.0000
  H   H1167     1.0  0.66644  0.35347  0.31622  1.0000
  C   C989      1.0  0.55590  0.27749  0.22890  1.0000
  H   H1168     1.0  0.52863  0.23887  0.00437  1.0000
  H   H1169     1.0  0.56491  0.26754  0.23849  1.0000
  H   H1170     1.0  0.62841  0.23957  0.32038  1.0000
  H   H1171     1.0  0.73468  0.39126  0.07139  1.0000
  H   H1172     1.0  0.55531  0.26462  0.21459  1.0000
  N   N63       1.0  0.55928  0.30813  0.22438  1.0000
  H   H1173     1.0  0.53178  0.28582  0.20860  1.0000
  H   H1174     1.0  0.58503  0.20898  0.99402  1.0000
  H   H1175     1.0  0.73689  0.39727  0.31342  1.0000
  H   H1176     1.0  0.54492  0.27497  0.23778  1.0000
  H   H1177     1.0  0.60501  0.27323  0.00308  1.0000
  H   H1178     1.0  0.72571  0.21400  0.25103  1.0000
  C   C990      1.0  0.52584  0.35033  0.18666  1.0000
  H   H1179     1.0  0.52653  0.35872  0.25620  1.0000
  H   H1180     1.0  0.58346  0.29855  0.22367  1.0000
  H   H1181     1.0  0.56823  0.31290  0.25481  1.0000
  C   C991      1.0  0.53868  0.36512  0.19328  1.0000
  H   H1182     1.0  0.74234  0.22145  0.18565  1.0000
  C   C992      1.0  0.73402  0.38623  0.03864  1.0000
  H   H1183     1.0  0.75231  0.34234  0.15137  1.0000
  H   H1184     1.0  0.57876  0.33185  0.21206  1.0000
  H   H1185     1.0  0.56794  0.23045  0.99262  1.0000
  C   C993      1.0  0.74277  0.12832  0.29578  1.0000
  C   C994      1.0  0.65371  0.35480  0.31761  1.0000
  C   C995      1.0  0.53446  0.30767  0.20432  1.0000
  C   C996      1.0  0.73699  0.21798  0.24445  1.0000
  H   H1186     1.0  0.73310  0.43513  0.28734  1.0000
  H   H1187     1.0  0.54002  0.38762  0.18940  1.0000
  H   H1188     1.0  0.57452  0.29907  0.19890  1.0000
  S   S265      1.0  0.65956  0.25220  0.30982  1.0000
  C   C997      1.0  0.62749  0.26444  0.99174  1.0000
  H   H1189     1.0  0.73933  0.25914  0.18516  1.0000
  C   C998      1.0  0.54777  0.32208  0.21124  1.0000
  H   H1190     1.0  0.54855  0.32332  0.25218  1.0000
  C   C999      1.0  0.51029  0.37253  0.23343  1.0000
  C   C1000     1.0  0.51714  0.35234  0.24665  1.0000
  H   H1191     1.0  0.73279  0.20773  0.31492  1.0000
  C   C1001     1.0  0.74650  0.42346  0.01843  1.0000
  C   C1002     1.0  0.52378  0.32167  0.19210  1.0000
  H   H1192     1.0  0.64917  0.33793  0.30738  1.0000
  H   H1193     1.0  0.72787  0.36604  0.03945  1.0000
  H   H1194     1.0  0.75505  0.29032  0.99715  1.0000
  Fe  Fe132     1.0  0.68396  0.26961  0.30725  1.0000
  C   C1003     1.0  0.74187  0.24043  0.17516  1.0000
  H   H1195     1.0  0.60359  0.25787  0.30799  1.0000
  H   H1196     1.0  0.73198  0.23746  0.16485  1.0000
  H   H1197     1.0  0.73825  0.17706  0.22904  1.0000
  Fe  Fe133     1.0  0.55290  0.24614  0.31575  1.0000
  H   H1198     1.0  0.63291  0.27718  0.00345  1.0000
  H   H1199     1.0  0.75012  0.21124  0.14139  1.0000
  H   H1200     1.0  0.73546  0.38637  0.00567  1.0000
  C   C1004     1.0  0.74416  0.19702  0.23188  1.0000
  H   H1201     1.0  0.51352  0.31052  0.18742  1.0000
  C   C1005     1.0  0.51166  0.32413  0.24765  1.0000
  C   C1006     1.0  0.73788  0.40047  0.05659  1.0000
  Fe  Fe134     1.0  0.70389  0.32037  0.32050  1.0000
  H   H1202     1.0  0.75182  0.30009  0.17375  1.0000
  H   H1203     1.0  0.74883  0.43590  0.07012  1.0000
  C   C1007     1.0  0.73451  0.44103  0.30330  1.0000
  H   H1204     1.0  0.73799  0.22381  0.29080  1.0000
  C   C1008     1.0  0.74542  0.15439  0.30560  1.0000
  C   C1009     1.0  0.74198  0.21984  0.30671  1.0000
  C   C1010     1.0  0.75550  0.31839  0.12355  1.0000
  H   H1205     1.0  0.51719  0.36135  0.17786  1.0000
  C   C1011     1.0  0.74606  0.42628  0.05560  1.0000
  H   H1206     1.0  0.74010  0.15733  0.32056  1.0000
  H   H1207     1.0  0.51894  0.08986  0.00755  1.0000
  C   C1012     1.0  0.75317  0.29686  0.15737  1.0000
  H   H1208     1.0  0.74667  0.10328  0.26850  1.0000
  C   C1013     1.0  0.75071  0.43853  0.03638  1.0000
  S   S266      1.0  0.53411  0.27880  0.32071  1.0000
  H   H1209     1.0  0.62679  0.31877  0.31983  1.0000
  C   C1014     1.0  0.50629  0.08803  0.00924  1.0000
  C   C1015     1.0  0.75445  0.17630  0.29615  1.0000
  H   H1210     1.0  0.74946  0.47974  0.00629  1.0000
  S   S267      1.0  0.55121  0.19715  0.32015  1.0000
  C   C1016     1.0  0.50644  0.21841  0.00308  1.0000
  C   C1017     1.0  0.75528  0.26897  0.14916  1.0000
  H   H1211     1.0  0.58302  0.28761  0.98887  1.0000
  H   H1212     1.0  0.51473  0.42841  0.37937  1.0000
  H   H1213     1.0  0.69032  0.42685  0.33357  1.0000
  S   S268      1.0  0.55454  0.33775  0.35719  1.0000
  H   H1214     1.0  0.73983  0.41017  0.34986  1.0000
  S   S269      1.0  0.69160  0.28532  0.33797  1.0000
  H   H1215     1.0  0.65430  0.39483  0.34673  1.0000
  H   H1216     1.0  0.51337  0.39296  0.59916  1.0000
  S   S270      1.0  0.72276  0.22981  0.35686  1.0000
  Fe  Fe135     1.0  0.57321  0.01159  0.41492  1.0000
  S   S271      1.0  0.56775  0.02802  0.38351  1.0000
  H   H1217     1.0  0.51937  0.09774  0.39839  1.0000
  Fe  Fe136     1.0  0.53926  0.01278  0.42973  1.0000
  S   S272      1.0  0.53176  0.02955  0.39885  1.0000
  S   S273      1.0  0.52174  0.01306  0.45682  1.0000
  H   H1218     1.0  0.59888  0.13327  0.35546  1.0000
  H   H1219     1.0  0.51396  0.02672  0.54744  1.0000
  Fe  Fe137     1.0  0.55210  0.05934  0.39942  1.0000
  S   S274      1.0  0.55211  0.10845  0.39579  1.0000
  H   H1220     1.0  0.53520  0.09626  0.43138  1.0000
  S   S275      1.0  0.55880  0.04460  0.43110  1.0000
  Fe  Fe138     1.0  0.70526  0.00646  0.39949  1.0000
  S   S276      1.0  0.69596  0.02249  0.43004  1.0000
  S   S277      1.0  0.71451  0.45990  0.39780  1.0000
  Fe  Fe139     1.0  0.70975  0.06834  0.38430  1.0000
  S   S278      1.0  0.70134  0.08788  0.41383  1.0000
  S   S279      1.0  0.71422  0.09460  0.35542  1.0000
  Fe  Fe140     1.0  0.71556  0.05430  0.42951  1.0000
  S   S280      1.0  0.72836  0.05726  0.46025  1.0000
  Fe  Fe141     1.0  0.68261  0.05471  0.41198  1.0000
  S   S281      1.0  0.65857  0.07300  0.41610  1.0000
  S   S282      1.0  0.72545  0.03686  0.39972  1.0000
  S   S283      1.0  0.69038  0.03671  0.38163  1.0000
  H   H1221     1.0  0.65365  0.37026  0.36845  1.0000
  H   H1222     1.0  0.59691  0.11564  0.33083  1.0000
  H   H1223     1.0  0.52693  0.11892  0.64553  1.0000
  H   H1224     1.0  0.53572  0.42802  0.40602  1.0000
  C   C1018     1.0  0.52678  0.42011  0.41705  1.0000
  H   H1225     1.0  0.60230  0.39312  0.36334  1.0000
  C   C1019     1.0  0.74670  0.07467  0.49211  1.0000
  C   C1020     1.0  0.62270  0.05883  0.36553  1.0000
  C   C1021     1.0  0.64195  0.09838  0.34565  1.0000
  H   H1226     1.0  0.59596  0.06247  0.32936  1.0000
  C   C1022     1.0  0.61435  0.01922  0.41940  1.0000
  C   C1023     1.0  0.61374  0.04918  0.41994  1.0000
  C   C1024     1.0  0.62738  0.06538  0.41890  1.0000
  C   C1025     1.0  0.64173  0.05179  0.41738  1.0000
  C   C1026     1.0  0.64232  0.02188  0.41677  1.0000
  C   C1027     1.0  0.62869  0.00571  0.41785  1.0000
  H   H1227     1.0  0.60281  0.05977  0.42174  1.0000
  H   H1228     1.0  0.63400  0.20749  0.35179  1.0000
  H   H1229     1.0  0.65328  0.01117  0.41565  1.0000
  H   H1230     1.0  0.64341  0.03607  0.37261  1.0000
  C   C1028     1.0  0.70288  0.39269  0.34792  1.0000
  C   C1029     1.0  0.71152  0.38529  0.36505  1.0000
  C   C1030     1.0  0.71465  0.40594  0.38029  1.0000
  C   C1031     1.0  0.70907  0.43421  0.37885  1.0000
  C   C1032     1.0  0.70002  0.44135  0.36203  1.0000
  C   C1033     1.0  0.69707  0.42081  0.34665  1.0000
  H   H1231     1.0  0.71605  0.36381  0.36639  1.0000
  H   H1232     1.0  0.72160  0.40002  0.39322  1.0000
  H   H1233     1.0  0.69541  0.46273  0.36074  1.0000
  H   H1234     1.0  0.52160  0.46957  0.39819  1.0000
  C   C1034     1.0  0.71988  0.19229  0.35666  1.0000
  C   C1035     1.0  0.72557  0.17548  0.37277  1.0000
  C   C1036     1.0  0.72351  0.14553  0.37293  1.0000
  C   C1037     1.0  0.71615  0.13216  0.35664  1.0000
  C   C1038     1.0  0.71057  0.14891  0.34051  1.0000
  C   C1039     1.0  0.71219  0.17886  0.34068  1.0000
  H   H1235     1.0  0.73154  0.18566  0.38521  1.0000
  H   H1236     1.0  0.72796  0.13272  0.38537  1.0000
  Fe  Fe142     1.0  0.55320  0.30915  0.32914  1.0000
  H   H1237     1.0  0.51104  0.37936  0.56323  1.0000
  C   C1040     1.0  0.55153  0.17298  0.34149  1.0000
  C   C1041     1.0  0.55352  0.18222  0.36170  1.0000
  C   C1042     1.0  0.55367  0.16214  0.37803  1.0000
  C   C1043     1.0  0.55187  0.13258  0.37445  1.0000
  C   C1044     1.0  0.54991  0.12329  0.35426  1.0000
  C   C1045     1.0  0.54979  0.14337  0.33792  1.0000
  H   H1238     1.0  0.55488  0.20485  0.36473  1.0000
  H   H1239     1.0  0.55519  0.16964  0.39357  1.0000
  H   H1240     1.0  0.54841  0.10070  0.35120  1.0000
  H   H1241     1.0  0.51980  0.35069  0.53696  1.0000
  C   C1046     1.0  0.55075  0.37494  0.35610  1.0000
  C   C1047     1.0  0.54098  0.38672  0.34152  1.0000
  C   C1048     1.0  0.53717  0.41604  0.34233  1.0000
  C   C1049     1.0  0.54333  0.43390  0.35743  1.0000
  C   C1050     1.0  0.55359  0.42231  0.37145  1.0000
  C   C1051     1.0  0.55706  0.39289  0.37100  1.0000
  H   H1242     1.0  0.62683  0.08850  0.41956  1.0000
  C   C1052     1.0  0.50682  0.42087  0.39194  1.0000
  H   H1243     1.0  0.55868  0.43587  0.38287  1.0000
  H   H1244     1.0  0.56469  0.38397  0.38227  1.0000
  H   H1245     1.0  0.52718  0.39635  0.41618  1.0000
  H   H1246     1.0  0.64859  0.30494  0.33619  1.0000
  C   C1053     1.0  0.74143  0.98725  0.43286  1.0000
  N   N64       1.0  0.59913  0.08703  0.35687  1.0000
  C   C1054     1.0  0.59347  0.08650  0.37852  1.0000
  C   C1055     1.0  0.61597  0.08319  0.35617  1.0000
  C   C1056     1.0  0.53635  0.00575  0.50738  1.0000
  H   H1247     1.0  0.52483  0.09328  0.45536  1.0000
  H   H1248     1.0  0.53603  0.37307  0.33000  1.0000
  H   H1249     1.0  0.52929  0.42484  0.33135  1.0000
  C   C1057     1.0  0.73549  0.15318  0.54676  1.0000
  H   H1250     1.0  0.72469  0.12109  0.52823  1.0000
  H   H1251     1.0  0.59413  0.04199  0.35268  1.0000
  H   H1252     1.0  0.58097  0.09094  0.37969  1.0000
  H   H1253     1.0  0.59508  0.06530  0.38599  1.0000
  N   N65       1.0  0.51148  0.43186  0.41226  1.0000
  H   H1254     1.0  0.52197  0.31418  0.54530  1.0000
  C   C1058     1.0  0.51422  0.32923  0.53723  1.0000
  Fe  Fe143     1.0  0.54808  0.99682  0.38542  1.0000
  H   H1255     1.0  0.74061  0.24481  0.52105  1.0000
  C   C1059     1.0  0.62191  0.33536  0.32938  1.0000
  H   H1256     1.0  0.54242  0.01470  0.49412  1.0000
  C   C1060     1.0  0.51120  0.07028  0.63619  1.0000
  H   H1257     1.0  0.52999  0.45679  0.46303  1.0000
  S   S284      1.0  0.53716  0.46996  0.35925  1.0000
  H   H1258     1.0  0.51670  0.42117  0.48574  1.0000
  H   H1259     1.0  0.75162  0.23552  0.55620  1.0000
  C   C1061     1.0  0.52019  0.46320  0.47226  1.0000
  C   C1062     1.0  0.74241  0.07997  0.47165  1.0000
  H   H1260     1.0  0.58129  0.11683  0.34871  1.0000
  H   H1261     1.0  0.52387  0.06554  0.43654  1.0000
  C   C1063     1.0  0.51105  0.98681  0.47131  1.0000
  H   H1262     1.0  0.51719  0.47311  0.42493  1.0000
  C   C1064     1.0  0.73515  0.47796  0.33013  1.0000
  C   C1065     1.0  0.75231  0.23980  0.51501  1.0000
  C   C1066     1.0  0.62487  0.17435  0.37160  1.0000
  C   C1067     1.0  0.60787  0.37703  0.35382  1.0000
  C   C1068     1.0  0.52020  0.01202  0.53765  1.0000
  H   H1263     1.0  0.63007  0.39068  0.36182  1.0000
  H   H1264     1.0  0.74928  0.18565  0.49481  1.0000
  H   H1265     1.0  0.61916  0.13925  0.39192  1.0000
  C   C1069     1.0  0.59396  0.11441  0.34754  1.0000
  C   C1070     1.0  0.51270  0.44308  0.48536  1.0000
  C   C1071     1.0  0.51310  0.46348  0.41040  1.0000
  C   C1072     1.0  0.59893  0.35803  0.34272  1.0000
  H   H1266     1.0  0.51352  0.32239  0.52090  1.0000
  H   H1267     1.0  0.50578  0.04879  0.63784  1.0000
  C   C1073     1.0  0.62830  0.15168  0.38475  1.0000
  N   N66       1.0  0.67185  0.15464  0.38562  1.0000
  C   C1074     1.0  0.67626  0.12710  0.37599  1.0000
  C   C1075     1.0  0.68296  0.17687  0.37848  1.0000
  C   C1076     1.0  0.67342  0.15191  0.40826  1.0000
  C   C1077     1.0  0.65583  0.16142  0.38037  1.0000
  C   C1078     1.0  0.65195  0.18382  0.36649  1.0000
  C   C1079     1.0  0.64354  0.14493  0.38881  1.0000
  C   C1080     1.0  0.63667  0.19010  0.36227  1.0000
  Fe  Fe144     1.0  0.71232  0.25797  0.33228  1.0000
  H   H1268     1.0  0.59940  0.10271  0.38797  1.0000
  H   H1269     1.0  0.66898  0.10903  0.38170  1.0000
  H   H1270     1.0  0.67536  0.12811  0.35896  1.0000
  H   H1271     1.0  0.68829  0.12128  0.37939  1.0000
  H   H1272     1.0  0.67994  0.19843  0.38456  1.0000
  H   H1273     1.0  0.68378  0.17807  0.36141  1.0000
  H   H1274     1.0  0.69474  0.17211  0.38368  1.0000
  H   H1275     1.0  0.68558  0.14895  0.41268  1.0000
  H   H1276     1.0  0.66895  0.17125  0.41629  1.0000
  H   H1277     1.0  0.66733  0.13287  0.41473  1.0000
  H   H1278     1.0  0.66047  0.19697  0.35868  1.0000
  H   H1279     1.0  0.64562  0.12663  0.39865  1.0000
  H   H1280     1.0  0.58651  0.35930  0.34365  1.0000
  H   H1281     1.0  0.73876  0.01034  0.43504  1.0000
  C   C1081     1.0  0.50896  0.09328  0.40808  1.0000
  H   H1282     1.0  0.70488  0.13869  0.32785  1.0000
  H   H1283     1.0  0.61578  0.04278  0.37342  1.0000
  C   C1082     1.0  0.73135  0.14073  0.52825  1.0000
  C   C1083     1.0  0.65267  0.32223  0.34648  1.0000
  H   H1284     1.0  0.62211  0.12189  0.33836  1.0000
  C   C1084     1.0  0.73612  0.15312  0.50972  1.0000
  S   S285      1.0  0.55513  0.48194  0.41372  1.0000
  N   N67       1.0  0.51079  0.10352  0.42944  1.0000
  H   H1285     1.0  0.74745  0.18623  0.56171  1.0000
  C   C1085     1.0  0.62389  0.37533  0.35278  1.0000
  C   C1086     1.0  0.62611  0.10285  0.34605  1.0000
  N   N68       1.0  0.64829  0.35123  0.33924  1.0000
  C   C1087     1.0  0.59179  0.06327  0.34561  1.0000
  C   C1088     1.0  0.52851  0.02364  0.52101  1.0000
  H   H1286     1.0  0.52861  0.04658  0.51833  1.0000
  H   H1287     1.0  0.73196  0.14317  0.56116  1.0000
  C   C1089     1.0  0.52419  0.08910  0.43858  1.0000
  H   H1288     1.0  0.61305  0.17973  0.36857  1.0000
  H   H1289     1.0  0.64947  0.11365  0.33789  1.0000
  H   H1290     1.0  0.66531  0.31984  0.34704  1.0000
  C   C1090     1.0  0.50723  0.36415  0.57484  1.0000
  H   H1291     1.0  0.74128  0.05728  0.50059  1.0000
  H   H1292     1.0  0.57908  0.06560  0.34551  1.0000
  C   C1091     1.0  0.65663  0.37248  0.35181  1.0000
  C   C1092     1.0  0.73739  0.45555  0.34459  1.0000
  H   H1293     1.0  0.53032  0.42646  0.43273  1.0000
  C   C1093     1.0  0.50866  0.37215  0.59540  1.0000
  H   H1294     1.0  0.64791  0.31782  0.36217  1.0000
  C   C1094     1.0  0.73837  0.42693  0.33847  1.0000
  H   H1295     1.0  0.75207  0.19021  0.33805  1.0000
  C   C1095     1.0  0.60595  0.33732  0.33046  1.0000
  H   H1296     1.0  0.50696  0.39708  0.39124  1.0000
  H   H1297     1.0  0.73327  0.14286  0.49535  1.0000
  C   C1096     1.0  0.74446  0.17808  0.54682  1.0000
  C   C1097     1.0  0.63141  0.35425  0.34049  1.0000
  C   C1098     1.0  0.51463  0.11726  0.65013  1.0000
  H   H1298     1.0  0.66930  0.36963  0.35043  1.0000
  H   H1299     1.0  0.70755  0.19141  0.32835  1.0000
  H   H1300     1.0  0.52328  0.06745  0.63091  1.0000
  S   S286      1.0  0.69921  0.36818  0.32747  1.0000
  C   C1099     1.0  0.63854  0.05464  0.36505  1.0000
  S   S287      1.0  0.57165  0.27542  0.32652  1.0000
  H   H1301     1.0  0.71824  0.99722  0.46002  1.0000
  C   C1100     1.0  0.64815  0.07436  0.35516  1.0000
  H   H1302     1.0  0.73779  0.45972  0.36091  1.0000
  H   H1303     1.0  0.50782  0.12570  0.63710  1.0000
  H   H1304     1.0  0.66043  0.07090  0.35491  1.0000
  C   C1101     1.0  0.74948  0.10272  0.46102  1.0000
  H   H1305     1.0  0.51620  0.14370  0.44389  1.0000
  H   H1306     1.0  0.51221  0.00727  0.57871  1.0000
  H   H1307     1.0  0.74638  0.10720  0.44532  1.0000
  C   C1102     1.0  0.51428  0.13469  0.42834  1.0000
  C   C1103     1.0  0.74964  0.19116  0.52813  1.0000
  H   H1308     1.0  0.52494  0.13896  0.41904  1.0000
  H   H1309     1.0  0.54819  0.13596  0.32237  1.0000
  H   H1310     1.0  0.50696  0.06979  0.40739  1.0000
  S   S288      1.0  0.59762  0.99773  0.42132  1.0000
  C   C1104     1.0  0.74523  0.17779  0.50959  1.0000
  H   H1311     1.0  0.59896  0.32262  0.32174  1.0000
  H   H1312     1.0  0.75128  0.23361  0.49863  1.0000
  C   C1105     1.0  0.51522  0.98416  0.57831  1.0000
  H   H1313     1.0  0.75380  0.98508  0.42881  1.0000
  Fe  Fe145     1.0  0.54474  0.04871  0.78863  1.0000
  S   S289      1.0  0.53301  0.02961  0.81675  1.0000
  S   S290      1.0  0.52982  0.05119  0.75969  1.0000
  Fe  Fe146     1.0  0.57607  0.05047  0.81056  1.0000
  S   S291      1.0  0.56591  0.03170  0.83954  1.0000
  S   S292      1.0  0.60069  0.06442  0.81641  1.0000
  Fe  Fe147     1.0  0.55358  0.00075  0.81948  1.0000
  S   S293      1.0  0.54901  0.45249  0.82037  1.0000
  Fe  Fe148     1.0  0.54655  0.06225  0.83426  1.0000
  S   S294      1.0  0.53908  0.08738  0.86238  1.0000
  S   S295      1.0  0.56480  0.01784  0.79036  1.0000
  S   S296      1.0  0.55721  0.08300  0.80630  1.0000
  Fe  Fe149     1.0  0.72268  0.01699  0.78766  1.0000
  S   S297      1.0  0.72955  0.03165  0.81923  1.0000
  S   S298      1.0  0.74155  0.01216  0.76239  1.0000
  Fe  Fe150     1.0  0.68820  0.01990  0.80023  1.0000
  S   S299      1.0  0.69287  0.03388  0.83249  1.0000
  S   S300      1.0  0.66455  0.01220  0.78696  1.0000
  Fe  Fe151     1.0  0.71039  0.06396  0.81831  1.0000
  S   S301      1.0  0.71264  0.11262  0.82375  1.0000
  Fe  Fe152     1.0  0.71157  0.00059  0.83091  1.0000
  C   C1106     1.0  0.60391  0.36033  0.90310  1.0000
  S   S302      1.0  0.70466  0.05163  0.78578  1.0000
  H   H1314     1.0  0.51032  0.15945  0.93118  1.0000
  Fe  Fe153     1.0  0.54684  0.24994  0.88402  1.0000
  S   S303      1.0  0.55816  0.22918  0.91082  1.0000
  S   S304      1.0  0.53737  0.22344  0.85802  1.0000
  Fe  Fe154     1.0  0.55520  0.31107  0.89711  1.0000
  S   S305      1.0  0.56678  0.29389  0.92545  1.0000
  S   S306      1.0  0.55866  0.35981  0.89268  1.0000
  Fe  Fe155     1.0  0.57714  0.26081  0.90469  1.0000
  S   S307      1.0  0.60156  0.24441  0.90194  1.0000
  Fe  Fe156     1.0  0.54661  0.26354  0.92969  1.0000
  S   S308      1.0  0.53851  0.25257  0.96288  1.0000
  S   S309      1.0  0.56673  0.27907  0.87633  1.0000
  S   S310      1.0  0.53414  0.28327  0.90293  1.0000
  Fe  Fe157     1.0  0.68447  0.29291  0.92605  1.0000
  S   S311      1.0  0.68787  0.27892  0.89344  1.0000
  S   S312      1.0  0.66077  0.30131  0.93993  1.0000
  Fe  Fe158     1.0  0.71945  0.29387  0.93447  1.0000
  S   S313      1.0  0.72497  0.27987  0.90185  1.0000
  S   S314      1.0  0.73762  0.29349  0.96006  1.0000
  Fe  Fe159     1.0  0.70682  0.31186  0.89281  1.0000
  S   S315      1.0  0.70642  0.34088  0.86468  1.0000
  Fe  Fe160     1.0  0.70551  0.24809  0.90508  1.0000
  S   S316      1.0  0.70560  0.19909  0.89998  1.0000
  S   S317      1.0  0.70246  0.32771  0.92498  1.0000
  S   S318      1.0  0.70085  0.26037  0.93818  1.0000
  C   C1107     1.0  0.52142  0.23570  0.97295  1.0000
  C   C1108     1.0  0.71946  0.40624  0.79725  1.0000
  H   H1315     1.0  0.53241  0.47243  0.75486  1.0000
  H   H1316     1.0  0.53055  0.11419  0.68261  1.0000
  C   C1109     1.0  0.61776  0.26202  0.91177  1.0000
  C   C1110     1.0  0.63238  0.25272  0.90550  1.0000
  C   C1111     1.0  0.64561  0.26500  0.91375  1.0000
  C   C1112     1.0  0.64434  0.28656  0.92851  1.0000
  C   C1113     1.0  0.62970  0.29612  0.93466  1.0000
  C   C1114     1.0  0.61643  0.28405  0.92620  1.0000
  H   H1317     1.0  0.63354  0.23584  0.89427  1.0000
  H   H1318     1.0  0.65680  0.25737  0.90897  1.0000
  H   H1319     1.0  0.62865  0.31273  0.94615  1.0000
  H   H1320     1.0  0.60522  0.29129  0.93119  1.0000
  C   C1115     1.0  0.70762  0.17560  0.87847  1.0000
  C   C1116     1.0  0.70562  0.14589  0.88159  1.0000
  C   C1117     1.0  0.70722  0.12627  0.86518  1.0000
  C   C1118     1.0  0.71101  0.13608  0.84536  1.0000
  C   C1119     1.0  0.71305  0.16579  0.84226  1.0000
  C   C1120     1.0  0.71136  0.18543  0.85864  1.0000
  H   H1321     1.0  0.70272  0.13795  0.89682  1.0000
  H   H1322     1.0  0.70554  0.10358  0.86789  1.0000
  H   H1323     1.0  0.71593  0.17373  0.82701  1.0000
  H   H1324     1.0  0.71299  0.20813  0.85593  1.0000
  C   C1121     1.0  0.72113  0.43523  0.86253  1.0000
  C   C1122     1.0  0.72841  0.41600  0.87583  1.0000
  C   C1123     1.0  0.72338  0.38737  0.87767  1.0000
  C   C1124     1.0  0.71119  0.37766  0.86591  1.0000
  C   C1125     1.0  0.70362  0.39712  0.85309  1.0000
  C   C1126     1.0  0.70839  0.42591  0.85170  1.0000
  H   H1325     1.0  0.73821  0.42310  0.88438  1.0000
  H   H1326     1.0  0.72932  0.37253  0.88753  1.0000
  H   H1327     1.0  0.69414  0.38980  0.84403  1.0000
  H   H1328     1.0  0.70244  0.44069  0.84184  1.0000
  C   C1127     1.0  0.51897  0.07784  0.74646  1.0000
  H   H1329     1.0  0.53149  0.11437  0.75719  1.0000
  C   C1128     1.0  0.74559  0.19749  0.90083  1.0000
  H   H1330     1.0  0.52630  0.00977  0.69550  1.0000
  H   H1331     1.0  0.60857  0.34216  0.91214  1.0000
  C   C1129     1.0  0.55186  0.42712  0.84072  1.0000
  C   C1130     1.0  0.54811  0.39807  0.83754  1.0000
  C   C1131     1.0  0.55001  0.37722  0.85317  1.0000
  C   C1132     1.0  0.55560  0.38513  0.87235  1.0000
  C   C1133     1.0  0.55940  0.41415  0.87550  1.0000
  C   C1134     1.0  0.55759  0.43497  0.85985  1.0000
  H   H1332     1.0  0.54369  0.39159  0.82286  1.0000
  H   H1333     1.0  0.54706  0.35506  0.85038  1.0000
  H   H1334     1.0  0.56374  0.42066  0.89023  1.0000
  H   H1335     1.0  0.56050  0.45714  0.86265  1.0000
  C   C1135     1.0  0.53776  0.12512  0.86106  1.0000
  C   C1136     1.0  0.53949  0.14119  0.87904  1.0000
  C   C1137     1.0  0.53919  0.17132  0.87837  1.0000
  C   C1138     1.0  0.53686  0.18562  0.85975  1.0000
  C   C1139     1.0  0.53463  0.16950  0.84187  1.0000
  C   C1140     1.0  0.53532  0.13936  0.84244  1.0000
  H   H1336     1.0  0.54124  0.13030  0.89352  1.0000
  H   H1337     1.0  0.54058  0.18344  0.89230  1.0000
  H   H1338     1.0  0.53269  0.18041  0.82744  1.0000
  H   H1339     1.0  0.53379  0.12716  0.82853  1.0000
  C   C1141     1.0  0.61774  0.04640  0.80909  1.0000
  C   C1142     1.0  0.63038  0.04752  0.82214  1.0000
  C   C1143     1.0  0.64466  0.03616  0.81592  1.0000
  C   C1144     1.0  0.64655  0.02447  0.79630  1.0000
  C   C1145     1.0  0.63381  0.02268  0.78348  1.0000
  C   C1146     1.0  0.61944  0.03345  0.78987  1.0000
  H   H1340     1.0  0.62915  0.05746  0.83707  1.0000
  H   H1341     1.0  0.65424  0.03671  0.82618  1.0000
  H   H1342     1.0  0.51226  0.13220  0.66314  1.0000
  H   H1343     1.0  0.60986  0.03279  0.77956  1.0000
  H   H1344     1.0  0.63677  0.22448  0.94999  1.0000
  H   H1345     1.0  0.71339  0.41320  0.81153  1.0000
  H   H1346     1.0  0.73583  0.44696  0.81713  1.0000
  C   C1147     1.0  0.75473  0.37441  0.78034  1.0000
  N   N69       1.0  0.60814  0.35834  0.88097  1.0000
  C   C1148     1.0  0.51998  0.07444  0.67156  1.0000
  C   C1149     1.0  0.53813  0.07864  0.69980  1.0000
  H   H1347     1.0  0.67656  0.45235  0.75573  1.0000
  C   C1150     1.0  0.74733  0.20809  0.92113  1.0000
  H   H1348     1.0  0.64889  0.25347  0.97679  1.0000
  H   H1349     1.0  0.63515  0.01349  0.76830  1.0000
  C   C1151     1.0  0.53706  0.04933  0.70368  1.0000
  H   H1350     1.0  0.51801  0.47220  0.80947  1.0000
  H   H1351     1.0  0.54507  0.09188  0.70964  1.0000
  C   C1152     1.0  0.51979  0.14567  0.95985  1.0000
  H   H1352     1.0  0.69244  0.47663  0.75701  1.0000
  H   H1353     1.0  0.60316  0.40335  0.87654  1.0000
  H   H1354     1.0  0.60585  0.32754  0.85668  1.0000
  N   N70       1.0  0.51032  0.08724  0.65547  1.0000
  C   C1153     1.0  0.58134  0.23141  0.95621  1.0000
  H   H1355     1.0  0.67855  0.47611  0.77743  1.0000
  H   H1356     1.0  0.74476  0.14988  0.92750  1.0000
  C   C1154     1.0  0.60026  0.38202  0.87008  1.0000
  C   C1155     1.0  0.74392  0.39720  0.78032  1.0000
  H   H1357     1.0  0.51123  0.03082  0.66811  1.0000
  H   H1358     1.0  0.73968  0.17768  0.89766  1.0000
  C   C1156     1.0  0.51523  0.43601  0.77905  1.0000
  C   C1157     1.0  0.63168  0.47272  0.77125  1.0000
  H   H1359     1.0  0.59123  0.36009  0.90558  1.0000
  H   H1360     1.0  0.67004  0.36137  0.87496  1.0000
  N   N71       1.0  0.58611  0.14695  0.84565  1.0000
  C   C1158     1.0  0.57572  0.17176  0.84892  1.0000
  C   C1159     1.0  0.58962  0.14537  0.82327  1.0000
  C   C1160     1.0  0.57764  0.12065  0.85196  1.0000
  C   C1161     1.0  0.60048  0.14895  0.85727  1.0000
  C   C1162     1.0  0.61191  0.12750  0.85505  1.0000
  C   C1163     1.0  0.60356  0.17168  0.87112  1.0000
  C   C1164     1.0  0.62561  0.12892  0.86578  1.0000
  C   C1165     1.0  0.61729  0.17284  0.88179  1.0000
  C   C1166     1.0  0.62831  0.15159  0.87910  1.0000
  H   H1361     1.0  0.58131  0.19243  0.84457  1.0000
  H   H1362     1.0  0.56533  0.17012  0.83940  1.0000
  H   H1363     1.0  0.57152  0.17310  0.86517  1.0000
  H   H1364     1.0  0.57896  0.14474  0.81410  1.0000
  H   H1365     1.0  0.59603  0.12566  0.81903  1.0000
  H   H1366     1.0  0.59647  0.16422  0.81799  1.0000
  H   H1367     1.0  0.56677  0.11840  0.84349  1.0000
  H   H1368     1.0  0.58424  0.10074  0.84884  1.0000
  H   H1369     1.0  0.57457  0.12091  0.86866  1.0000
  H   H1370     1.0  0.61025  0.10929  0.84511  1.0000
  H   H1371     1.0  0.59553  0.18884  0.87416  1.0000
  H   H1372     1.0  0.63416  0.11229  0.86381  1.0000
  H   H1373     1.0  0.61929  0.19034  0.89235  1.0000
  H   H1374     1.0  0.63894  0.15267  0.88742  1.0000
  N   N72       1.0  0.66502  0.11564  0.80219  1.0000
  C   C1167     1.0  0.65240  0.10411  0.78960  1.0000
  C   C1168     1.0  0.67767  0.12424  0.78787  1.0000
  C   C1169     1.0  0.67046  0.09201  0.81546  1.0000
  C   C1170     1.0  0.66045  0.14022  0.81525  1.0000
  C   C1171     1.0  0.67134  0.15360  0.82798  1.0000
  C   C1172     1.0  0.64523  0.15104  0.81629  1.0000
  C   C1173     1.0  0.66735  0.17631  0.84093  1.0000
  C   C1174     1.0  0.64135  0.17392  0.82924  1.0000
  C   C1175     1.0  0.65238  0.18649  0.84153  1.0000
  H   H1375     1.0  0.64803  0.12055  0.77875  1.0000
  H   H1376     1.0  0.65625  0.08552  0.78009  1.0000
  H   H1377     1.0  0.64273  0.09599  0.79939  1.0000
  H   H1378     1.0  0.67434  0.14286  0.77820  1.0000
  H   H1379     1.0  0.68110  0.10637  0.77744  1.0000
  H   H1380     1.0  0.68826  0.13032  0.79604  1.0000
  H   H1381     1.0  0.68112  0.09769  0.82357  1.0000
  H   H1382     1.0  0.66173  0.08633  0.82745  1.0000
  H   H1383     1.0  0.67312  0.07240  0.80637  1.0000
  H   H1384     1.0  0.68308  0.14642  0.82808  1.0000
  H   H1385     1.0  0.63611  0.14216  0.80733  1.0000
  H   H1386     1.0  0.67596  0.18599  0.85056  1.0000
  H   H1387     1.0  0.62970  0.18186  0.82990  1.0000
  H   H1388     1.0  0.64933  0.20413  0.85160  1.0000
  H   H1389     1.0  0.74452  0.35483  0.95241  1.0000
  H   H1390     1.0  0.52387  0.42992  0.79075  1.0000
  H   H1391     1.0  0.73236  0.23098  0.95358  1.0000
  H   H1392     1.0  0.60839  0.38046  0.90989  1.0000
  H   H1393     1.0  0.60558  0.31198  0.88204  1.0000
  C   C1176     1.0  0.51671  0.13443  0.97948  1.0000
  H   H1394     1.0  0.58459  0.20839  0.95597  1.0000
  C   C1177     1.0  0.52238  0.10713  0.74746  1.0000
  H   H1395     1.0  0.56857  0.27654  0.97184  1.0000
  H   H1396     1.0  0.73284  0.42763  0.75977  1.0000
  C   C1178     1.0  0.74851  0.32001  0.97340  1.0000
  H   H1397     1.0  0.75284  0.39339  0.82130  1.0000
  H   H1398     1.0  0.71924  0.21086  0.93853  1.0000
  C   C1179     1.0  0.74573  0.47595  0.72329  1.0000
  H   H1399     1.0  0.72558  0.16400  0.92519  1.0000
  C   C1180     1.0  0.74072  0.43838  0.80245  1.0000
  H   H1400     1.0  0.60300  0.38192  0.85331  1.0000
  C   C1181     1.0  0.75026  0.34822  0.96624  1.0000
  S   S319      1.0  0.72907  0.46972  0.85831  1.0000
  H   H1401     1.0  0.58564  0.24182  0.94179  1.0000
  C   C1182     1.0  0.50793  0.15026  0.94625  1.0000
  H   H1402     1.0  0.71576  0.38388  0.79405  1.0000
  H   H1403     1.0  0.58757  0.38013  0.87165  1.0000
  H   H1404     1.0  0.59386  0.99740  0.81938  1.0000
  H   H1405     1.0  0.65494  0.40128  0.86057  1.0000
  C   C1183     1.0  0.52926  0.47880  0.77084  1.0000
  C   C1184     1.0  0.52747  0.03240  0.69193  1.0000
  C   C1185     1.0  0.74554  0.48200  0.74453  1.0000
  H   H1406     1.0  0.74909  0.20477  0.86838  1.0000
  C   C1186     1.0  0.65760  0.36079  0.87584  1.0000
  C   C1187     1.0  0.73581  0.16324  0.93517  1.0000
  C   C1188     1.0  0.64905  0.38321  0.86773  1.0000
  C   C1189     1.0  0.50963  0.22628  0.96034  1.0000
  C   C1190     1.0  0.74776  0.40023  0.74286  1.0000
  C   C1191     1.0  0.52967  0.09119  0.68411  1.0000
  C   C1192     1.0  0.65015  0.33770  0.88529  1.0000
  H   H1407     1.0  0.75046  0.17610  0.96820  1.0000
  H   H1408     1.0  0.65685  0.32052  0.89192  1.0000
  C   C1193     1.0  0.72891  0.20885  0.94929  1.0000
  C   C1194     1.0  0.63302  0.38267  0.86907  1.0000
  H   H1409     1.0  0.73699  0.36881  0.81713  1.0000
  C   C1195     1.0  0.60203  0.33095  0.87289  1.0000
  H   H1410     1.0  0.62717  0.40093  0.86270  1.0000
  C   C1196     1.0  0.50971  0.47907  0.79758  1.0000
  H   H1411     1.0  0.51908  0.42600  0.76435  1.0000
  C   C1197     1.0  0.62505  0.35929  0.87855  1.0000
  C   C1198     1.0  0.63415  0.33686  0.88659  1.0000
  N   N73       1.0  0.73633  0.40800  0.79929  1.0000
  H   H1412     1.0  0.73200  0.15174  0.94941  1.0000
  H   H1413     1.0  0.62898  0.31863  0.89423  1.0000
  C   C1199     1.0  0.63653  0.25087  0.97687  1.0000
  H   H1414     1.0  0.51713  0.14960  0.73621  1.0000
  H   H1415     1.0  0.58925  0.33060  0.87333  1.0000
  N   N74       1.0  0.74163  0.19248  0.93965  1.0000
  C   C1200     1.0  0.74041  0.39177  0.81812  1.0000
  C   C1201     1.0  0.67992  0.47433  0.76042  1.0000
  C   C1202     1.0  0.51897  0.04469  0.67618  1.0000
  C   C1203     1.0  0.51423  0.12708  0.73542  1.0000
  H   H1416     1.0  0.73662  0.45268  0.78999  1.0000
  S   S320      1.0  0.70689  0.48175  0.80735  1.0000
  H   H1417     1.0  0.56861  0.23188  0.95572  1.0000
  H   H1418     1.0  0.51064  0.22928  0.94388  1.0000
  C   C1204     1.0  0.58119  0.27603  0.97426  1.0000
  H   H1419     1.0  0.73443  0.40034  0.83202  1.0000
  H   H1420     1.0  0.53140  0.15129  0.95522  1.0000
  C   C1205     1.0  0.74067  0.40981  0.76099  1.0000
  C   C1206     1.0  0.75109  0.98553  0.74696  1.0000
  H   H1421     1.0  0.71516  0.42034  0.78485  1.0000
  N   N75       1.0  0.51393  0.46765  0.77700  1.0000
  H   H1422     1.0  0.58676  0.28875  0.96167  1.0000
  H   H1423     1.0  0.72437  0.19824  0.96350  1.0000
  H   H1424     1.0  0.62689  0.45691  0.78182  1.0000
  H   H1425     1.0  0.59930  0.99169  0.84525  1.0000
  H   H1426     1.0  0.75337  0.44087  0.80305  1.0000
  C   C1207     1.0  0.61371  0.23242  0.96097  1.0000
  H   H1427     1.0  0.60924  0.22029  0.94832  1.0000
  H   H1428     1.0  0.53835  0.47071  0.78113  1.0000
  C   C1208     1.0  0.62967  0.23455  0.96174  1.0000
  H   H1429     1.0  0.54320  0.03996  0.71639  1.0000
  C   C1209     1.0  0.64747  0.47343  0.76722  1.0000
  N   N76       1.0  0.58717  0.24626  0.97464  1.0000
  H   H1430     1.0  0.74521  0.41044  0.72831  1.0000
  C   C1210     1.0  0.75095  0.21298  0.88370  1.0000
  C   C1211     1.0  0.60411  0.24674  0.97554  1.0000
  C   C1212     1.0  0.50711  0.06902  0.73349  1.0000
  H   H1431     1.0  0.66901  0.47268  0.72170  1.0000
  H   H1432     1.0  0.65422  0.45766  0.77513  1.0000
  H   H1433     1.0  0.73592  0.48165  0.71426  1.0000
  H   H1434     1.0  0.75265  0.98586  0.83791  1.0000
  S   S321      1.0  0.70564  0.98422  0.79963  1.0000
  C   C1213     1.0  0.75408  0.18948  0.95473  1.0000
  C   C1214     1.0  0.75455  0.23523  0.92306  1.0000
  Fe  Fe161     1.0  0.57638  0.79617  0.29178  1.0000
  S   S322      1.0  0.59873  0.81138  0.27680  1.0000
  Fe  Fe162     1.0  0.54197  0.79421  0.28194  1.0000
  H   H1435     1.0  0.51150  0.71066  0.03298  1.0000
  S   S323      1.0  0.52382  0.79847  0.25675  1.0000
  H   H1436     1.0  0.72275  0.72594  0.14875  1.0000
  S   S324      1.0  0.55742  0.82883  0.29373  1.0000
  S   S325      1.0  0.56133  0.76266  0.27783  1.0000
  Fe  Fe163     1.0  0.72049  0.77277  0.28602  1.0000
  H   H1437     1.0  0.60635  0.76414  0.30407  1.0000
  S   S326      1.0  0.73686  0.76918  0.25766  1.0000
  H   H1438     1.0  0.52508  0.83779  0.18265  1.0000
  C   C1215     1.0  0.75339  0.80048  0.16416  1.0000
  C   C1216     1.0  0.63103  0.76086  0.30296  1.0000
  S   S327      1.0  0.70080  0.80451  0.28520  1.0000
  S   S328      1.0  0.70564  0.73812  0.30033  1.0000
  C   C1217     1.0  0.74863  0.74175  0.24630  1.0000
  H   H1439     1.0  0.52673  0.73190  0.04296  1.0000
  C   C1218     1.0  0.75221  0.70079  0.17689  1.0000
  C   C1219     1.0  0.75415  0.92474  0.13433  1.0000
  H   H1440     1.0  0.73848  0.70613  0.26267  1.0000
  H   H1441     1.0  0.72235  0.71206  0.17455  1.0000
  H   H1442     1.0  0.74645  0.95861  0.10254  1.0000
  C   C1220     1.0  0.61639  0.79611  0.28405  1.0000
  C   C1221     1.0  0.63022  0.80727  0.27588  1.0000
  C   C1222     1.0  0.64442  0.79530  0.28129  1.0000
  H   H1443     1.0  0.74800  0.82890  0.18925  1.0000
  H   H1444     1.0  0.52587  0.86188  0.25577  1.0000
  C   C1223     1.0  0.52065  0.79100  0.04870  1.0000
  H   H1445     1.0  0.62993  0.82512  0.26522  1.0000
  H   H1446     1.0  0.65496  0.80371  0.27465  1.0000
  H   H1447     1.0  0.51354  0.72588  0.07884  1.0000
  C   C1224     1.0  0.74013  0.78599  0.19537  1.0000
  H   H1448     1.0  0.67779  0.70309  0.31069  1.0000
  H   H1449     1.0  0.73176  0.48518  0.29708  1.0000
  C   C1225     1.0  0.51777  0.85507  0.24444  1.0000
  C   C1226     1.0  0.61689  0.77298  0.29774  1.0000
  C   C1227     1.0  0.50994  0.87573  0.23261  1.0000
  C   C1228     1.0  0.74722  0.80723  0.18344  1.0000
  H   H1450     1.0  0.75234  0.67802  0.17188  1.0000
  H   H1451     1.0  0.73551  0.79113  0.21055  1.0000
  S   S329      1.0  0.53597  0.77665  0.31352  1.0000
  H   H1452     1.0  0.73917  0.80989  0.00608  1.0000
  Fe  Fe164     1.0  0.70828  0.81918  0.31662  1.0000
  C   C1229     1.0  0.72872  0.71140  0.15959  1.0000
  N   N77       1.0  0.56746  0.84141  0.22534  1.0000
  C   C1230     1.0  0.57679  0.86183  0.23735  1.0000
  C   C1231     1.0  0.56048  0.82076  0.24015  1.0000
  C   C1232     1.0  0.57801  0.82562  0.21134  1.0000
  C   C1233     1.0  0.55530  0.85537  0.21329  1.0000
  C   C1234     1.0  0.55328  0.88562  0.21255  1.0000
  C   C1235     1.0  0.54493  0.83852  0.20188  1.0000
  C   C1236     1.0  0.54151  0.89796  0.20121  1.0000
  C   C1237     1.0  0.53321  0.85110  0.19064  1.0000
  C   C1238     1.0  0.53150  0.88075  0.19030  1.0000
  H   H1453     1.0  0.56958  0.87379  0.24870  1.0000
  H   H1454     1.0  0.58569  0.85055  0.24644  1.0000
  H   H1455     1.0  0.58305  0.87731  0.22719  1.0000
  H   H1456     1.0  0.55164  0.83144  0.24994  1.0000
  H   H1457     1.0  0.56921  0.81123  0.25040  1.0000
  H   H1458     1.0  0.55476  0.80243  0.23260  1.0000
  H   H1459     1.0  0.58327  0.84027  0.19962  1.0000
  H   H1460     1.0  0.58747  0.81527  0.21996  1.0000
  H   H1461     1.0  0.57208  0.80819  0.20302  1.0000
  H   H1462     1.0  0.56046  0.90025  0.22082  1.0000
  H   H1463     1.0  0.54558  0.81539  0.20194  1.0000
  H   H1464     1.0  0.74390  0.52779  0.31050  1.0000
  H   H1465     1.0  0.52685  0.87009  0.29714  1.0000
  Fe  Fe165     1.0  0.55654  0.74760  0.31046  1.0000
  C   C1239     1.0  0.64486  0.77193  0.29482  1.0000
  C   C1240     1.0  0.75290  0.71510  0.14161  1.0000
  S   S330      1.0  0.66217  0.75469  0.30132  1.0000
  C   C1241     1.0  0.74687  0.71262  0.25111  1.0000
  Fe  Fe166     1.0  0.68675  0.77106  0.30195  1.0000
  H   H1466     1.0  0.73399  0.74214  0.19827  1.0000
  H   H1467     1.0  0.53988  0.92100  0.20119  1.0000
  C   C1242     1.0  0.51485  0.82581  0.24176  1.0000
  C   C1243     1.0  0.73937  0.75785  0.18819  1.0000
  N   N78       1.0  0.50621  0.86171  0.31467  1.0000
  C   C1244     1.0  0.50882  0.77501  0.05885  1.0000
  C   C1245     1.0  0.52105  0.85231  0.30572  1.0000
  S   S331      1.0  0.72876  0.78955  0.31654  1.0000
  C   C1246     1.0  0.75262  0.77241  0.15679  1.0000
  H   H1468     1.0  0.63608  0.82724  0.31633  1.0000
  C   C1247     1.0  0.74576  0.75006  0.16877  1.0000
  H   H1469     1.0  0.67637  0.66519  0.30956  1.0000
  H   H1470     1.0  0.74624  0.70087  0.19212  1.0000
  H   H1471     1.0  0.72767  0.68909  0.15374  1.0000
  C   C1248     1.0  0.51491  0.73299  0.03692  1.0000
  H   H1472     1.0  0.65819  0.84729  0.30138  1.0000
  N   N79       1.0  0.74496  0.71997  0.16168  1.0000
  H   H1473     1.0  0.52208  0.89037  0.18211  1.0000
  H   H1474     1.0  0.75182  0.90445  0.12594  1.0000
  C   C1249     1.0  0.52428  0.81886  0.05487  1.0000
  S   S332      1.0  0.55735  0.69856  0.31513  1.0000
  H   H1475     1.0  0.51217  0.89826  0.23501  1.0000
  H   H1476     1.0  0.55640  0.63709  0.31764  1.0000
  H   H1477     1.0  0.65752  0.89878  0.31406  1.0000
  H   H1478     1.0  0.51515  0.74486  0.02200  1.0000
  C   C1250     1.0  0.75107  0.48682  0.02240  1.0000
  H   H1479     1.0  0.63122  0.74270  0.31333  1.0000
  H   H1480     1.0  0.74299  0.93535  0.13773  1.0000
  H   H1481     1.0  0.75222  0.48462  0.06338  1.0000
  C   C1251     1.0  0.74648  0.82372  0.99679  1.0000
  H   H1482     1.0  0.51972  0.83419  0.29484  1.0000
  H   H1483     1.0  0.52715  0.78263  0.03580  1.0000
  H   H1484     1.0  0.72313  0.52657  0.31011  1.0000
  H   H1485     1.0  0.53331  0.83073  0.04689  1.0000
  H   H1486     1.0  0.73950  0.49069  0.02932  1.0000
  H   H1487     1.0  0.67665  0.84273  0.31221  1.0000
  H   H1488     1.0  0.66164  0.81871  0.31968  1.0000
  H   H1489     1.0  0.75254  0.69218  0.13692  1.0000
  H   H1490     1.0  0.74766  0.72763  0.12897  1.0000
  C   C1252     1.0  0.66413  0.84156  0.31581  1.0000
  H   H1491     1.0  0.51890  0.85342  0.07562  1.0000
  C   C1253     1.0  0.51621  0.83170  0.07104  1.0000
  C   C1254     1.0  0.73324  0.52926  0.32008  1.0000
  H   H1492     1.0  0.75425  0.66932  0.24457  1.0000
  H   H1493     1.0  0.52891  0.84487  0.31789  1.0000
  C   C1255     1.0  0.67897  0.68321  0.32005  1.0000
  H   H1494     1.0  0.58872  0.65482  0.31948  1.0000
  H   H1495     1.0  0.65137  0.70471  0.32064  1.0000
  H   H1496     1.0  0.50636  0.93080  0.57573  1.0000
  H   H1497     1.0  0.59999  0.68823  0.37840  1.0000
  S   S333      1.0  0.54704  0.83553  0.35339  1.0000
  N   N80       1.0  0.66859  0.68338  0.33842  1.0000
  H   H1498     1.0  0.50944  0.70911  0.61944  1.0000
  S   S334      1.0  0.70685  0.86802  0.32204  1.0000
  H   H1499     1.0  0.59897  0.86252  0.35104  1.0000
  S   S335      1.0  0.71529  0.72901  0.35917  1.0000
  Fe  Fe167     1.0  0.57422  0.51426  0.40876  1.0000
  S   S336      1.0  0.56636  0.52932  0.37784  1.0000
  H   H1500     1.0  0.72578  0.68822  0.32799  1.0000
  Fe  Fe168     1.0  0.54169  0.51779  0.42839  1.0000
  S   S337      1.0  0.53204  0.53327  0.39848  1.0000
  S   S338      1.0  0.52397  0.51810  0.45506  1.0000
  C   C1256     1.0  0.51510  0.49160  0.47141  1.0000
  H   H1501     1.0  0.65367  0.67178  0.37513  1.0000
  Fe  Fe169     1.0  0.55263  0.56220  0.39535  1.0000
  S   S339      1.0  0.55162  0.61117  0.39156  1.0000
  C   C1257     1.0  0.50961  0.61532  0.45945  1.0000
  S   S340      1.0  0.56167  0.54874  0.42622  1.0000
  Fe  Fe170     1.0  0.70883  0.50725  0.40460  1.0000
  S   S341      1.0  0.69935  0.52257  0.43540  1.0000
  S   S342      1.0  0.70833  0.95739  0.39721  1.0000
  Fe  Fe171     1.0  0.71176  0.56831  0.38828  1.0000
  S   S343      1.0  0.70230  0.58760  0.41715  1.0000
  S   S344      1.0  0.72033  0.59319  0.36028  1.0000
  Fe  Fe172     1.0  0.71761  0.55719  0.43405  1.0000
  S   S345      1.0  0.72830  0.57699  0.46301  1.0000
  Fe  Fe173     1.0  0.68479  0.55222  0.41657  1.0000
  S   S346      1.0  0.66063  0.56811  0.42396  1.0000
  S   S347      1.0  0.72820  0.53969  0.40481  1.0000
  S   S348      1.0  0.69312  0.53507  0.38607  1.0000
  C   C1258     1.0  0.53580  0.60430  0.44896  1.0000
  H   H1502     1.0  0.73250  0.55167  0.32595  1.0000
  H   H1503     1.0  0.75356  0.68608  0.39879  1.0000
  H   H1504     1.0  0.73488  0.60903  0.49932  1.0000
  H   H1505     1.0  0.71815  0.49687  0.36259  1.0000
  H   H1506     1.0  0.68663  0.63375  0.33230  1.0000
  N   N81       1.0  0.51064  0.97017  0.55890  1.0000
  H   H1507     1.0  0.51631  0.87648  0.34287  1.0000
  H   H1508     1.0  0.52194  0.94969  0.45817  1.0000
  H   H1509     1.0  0.59122  0.69577  0.34282  1.0000
  C   C1259     1.0  0.61588  0.51864  0.41354  1.0000
  C   C1260     1.0  0.61571  0.54517  0.42348  1.0000
  C   C1261     1.0  0.62953  0.56001  0.42660  1.0000
  C   C1262     1.0  0.64362  0.54840  0.41999  1.0000
  C   C1263     1.0  0.64379  0.52187  0.41013  1.0000
  C   C1264     1.0  0.62998  0.50705  0.40698  1.0000
  H   H1510     1.0  0.60498  0.55395  0.42910  1.0000
  H   H1511     1.0  0.62933  0.58039  0.43446  1.0000
  H   H1512     1.0  0.65457  0.51265  0.40507  1.0000
  H   H1513     1.0  0.60598  0.64006  0.39086  1.0000
  C   C1265     1.0  0.70724  0.89229  0.34332  1.0000
  C   C1266     1.0  0.70913  0.88313  0.36365  1.0000
  C   C1267     1.0  0.70934  0.90329  0.37984  1.0000
  C   C1268     1.0  0.70760  0.93291  0.37607  1.0000
  C   C1269     1.0  0.70550  0.94200  0.35578  1.0000
  C   C1270     1.0  0.70534  0.92185  0.33959  1.0000
  H   H1514     1.0  0.71062  0.86055  0.36688  1.0000
  H   H1515     1.0  0.71095  0.89587  0.39542  1.0000
  H   H1516     1.0  0.70418  0.96460  0.35251  1.0000
  H   H1517     1.0  0.64420  0.89355  0.36164  1.0000
  C   C1271     1.0  0.71549  0.69119  0.35823  1.0000
  C   C1272     1.0  0.72155  0.67640  0.34129  1.0000
  C   C1273     1.0  0.72275  0.64630  0.34194  1.0000
  C   C1274     1.0  0.71773  0.63080  0.35937  1.0000
  C   C1275     1.0  0.71111  0.64558  0.37593  1.0000
  C   C1276     1.0  0.71014  0.67564  0.37543  1.0000
  C   C1277     1.0  0.59601  0.62342  0.34178  1.0000
  H   H1518     1.0  0.59418  0.60644  0.33090  1.0000
  H   H1519     1.0  0.70690  0.63401  0.38926  1.0000
  H   H1520     1.0  0.70534  0.68693  0.38853  1.0000
  C   C1278     1.0  0.55533  0.67478  0.33666  1.0000
  C   C1279     1.0  0.55410  0.68454  0.35693  1.0000
  C   C1280     1.0  0.55303  0.66477  0.37344  1.0000
  C   C1281     1.0  0.55320  0.63496  0.36999  1.0000
  C   C1282     1.0  0.55446  0.62517  0.34974  1.0000
  C   C1283     1.0  0.51354  0.95732  0.46927  1.0000
  H   H1521     1.0  0.55403  0.70734  0.35988  1.0000
  H   H1522     1.0  0.55208  0.67269  0.38899  1.0000
  H   H1523     1.0  0.55455  0.60239  0.34674  1.0000
  H   H1524     1.0  0.74148  0.66272  0.38448  1.0000
  C   C1284     1.0  0.54756  0.87346  0.35403  1.0000
  C   C1285     1.0  0.54938  0.88994  0.33610  1.0000
  C   C1286     1.0  0.54830  0.92002  0.33703  1.0000
  C   C1287     1.0  0.54586  0.93395  0.35592  1.0000
  C   C1288     1.0  0.54448  0.91751  0.37388  1.0000
  C   C1289     1.0  0.54517  0.88740  0.37289  1.0000
  H   H1525     1.0  0.73593  0.94517  0.48974  1.0000
  C   C1290     1.0  0.63689  0.87928  0.35318  1.0000
  H   H1526     1.0  0.54249  0.92794  0.38850  1.0000
  H   H1527     1.0  0.54372  0.87486  0.38683  1.0000
  H   H1528     1.0  0.64923  0.66657  0.32242  1.0000
  H   H1529     1.0  0.50777  0.92655  0.54858  1.0000
  H   H1530     1.0  0.67152  0.58799  0.38555  1.0000
  C   C1291     1.0  0.66106  0.65466  0.36991  1.0000
  H   H1531     1.0  0.63023  0.48640  0.39949  1.0000
  H   H1532     1.0  0.53147  0.64056  0.41837  1.0000
  Fe  Fe174     1.0  0.54669  0.49906  0.38376  1.0000
  H   H1533     1.0  0.65519  0.62834  0.39643  1.0000
  H   H1534     1.0  0.50617  0.83093  0.33962  1.0000
  C   C1292     1.0  0.72061  0.97456  0.45565  1.0000
  H   H1535     1.0  0.51615  0.90254  0.32297  1.0000
  C   C1293     1.0  0.64304  0.86075  0.33788  1.0000
  H   H1536     1.0  0.70875  0.50314  0.33880  1.0000
  H   H1537     1.0  0.51278  0.57080  0.46889  1.0000
  H   H1538     1.0  0.66373  0.90587  0.33978  1.0000
  Fe  Fe175     1.0  0.55274  0.80959  0.32487  1.0000
  C   C1294     1.0  0.67096  0.60707  0.37607  1.0000
  H   H1539     1.0  0.59623  0.59734  0.40190  1.0000
  H   H1540     1.0  0.68704  0.59121  0.35359  1.0000
  H   H1541     1.0  0.62926  0.98255  0.41761  1.0000
  C   C1295     1.0  0.59290  0.65124  0.33490  1.0000
  C   C1296     1.0  0.52291  0.64209  0.43124  1.0000
  S   S349      1.0  0.54369  0.97166  0.35629  1.0000
  C   C1297     1.0  0.67237  0.70923  0.35055  1.0000
  Fe  Fe176     1.0  0.71266  0.75642  0.33050  1.0000
  C   C1298     1.0  0.51958  0.98196  0.54121  1.0000
  H   H1542     1.0  0.50914  0.97454  0.59194  1.0000
  H   H1543     1.0  0.60260  0.54413  0.36220  1.0000
  H   H1544     1.0  0.66463  0.83045  0.35671  1.0000
  H   H1545     1.0  0.54131  0.96235  0.49895  1.0000
  C   C1299     1.0  0.75148  0.97091  0.50641  1.0000
  H   H1546     1.0  0.68086  0.85112  0.34791  1.0000
  H   H1547     1.0  0.73491  0.98030  0.41917  1.0000
  C   C1300     1.0  0.53575  0.97618  0.51017  1.0000
  H   H1548     1.0  0.52483  0.93296  0.56338  1.0000
  H   H1549     1.0  0.73530  0.92487  0.45848  1.0000
  C   C1301     1.0  0.74578  0.60455  0.49183  1.0000
  C   C1302     1.0  0.66455  0.89045  0.32685  1.0000
  H   H1550     1.0  0.50747  0.91490  0.48021  1.0000
  H   H1551     1.0  0.62243  0.60068  0.38991  1.0000
  C   C1303     1.0  0.61116  0.86194  0.34749  1.0000
  N   N82       1.0  0.75086  0.64384  0.41189  1.0000
  C   C1304     1.0  0.73980  0.93962  0.44637  1.0000
  H   H1552     1.0  0.52776  0.98210  0.58061  1.0000
  H   H1553     1.0  0.64425  0.68901  0.34391  1.0000
  C   C1305     1.0  0.59430  0.67446  0.34808  1.0000
  C   C1306     1.0  0.66831  0.85210  0.35128  1.0000
  H   H1554     1.0  0.73450  0.67816  0.40786  1.0000
  C   C1307     1.0  0.60246  0.64243  0.37511  1.0000
  S   S350      1.0  0.69305  0.78738  0.33297  1.0000
  H   H1555     1.0  0.74951  0.95915  0.52063  1.0000
  C   C1308     1.0  0.59916  0.67011  0.36811  1.0000
  C   C1309     1.0  0.71843  0.51030  0.34841  1.0000
  C   C1310     1.0  0.66173  0.62991  0.38209  1.0000
  H   H1556     1.0  0.74219  0.60440  0.42499  1.0000
  C   C1311     1.0  0.50935  0.88459  0.32988  1.0000
  C   C1312     1.0  0.67966  0.60889  0.35798  1.0000
  H   H1557     1.0  0.52730  0.65864  0.44190  1.0000
  C   C1313     1.0  0.62118  0.87985  0.35783  1.0000
  C   C1314     1.0  0.63252  0.84241  0.32789  1.0000
  N   N83       1.0  0.65968  0.86103  0.33292  1.0000
  H   H1558     1.0  0.61671  0.89433  0.36949  1.0000
  C   C1315     1.0  0.66984  0.65731  0.35136  1.0000
  H   H1559     1.0  0.71365  0.96958  0.44191  1.0000
  H   H1560     1.0  0.58125  0.58786  0.38478  1.0000
  H   H1561     1.0  0.74754  0.57288  0.55921  1.0000
  C   C1316     1.0  0.52740  0.96429  0.52668  1.0000
  C   C1317     1.0  0.75123  0.67540  0.46573  1.0000
  H   H1562     1.0  0.71613  0.53274  0.35323  1.0000
  H   H1563     1.0  0.58851  0.56602  0.35038  1.0000
  C   C1318     1.0  0.59340  0.58366  0.38858  1.0000
  H   H1564     1.0  0.69121  0.68212  0.32452  1.0000
  N   N84       1.0  0.60358  0.58898  0.37043  1.0000
  C   C1319     1.0  0.60064  0.56581  0.35540  1.0000
  C   C1320     1.0  0.61976  0.58649  0.37678  1.0000
  C   C1321     1.0  0.60076  0.61816  0.36226  1.0000
  C   C1322     1.0  0.74571  0.51613  0.35120  1.0000
  H   H1565     1.0  0.66403  0.71326  0.36327  1.0000
  N   N85       1.0  0.73718  0.97023  0.45146  1.0000
  C   C1323     1.0  0.55546  0.64495  0.33323  1.0000
  C   C1324     1.0  0.74622  0.66594  0.44664  1.0000
  H   H1566     1.0  0.52267  0.59260  0.41265  1.0000
  H   H1567     1.0  0.51431  0.57114  0.43273  1.0000
  H   H1568     1.0  0.60836  0.56758  0.34165  1.0000
  H   H1569     1.0  0.62251  0.56429  0.38192  1.0000
  H   H1570     1.0  0.62779  0.59200  0.36387  1.0000
  H   H1571     1.0  0.67251  0.72900  0.34084  1.0000
  C   C1325     1.0  0.61683  0.84322  0.33258  1.0000
  H   H1572     1.0  0.72807  0.63187  0.42279  1.0000
  H   H1573     1.0  0.74310  0.68403  0.47686  1.0000
  H   H1574     1.0  0.72784  0.63508  0.32901  1.0000
  H   H1575     1.0  0.74519  0.50409  0.36599  1.0000
  H   H1576     1.0  0.53561  0.58169  0.45453  1.0000
  H   H1577     1.0  0.59414  0.56109  0.39410  1.0000
  C   C1326     1.0  0.74602  0.58932  0.47317  1.0000
  C   C1327     1.0  0.74920  0.56118  0.54451  1.0000
  C   C1328     1.0  0.74381  0.96301  0.48861  1.0000
  H   H1578     1.0  0.73997  0.54475  0.54350  1.0000
  C   C1329     1.0  0.73838  0.62255  0.41515  1.0000
  H   H1579     1.0  0.67675  0.89109  0.32155  1.0000
  H   H1580     1.0  0.74728  0.57719  0.53210  1.0000
  S   S351      1.0  0.59891  0.49897  0.40908  1.0000
  H   H1581     1.0  0.73441  0.61346  0.40037  1.0000
  C   C1330     1.0  0.67925  0.63362  0.34580  1.0000
  C   C1331     1.0  0.65267  0.68596  0.33110  1.0000
  H   H1582     1.0  0.68390  0.70731  0.35738  1.0000
  H   H1583     1.0  0.52692  0.94118  0.52733  1.0000
  H   H1584     1.0  0.53996  0.61795  0.46167  1.0000
  H   H1585     1.0  0.54942  0.93262  0.32308  1.0000
  H   H1586     1.0  0.54458  0.60500  0.43631  1.0000
  S   S352      1.0  0.55435  0.97826  0.41606  1.0000
  N   N86       1.0  0.52061  0.61406  0.44185  1.0000
  S   S353      1.0  0.57294  0.77951  0.32400  1.0000
  N   N87       1.0  0.73323  0.50793  0.33714  1.0000
  H   H1587     1.0  0.73386  0.93349  0.43197  1.0000
  H   H1588     1.0  0.71616  0.96077  0.46837  1.0000
  H   H1589     1.0  0.73417  0.66807  0.44350  1.0000
  H   H1590     1.0  0.60900  0.82928  0.32452  1.0000
  H   H1591     1.0  0.66682  0.86724  0.36429  1.0000
  H   H1592     1.0  0.70389  0.92932  0.32398  1.0000
  C   C1332     1.0  0.51257  0.93876  0.56171  1.0000
  C   C1333     1.0  0.74589  0.97841  0.46987  1.0000
  H   H1593     1.0  0.75222  0.93520  0.44402  1.0000
  H   H1594     1.0  0.74498  0.53917  0.35561  1.0000
  C   C1334     1.0  0.74484  0.66873  0.40032  1.0000
  H   H1595     1.0  0.50981  0.68643  0.58387  1.0000
  H   H1596     1.0  0.51219  0.64984  0.42413  1.0000
  C   C1335     1.0  0.51497  0.59338  0.42650  1.0000
  C   C1336     1.0  0.50690  0.59071  0.47192  1.0000
  H   H1597     1.0  0.55137  0.87956  0.32151  1.0000
  Fe  Fe177     1.0  0.54460  0.55035  0.78756  1.0000
  S   S354      1.0  0.53516  0.53368  0.81789  1.0000
  S   S355      1.0  0.53249  0.56041  0.75709  1.0000
  Fe  Fe178     1.0  0.57817  0.54583  0.80245  1.0000
  S   S356      1.0  0.57112  0.52870  0.83361  1.0000
  S   S357      1.0  0.60196  0.55965  0.79105  1.0000
  Fe  Fe179     1.0  0.55423  0.50085  0.81701  1.0000
  S   S358      1.0  0.55280  0.95159  0.82228  1.0000
  Fe  Fe180     1.0  0.55272  0.56256  0.83233  1.0000
  S   S359      1.0  0.54910  0.59081  0.86030  1.0000
  S   S360      1.0  0.56269  0.51587  0.78565  1.0000
  S   S361      1.0  0.56073  0.58126  0.80231  1.0000
  Fe  Fe181     1.0  0.72070  0.51321  0.78843  1.0000
  S   S362      1.0  0.73382  0.52962  0.81553  1.0000
  C   C1337     1.0  0.67751  0.95060  0.84528  1.0000
  Fe  Fe182     1.0  0.68975  0.51687  0.81308  1.0000
  S   S363      1.0  0.70085  0.53253  0.84184  1.0000
  C   C1338     1.0  0.51656  0.62347  0.93037  1.0000
  Fe  Fe183     1.0  0.71463  0.56172  0.82088  1.0000
  S   S364      1.0  0.71739  0.61062  0.82499  1.0000
  Fe  Fe184     1.0  0.71889  0.49952  0.83453  1.0000
  H   H1598     1.0  0.68731  0.85593  0.85771  1.0000
  S   S365      1.0  0.70248  0.54752  0.79216  1.0000
  C   C1339     1.0  0.50687  0.72355  0.90920  1.0000
  Fe  Fe185     1.0  0.55059  0.75150  0.88575  1.0000
  S   S366      1.0  0.55473  0.73142  0.91654  1.0000
  S   S367      1.0  0.54225  0.72585  0.85857  1.0000
  Fe  Fe186     1.0  0.55782  0.81259  0.90028  1.0000
  S   S368      1.0  0.56238  0.79637  0.93242  1.0000
  S   S369      1.0  0.56082  0.86138  0.89586  1.0000
  Fe  Fe187     1.0  0.57539  0.76081  0.91667  1.0000
  S   S370      1.0  0.59838  0.74233  0.92604  1.0000
  Fe  Fe188     1.0  0.54133  0.76838  0.92971  1.0000
  S   S371      1.0  0.52138  0.76776  0.95359  1.0000
  S   S372      1.0  0.57206  0.77838  0.88486  1.0000
  S   S373      1.0  0.53591  0.78715  0.89859  1.0000
  Fe  Fe189     1.0  0.68590  0.79490  0.91220  1.0000
  S   S374      1.0  0.69582  0.77725  0.88287  1.0000
  S   S375      1.0  0.66117  0.81005  0.91143  1.0000
  Fe  Fe190     1.0  0.71779  0.79804  0.93277  1.0000
  S   S376      1.0  0.72968  0.78050  0.90433  1.0000
  S   S377      1.0  0.72890  0.80502  0.96439  1.0000
  Fe  Fe191     1.0  0.71417  0.81049  0.88699  1.0000
  S   S378      1.0  0.71979  0.83680  0.85845  1.0000
  Fe  Fe192     1.0  0.71019  0.74866  0.90252  1.0000
  S   S379      1.0  0.71231  0.69951  0.90025  1.0000
  S   S380      1.0  0.70356  0.82986  0.91526  1.0000
  S   S381      1.0  0.69900  0.76440  0.93201  1.0000
  H   H1599     1.0  0.51361  0.83656  0.86915  1.0000
  H   H1600     1.0  0.62001  0.97801  0.80788  1.0000
  H   H1601     1.0  0.68433  0.62618  0.83251  1.0000
  N   N88       1.0  0.51162  0.87654  0.88539  1.0000
  C   C1340     1.0  0.61582  0.76095  0.92133  1.0000
  C   C1341     1.0  0.61601  0.78888  0.91346  1.0000
  C   C1342     1.0  0.63001  0.80344  0.91045  1.0000
  C   C1343     1.0  0.64399  0.79018  0.91503  1.0000
  C   C1344     1.0  0.64386  0.76207  0.92261  1.0000
  C   C1345     1.0  0.62981  0.74758  0.92583  1.0000
  H   H1602     1.0  0.60533  0.79942  0.91004  1.0000
  H   H1603     1.0  0.62995  0.82522  0.90474  1.0000
  H   H1604     1.0  0.65452  0.75181  0.92647  1.0000
  H   H1605     1.0  0.62973  0.72607  0.93210  1.0000
  C   C1346     1.0  0.71354  0.67525  0.87900  1.0000
  C   C1347     1.0  0.71215  0.64556  0.88274  1.0000
  C   C1348     1.0  0.71321  0.62550  0.86652  1.0000
  C   C1349     1.0  0.71581  0.63481  0.84625  1.0000
  C   C1350     1.0  0.71710  0.66454  0.84253  1.0000
  C   C1351     1.0  0.71591  0.68462  0.85871  1.0000
  H   H1606     1.0  0.71027  0.63792  0.89830  1.0000
  H   H1607     1.0  0.71210  0.60280  0.86971  1.0000
  H   H1608     1.0  0.71910  0.67209  0.82696  1.0000
  H   H1609     1.0  0.71706  0.70729  0.85548  1.0000
  C   C1352     1.0  0.71632  0.93494  0.85850  1.0000
  C   C1353     1.0  0.71907  0.92002  0.87685  1.0000
  C   C1354     1.0  0.71967  0.88989  0.87718  1.0000
  C   C1355     1.0  0.71776  0.87447  0.85904  1.0000
  C   C1356     1.0  0.71474  0.88933  0.84075  1.0000
  C   C1357     1.0  0.71380  0.91943  0.84052  1.0000
  H   H1610     1.0  0.72097  0.93183  0.89085  1.0000
  H   H1611     1.0  0.72213  0.87868  0.89132  1.0000
  H   H1612     1.0  0.71317  0.87751  0.82668  1.0000
  H   H1613     1.0  0.71119  0.93051  0.82641  1.0000
  C   C1358     1.0  0.51633  0.57928  0.74727  1.0000
  H   H1614     1.0  0.61060  0.92494  0.89296  1.0000
  H   H1615     1.0  0.66803  0.58554  0.84374  1.0000
  H   H1616     1.0  0.65063  0.85661  0.88885  1.0000
  H   H1617     1.0  0.64797  0.63668  0.89136  1.0000
  C   C1359     1.0  0.55546  0.92699  0.84294  1.0000
  C   C1360     1.0  0.55906  0.93588  0.86277  1.0000
  C   C1361     1.0  0.56093  0.91544  0.87861  1.0000
  C   C1362     1.0  0.55919  0.88590  0.87490  1.0000
  C   C1363     1.0  0.55578  0.87699  0.85500  1.0000
  C   C1364     1.0  0.55391  0.89742  0.83917  1.0000
  H   H1618     1.0  0.56032  0.95849  0.86595  1.0000
  H   H1619     1.0  0.56363  0.92261  0.89391  1.0000
  H   H1620     1.0  0.55454  0.85438  0.85181  1.0000
  H   H1621     1.0  0.55121  0.89027  0.82386  1.0000
  C   C1365     1.0  0.54943  0.62844  0.85727  1.0000
  C   C1366     1.0  0.55704  0.64528  0.87170  1.0000
  C   C1367     1.0  0.55551  0.67530  0.87162  1.0000
  C   C1368     1.0  0.54598  0.68865  0.85746  1.0000
  C   C1369     1.0  0.53866  0.67189  0.84269  1.0000
  C   C1370     1.0  0.54046  0.64189  0.84250  1.0000
  H   H1622     1.0  0.56397  0.63500  0.88321  1.0000
  H   H1623     1.0  0.56144  0.68805  0.88280  1.0000
  H   H1624     1.0  0.53120  0.68207  0.83178  1.0000
  H   H1625     1.0  0.53426  0.62898  0.83169  1.0000
  C   C1371     1.0  0.61938  0.54486  0.79971  1.0000
  C   C1372     1.0  0.61973  0.51917  0.81082  1.0000
  C   C1373     1.0  0.63387  0.50653  0.81556  1.0000
  C   C1374     1.0  0.64778  0.51967  0.80961  1.0000
  C   C1375     1.0  0.64743  0.54608  0.79936  1.0000
  C   C1376     1.0  0.63328  0.55841  0.79422  1.0000
  H   H1626     1.0  0.60912  0.50854  0.81514  1.0000
  C   C1377     1.0  0.59470  0.88545  0.85533  1.0000
  H   H1627     1.0  0.65801  0.55667  0.79494  1.0000
  H   H1628     1.0  0.63310  0.57837  0.78571  1.0000
  C   C1378     1.0  0.67671  0.52486  0.75621  1.0000
  H   H1629     1.0  0.52497  0.91326  0.87519  1.0000
  C   C1379     1.0  0.59600  0.94522  0.80570  1.0000
  C   C1380     1.0  0.67086  0.94681  0.82621  1.0000
  H   H1630     1.0  0.53085  0.85494  0.91465  1.0000
  H   H1631     1.0  0.73293  0.96037  0.82041  1.0000
  C   C1381     1.0  0.59540  0.90538  0.83919  1.0000
  H   H1632     1.0  0.54505  0.63482  0.91928  1.0000
  H   H1633     1.0  0.62424  0.97373  0.83431  1.0000
  H   H1634     1.0  0.73266  0.75161  0.94572  1.0000
  C   C1382     1.0  0.51458  0.58127  0.72581  1.0000
  H   H1635     1.0  0.64624  0.89298  0.88228  1.0000
  C   C1383     1.0  0.51201  0.67362  0.91902  1.0000
  H   H1636     1.0  0.52887  0.70797  0.96462  1.0000
  H   H1637     1.0  0.54246  0.67043  0.91024  1.0000
  H   H1638     1.0  0.52289  0.57109  0.71572  1.0000
  H   H1639     1.0  0.68873  0.88850  0.88833  1.0000
  H   H1640     1.0  0.50960  0.50286  0.79787  1.0000
  H   H1641     1.0  0.50831  0.63208  0.89105  1.0000
  C   C1384     1.0  0.75420  0.89906  0.82274  1.0000
  H   H1642     1.0  0.52445  0.69842  0.89541  1.0000
  C   C1385     1.0  0.66952  0.90219  0.85609  1.0000
  C   C1386     1.0  0.53759  0.65405  0.92092  1.0000
  H   H1643     1.0  0.58209  0.97545  0.83614  1.0000
  C   C1387     1.0  0.74125  0.95565  0.80776  1.0000
  H   H1644     1.0  0.52381  0.60410  0.92793  1.0000
  S   S382      1.0  0.72863  0.49762  0.75611  1.0000
  H   H1645     1.0  0.66853  0.51086  0.71823  1.0000
  C   C1388     1.0  0.66354  0.92108  0.82181  1.0000
  H   H1646     1.0  0.68347  0.97045  0.84854  1.0000
  S   S383      1.0  0.71635  0.97287  0.85877  1.0000
  H   H1647     1.0  0.64554  0.86518  0.86325  1.0000
  H   H1648     1.0  0.52421  0.82928  0.94613  1.0000
  H   H1649     1.0  0.58361  0.93983  0.80770  1.0000
  H   H1650     1.0  0.67544  0.83455  0.87452  1.0000
  H   H1651     1.0  0.68272  0.93297  0.87425  1.0000
  N   N89       1.0  0.60267  0.95495  0.82533  1.0000
  S   S384      1.0  0.66509  0.50084  0.81366  1.0000
  N   N90       1.0  0.52137  0.64738  0.91652  1.0000
  C   C1389     1.0  0.74596  0.68373  0.94784  1.0000
  H   H1652     1.0  0.74152  0.67755  0.96339  1.0000
  C   C1390     1.0  0.65199  0.87320  0.87660  1.0000
  C   C1391     1.0  0.67695  0.92870  0.86004  1.0000
  H   H1653     1.0  0.65704  0.87950  0.83239  1.0000
  H   H1654     1.0  0.73711  0.93622  0.79976  1.0000
  H   H1655     1.0  0.67128  0.90408  0.89884  1.0000
  H   H1656     1.0  0.68934  0.52669  0.75363  1.0000
  H   H1657     1.0  0.59042  0.89873  0.82492  1.0000
  H   H1658     1.0  0.67426  0.52825  0.77287  1.0000
  C   C1392     1.0  0.52036  0.63693  0.89508  1.0000
  C   C1393     1.0  0.60659  0.91941  0.87781  1.0000
  C   C1394     1.0  0.67376  0.49332  0.72731  1.0000
  H   H1659     1.0  0.52725  0.61712  0.89254  1.0000
  N   N91       1.0  0.54343  0.65281  0.76712  1.0000
  C   C1395     1.0  0.53186  0.63931  0.78107  1.0000
  C   C1396     1.0  0.54026  0.68400  0.76581  1.0000
  C   C1397     1.0  0.54133  0.64059  0.74630  1.0000
  C   C1398     1.0  0.55892  0.64804  0.77537  1.0000
  C   C1399     1.0  0.56277  0.65900  0.79495  1.0000
  C   C1400     1.0  0.57035  0.63172  0.76485  1.0000
  C   C1401     1.0  0.57694  0.65332  0.80370  1.0000
  C   C1402     1.0  0.58453  0.62630  0.77372  1.0000
  C   C1403     1.0  0.58777  0.63684  0.79315  1.0000
  H   H1660     1.0  0.53190  0.64860  0.79675  1.0000
  H   H1661     1.0  0.52003  0.64204  0.77527  1.0000
  H   H1662     1.0  0.53399  0.61585  0.78267  1.0000
  H   H1663     1.0  0.53981  0.69433  0.78117  1.0000
  H   H1664     1.0  0.52899  0.68833  0.75868  1.0000
  H   H1665     1.0  0.54926  0.69518  0.75642  1.0000
  H   H1666     1.0  0.54297  0.61693  0.74632  1.0000
  H   H1667     1.0  0.52950  0.64413  0.74065  1.0000
  H   H1668     1.0  0.54939  0.65031  0.73481  1.0000
  H   H1669     1.0  0.55468  0.67138  0.80397  1.0000
  H   H1670     1.0  0.56848  0.62202  0.75008  1.0000
  H   H1671     1.0  0.57935  0.66105  0.81901  1.0000
  H   H1672     1.0  0.59286  0.61274  0.76592  1.0000
  H   H1673     1.0  0.59854  0.63148  0.80025  1.0000
  H   H1674     1.0  0.52475  0.65284  0.88367  1.0000
  H   H1675     1.0  0.67150  0.54301  0.74778  1.0000
  H   H1676     1.0  0.60215  0.92625  0.79938  1.0000
  C   C1404     1.0  0.60011  0.89253  0.87463  1.0000
  H   H1677     1.0  0.51525  0.91746  0.89971  1.0000
  H   H1678     1.0  0.64991  0.59114  0.87310  1.0000
  N   N92       1.0  0.66356  0.68695  0.88339  1.0000
  C   C1405     1.0  0.64732  0.69636  0.88452  1.0000
  C   C1406     1.0  0.66920  0.68290  0.90455  1.0000
  C   C1407     1.0  0.67255  0.71066  0.87370  1.0000
  C   C1408     1.0  0.66484  0.65947  0.87214  1.0000
  C   C1409     1.0  0.67522  0.65534  0.85529  1.0000
  C   C1410     1.0  0.65583  0.63545  0.87837  1.0000
  C   C1411     1.0  0.67621  0.62898  0.84518  1.0000
  C   C1412     1.0  0.65692  0.60920  0.86812  1.0000
  C   C1413     1.0  0.66709  0.60599  0.85155  1.0000
  H   H1679     1.0  0.64000  0.68203  0.89423  1.0000
  H   H1680     1.0  0.64610  0.71806  0.89144  1.0000
  H   H1681     1.0  0.64228  0.69728  0.86894  1.0000
  H   H1682     1.0  0.66899  0.70331  0.91338  1.0000
  H   H1683     1.0  0.68125  0.67503  0.90427  1.0000
  H   H1684     1.0  0.66222  0.66705  0.91347  1.0000
  H   H1685     1.0  0.66911  0.71448  0.85755  1.0000
  H   H1686     1.0  0.67092  0.73122  0.88212  1.0000
  H   H1687     1.0  0.68507  0.70628  0.87391  1.0000
  H   H1688     1.0  0.68290  0.67193  0.84975  1.0000
  C   C1414     1.0  0.60755  0.93939  0.86172  1.0000
  C   C1415     1.0  0.64402  0.51511  0.74546  1.0000
  H   H1689     1.0  0.65858  0.91811  0.80681  1.0000
  H   H1690     1.0  0.52986  0.50254  0.77149  1.0000
  N   N93       1.0  0.67083  0.49657  0.74970  1.0000
  H   H1691     1.0  0.67154  0.96373  0.81473  1.0000
  H   H1692     1.0  0.59892  0.87732  0.88725  1.0000
  H   H1693     1.0  0.53118  0.84939  0.87926  1.0000
  H   H1694     1.0  0.53212  0.89606  0.89739  1.0000
  C   C1416     1.0  0.74396  0.82588  0.97547  1.0000
  H   H1695     1.0  0.67516  0.86688  0.90216  1.0000
  C   C1417     1.0  0.51203  0.74099  0.96911  1.0000
  H   H1696     1.0  0.62588  0.94360  0.81730  1.0000
  N   N94       1.0  0.66836  0.87871  0.87146  1.0000
  C   C1418     1.0  0.50731  0.86190  0.90492  1.0000
  C   C1419     1.0  0.67526  0.85216  0.86290  1.0000
  H   H1697     1.0  0.72900  0.72658  0.96602  1.0000
  H   H1698     1.0  0.66893  0.84368  0.84962  1.0000
  H   H1699     1.0  0.75115  0.85419  0.83011  1.0000
  C   C1420     1.0  0.73270  0.72846  0.94960  1.0000
  C   C1421     1.0  0.67624  0.88503  0.89098  1.0000
  H   H1700     1.0  0.75199  0.84580  0.94739  1.0000
  H   H1701     1.0  0.74090  0.94862  0.76172  1.0000
  C   C1422     1.0  0.60184  0.93310  0.84194  1.0000
  C   C1423     1.0  0.51813  0.71359  0.97209  1.0000
  C   C1424     1.0  0.66281  0.89909  0.83651  1.0000
  H   H1702     1.0  0.58936  0.86469  0.85312  1.0000
  H   H1703     1.0  0.72372  0.71846  0.94004  1.0000
  H   H1704     1.0  0.68627  0.49367  0.72350  1.0000
  H   H1705     1.0  0.74077  0.97371  0.79657  1.0000
  C   C1425     1.0  0.51882  0.85194  0.91828  1.0000
  H   H1706     1.0  0.59661  0.96226  0.79364  1.0000
  C   C1426     1.0  0.74903  0.95604  0.75015  1.0000
  H   H1707     1.0  0.62082  0.53083  0.74379  1.0000
  C   C1427     1.0  0.61889  0.96285  0.82108  1.0000
  C   C1428     1.0  0.62214  0.49325  0.76270  1.0000
  H   H1708     1.0  0.75203  0.89523  0.80670  1.0000
  H   H1709     1.0  0.50982  0.74225  0.89998  1.0000
  H   H1710     1.0  0.64822  0.53213  0.73555  1.0000
  H   H1711     1.0  0.52358  0.86619  0.85702  1.0000
  C   C1429     1.0  0.51515  0.83712  0.93640  1.0000
  C   C1430     1.0  0.52136  0.90188  0.88961  1.0000
  C   C1431     1.0  0.59416  0.98094  0.83184  1.0000
  H   H1712     1.0  0.51762  0.62945  0.94685  1.0000
  C   C1432     1.0  0.51524  0.69828  0.90679  1.0000
  C   C1433     1.0  0.75371  0.87537  0.83598  1.0000
  C   C1434     1.0  0.52034  0.85635  0.87213  1.0000
  H   H1713     1.0  0.61253  0.96005  0.86498  1.0000
  H   H1714     1.0  0.73753  0.67551  0.93659  1.0000
  H   H1715     1.0  0.53879  0.66261  0.93676  1.0000
  H   H1716     1.0  0.50633  0.59082  0.77653  1.0000
  C   C1435     1.0  0.62829  0.51441  0.74985  1.0000
  N   N95       1.0  0.74794  0.71527  0.94597  1.0000
  H   H1717     1.0  0.75478  0.86059  0.86724  1.0000
  H   H1718     1.0  0.51531  0.67250  0.98721  1.0000
  H   H1719     1.0  0.61001  0.49342  0.76664  1.0000
  H   H1720     1.0  0.63403  0.48614  0.82353  1.0000
  H   H1721     1.0  0.74484  0.71304  0.91315  1.0000
  C   C1436     1.0  0.75365  0.84381  0.96376  1.0000
  H   H1722     1.0  0.50642  0.52287  0.76638  1.0000
  C   C1437     1.0  0.65415  0.49479  0.75417  1.0000
  H   H1723     1.0  0.75412  0.74489  0.92147  1.0000
  C   C1438     1.0  0.75308  0.72153  0.92454  1.0000
  C   C1439     1.0  0.51037  0.69348  0.98489  1.0000
  Fe  Fe193     1.0  0.97269  0.42429  0.03745  1.0000
  S   S385      1.0  0.97870  0.41127  0.06976  1.0000
  S   S386      1.0  0.99132  0.42902  0.01195  1.0000
  Fe  Fe194     1.0  0.93801  0.41898  0.04748  1.0000
  S   S387      1.0  0.94164  0.40549  0.08029  1.0000
  S   S388      1.0  0.91531  0.43040  0.03254  1.0000
  Fe  Fe195     1.0  0.95954  0.44046  0.08000  1.0000
  C   C1440     1.0  0.75878  0.20165  0.22288  1.0000
  Fe  Fe196     1.0  0.96047  0.37706  0.06779  1.0000
  S   S389      1.0  0.96715  0.33070  0.07608  1.0000
  S   S390      1.0  0.95482  0.45588  0.04808  1.0000
  S   S391      1.0  0.95557  0.38818  0.03468  1.0000
  Fe  Fe197     1.0  0.79337  0.38820  0.03676  1.0000
  S   S392      1.0  0.78390  0.40479  0.06697  1.0000
  C   C1441     1.0  0.99446  0.12454  0.29433  1.0000
  Fe  Fe198     1.0  0.82658  0.38807  0.05313  1.0000
  S   S393      1.0  0.81930  0.40471  0.08418  1.0000
  S   S394      1.0  0.85034  0.36973  0.04617  1.0000
  Fe  Fe199     1.0  0.79988  0.37309  0.08163  1.0000
  S   S395      1.0  0.79362  0.34635  0.10979  1.0000
  Fe  Fe200     1.0  0.80401  0.43535  0.06723  1.0000
  H   H1724     1.0  0.77363  0.04287  0.16330  1.0000
  S   S396      1.0  0.80794  0.35455  0.05164  1.0000
  S   S397      1.0  0.81269  0.42058  0.03605  1.0000
  Fe  Fe201     1.0  0.95758  0.12907  0.13911  1.0000
  S   S398      1.0  0.95206  0.10999  0.17000  1.0000
  S   S399      1.0  0.96400  0.10413  0.11050  1.0000
  Fe  Fe202     1.0  0.95013  0.19073  0.15250  1.0000
  S   S400      1.0  0.94409  0.17575  0.18485  1.0000
  S   S401      1.0  0.94446  0.23685  0.14249  1.0000
  Fe  Fe203     1.0  0.96516  0.14742  0.18255  1.0000
  S   S402      1.0  0.98438  0.14560  0.20638  1.0000
  Fe  Fe204     1.0  0.93156  0.13947  0.16970  1.0000
  S   S403      1.0  0.90812  0.11901  0.17502  1.0000
  S   S404      1.0  0.97198  0.16507  0.15118  1.0000
  S   S405      1.0  0.93636  0.15579  0.13788  1.0000
  Fe  Fe205     1.0  0.79825  0.18335  0.13948  1.0000
  S   S406      1.0  0.80274  0.20276  0.17018  1.0000
  S   S407      1.0  0.79424  0.21005  0.11079  1.0000
  Fe  Fe206     1.0  0.80218  0.12130  0.15487  1.0000
  S   S408      1.0  0.80682  0.13697  0.18716  1.0000
  S   S409      1.0  0.80450  0.07251  0.14954  1.0000
  Fe  Fe207     1.0  0.78726  0.16829  0.18328  1.0000
  S   S410      1.0  0.76692  0.17465  0.20638  1.0000
  Fe  Fe208     1.0  0.82181  0.17022  0.17156  1.0000
  S   S411      1.0  0.84517  0.18782  0.17987  1.0000
  S   S412      1.0  0.78162  0.15022  0.15199  1.0000
  S   S413      1.0  0.81830  0.15320  0.13988  1.0000
  H   H1725     1.0  0.85897  0.42852  0.03453  1.0000
  C   C1442     1.0  0.85233  0.33001  0.09652  1.0000
  H   H1726     1.0  0.85256  0.35073  0.00175  1.0000
  H   H1727     1.0  0.88451  0.45118  0.02887  1.0000
  C   C1443     1.0  0.00072  0.05054  0.12775  1.0000
  C   C1444     1.0  0.99326  0.11805  0.22117  1.0000
  C   C1445     1.0  0.98715  0.09038  0.22308  1.0000
  C   C1446     1.0  0.98290  0.11045  0.28301  1.0000
  H   H1728     1.0  0.97669  0.08506  0.21531  1.0000
  H   H1729     1.0  0.77323  0.45241  0.00806  1.0000
  C   C1447     1.0  0.89078  0.13871  0.17513  1.0000
  C   C1448     1.0  0.89059  0.16847  0.17752  1.0000
  C   C1449     1.0  0.87653  0.18317  0.17885  1.0000
  C   C1450     1.0  0.86255  0.16840  0.17732  1.0000
  C   C1451     1.0  0.86275  0.13874  0.17427  1.0000
  C   C1452     1.0  0.87680  0.12394  0.17341  1.0000
  H   H1730     1.0  0.90125  0.18006  0.17899  1.0000
  H   H1731     1.0  0.87651  0.20606  0.18139  1.0000
  H   H1732     1.0  0.85206  0.12712  0.17321  1.0000
  H   H1733     1.0  0.87681  0.10090  0.17173  1.0000
  C   C1453     1.0  0.76370  0.99858  0.12431  1.0000
  C   C1454     1.0  0.79817  0.00770  0.09641  1.0000
  C   C1455     1.0  0.79410  0.03670  0.09385  1.0000
  C   C1456     1.0  0.79612  0.05690  0.10972  1.0000
  C   C1457     1.0  0.80218  0.04834  0.12854  1.0000
  C   C1458     1.0  0.80635  0.01935  0.13106  1.0000
  C   C1459     1.0  0.80443  0.99920  0.11513  1.0000
  H   H1734     1.0  0.78927  0.04362  0.07947  1.0000
  H   H1735     1.0  0.79283  0.07901  0.10747  1.0000
  H   H1736     1.0  0.81106  0.01244  0.14550  1.0000
  H   H1737     1.0  0.96019  0.43357  0.99974  1.0000
  C   C1460     1.0  0.79470  0.30853  0.10963  1.0000
  C   C1461     1.0  0.79557  0.29365  0.12840  1.0000
  C   C1462     1.0  0.79597  0.26349  0.12885  1.0000
  C   C1463     1.0  0.79491  0.24794  0.11065  1.0000
  C   C1464     1.0  0.79413  0.26280  0.09187  1.0000
  C   C1465     1.0  0.79420  0.29298  0.09133  1.0000
  H   H1738     1.0  0.79598  0.30554  0.14262  1.0000
  H   H1739     1.0  0.79697  0.25226  0.14326  1.0000
  H   H1740     1.0  0.79337  0.25091  0.07769  1.0000
  H   H1741     1.0  0.79343  0.30418  0.07680  1.0000
  C   C1466     1.0  0.82686  0.32161  0.00893  1.0000
  N   N96       1.0  0.75963  0.46552  0.03465  1.0000
  N   N97       1.0  0.84722  0.25244  0.13264  1.0000
  C   C1467     1.0  0.96134  0.30634  0.09605  1.0000
  C   C1468     1.0  0.97001  0.28130  0.09919  1.0000
  C   C1469     1.0  0.96536  0.26034  0.11379  1.0000
  C   C1470     1.0  0.95172  0.26373  0.12515  1.0000
  C   C1471     1.0  0.94321  0.28904  0.12232  1.0000
  C   C1472     1.0  0.94800  0.31026  0.10797  1.0000
  H   H1742     1.0  0.98039  0.27808  0.09017  1.0000
  H   H1743     1.0  0.97235  0.24165  0.11626  1.0000
  H   H1744     1.0  0.93273  0.29214  0.13115  1.0000
  H   H1745     1.0  0.94120  0.32935  0.10581  1.0000
  C   C1473     1.0  0.96126  0.00587  0.11070  1.0000
  C   C1474     1.0  0.96124  0.02095  0.12931  1.0000
  C   C1475     1.0  0.96182  0.05106  0.12942  1.0000
  C   C1476     1.0  0.96252  0.06635  0.11089  1.0000
  C   C1477     1.0  0.96239  0.05132  0.09227  1.0000
  C   C1478     1.0  0.96166  0.02118  0.09216  1.0000
  H   H1746     1.0  0.96110  0.00922  0.14370  1.0000
  H   H1747     1.0  0.96200  0.06230  0.14385  1.0000
  H   H1748     1.0  0.96297  0.06293  0.07784  1.0000
  H   H1749     1.0  0.96178  0.00979  0.07773  1.0000
  C   C1479     1.0  0.89730  0.41433  0.03879  1.0000
  C   C1480     1.0  0.89616  0.38621  0.04625  1.0000
  C   C1481     1.0  0.88167  0.37314  0.04892  1.0000
  C   C1482     1.0  0.86814  0.38826  0.04478  1.0000
  C   C1483     1.0  0.86925  0.41668  0.03795  1.0000
  C   C1484     1.0  0.88376  0.42947  0.03470  1.0000
  H   H1750     1.0  0.90647  0.37422  0.04932  1.0000
  H   H1751     1.0  0.88097  0.35109  0.05406  1.0000
  C   C1485     1.0  0.76737  0.35983  0.99476  1.0000
  H   H1752     1.0  0.81465  0.32073  0.01401  1.0000
  C   C1486     1.0  0.77138  0.02306  0.15521  1.0000
  H   H1753     1.0  0.75996  0.19811  0.16324  1.0000
  H   H1754     1.0  0.89863  0.00546  0.06950  1.0000
  C   C1487     1.0  0.99962  0.45630  0.99580  1.0000
  C   C1488     1.0  0.84932  0.27853  0.11980  1.0000
  H   H1755     1.0  0.99758  0.45859  0.12097  1.0000
  H   H1756     1.0  0.82825  0.06200  0.09329  1.0000
  H   H1757     1.0  0.97253  0.16382  0.25029  1.0000
  C   C1489     1.0  0.76594  0.02393  0.13525  1.0000
  H   H1758     1.0  0.83874  0.07253  0.12738  1.0000
  C   C1490     1.0  0.83798  0.31746  0.09955  1.0000
  C   C1491     1.0  0.76905  0.24867  0.17758  1.0000
  H   H1759     1.0  0.85994  0.21957  0.14838  1.0000
  H   H1760     1.0  0.83028  0.29953  0.00440  1.0000
  C   C1492     1.0  0.86522  0.31722  0.10485  1.0000
  H   H1761     1.0  0.76615  0.26475  0.18959  1.0000
  C   C1493     1.0  0.91943  0.00622  0.12158  1.0000
  H   H1762     1.0  0.94490  0.29028  0.05100  1.0000
  H   H1763     1.0  0.81242  0.37127  0.00426  1.0000
  C   C1494     1.0  0.97494  0.12478  0.26760  1.0000
  H   H1764     1.0  0.98166  0.07246  0.17129  1.0000
  C   C1495     1.0  0.99400  0.98429  0.00078  1.0000
  H   H1765     1.0  0.82642  0.26764  0.14746  1.0000
  H   H1766     1.0  0.76475  0.22983  0.28087  1.0000
  C   C1496     1.0  0.99445  0.06963  0.23542  1.0000
  H   H1767     1.0  0.83273  0.01633  0.07687  1.0000
  H   H1768     1.0  0.77956  0.25629  0.16939  1.0000
  N   N98       1.0  0.00339  0.10992  0.31041  1.0000
  C   C1497     1.0  0.75624  0.31201  0.99139  1.0000
  H   H1769     1.0  0.99949  0.02732  0.99051  1.0000
  C   C1498     1.0  0.84703  0.99834  0.10126  1.0000
  N   N99       1.0  0.82952  0.34223  0.99180  1.0000
  H   H1770     1.0  0.94018  0.42694  0.00306  1.0000
  H   H1771     1.0  0.83353  0.32748  0.02275  1.0000
  C   C1499     1.0  0.97837  0.15321  0.26278  1.0000
  H   H1772     1.0  0.80505  0.47723  0.11490  1.0000
  C   C1500     1.0  0.85053  0.03216  0.12969  1.0000
  C   C1501     1.0  0.00403  0.01761  0.15622  1.0000
  H   H1773     1.0  0.76472  0.26890  0.24179  1.0000
  H   H1774     1.0  0.85497  0.03689  0.14475  1.0000
  H   H1775     1.0  0.77913  0.99632  0.17978  1.0000
  H   H1776     1.0  0.92945  0.07307  0.11924  1.0000
  C   C1502     1.0  0.77454  0.45986  0.02413  1.0000
  H   H1777     1.0  0.82512  0.28339  0.11298  1.0000
  S   S414      1.0  0.77955  0.38548  0.00689  1.0000
  H   H1778     1.0  0.87634  0.32721  0.10246  1.0000
  H   H1779     1.0  0.96643  0.11350  0.25879  1.0000
  N   N100      1.0  0.90854  0.05430  0.13119  1.0000
  C   C1503     1.0  0.89825  0.07746  0.12400  1.0000
  C   C1504     1.0  0.90242  0.04400  0.15136  1.0000
  C   C1505     1.0  0.92387  0.06718  0.13421  1.0000
  C   C1506     1.0  0.90993  0.02990  0.11678  1.0000
  C   C1507     1.0  0.90225  0.02894  0.09767  1.0000
  C   C1508     1.0  0.84149  0.05239  0.11988  1.0000
  C   C1509     1.0  0.83897  0.22998  0.12108  1.0000
  C   C1510     1.0  0.76626  0.22750  0.22710  1.0000
  H   H1780     1.0  0.93664  0.47545  0.01232  1.0000
  H   H1781     1.0  0.89746  0.09532  0.13533  1.0000
  H   H1782     1.0  0.90258  0.08716  0.10934  1.0000
  H   H1783     1.0  0.88636  0.06951  0.12196  1.0000
  H   H1784     1.0  0.89114  0.03326  0.14967  1.0000
  H   H1785     1.0  0.90085  0.06195  0.16245  1.0000
  H   H1786     1.0  0.78093  0.44285  0.03227  1.0000
  H   H1787     1.0  0.92325  0.08690  0.14374  1.0000
  H   H1788     1.0  0.93168  0.05241  0.14233  1.0000
  H   H1789     1.0  0.96382  0.25984  0.03291  1.0000
  C   C1511     1.0  0.83648  0.29209  0.11092  1.0000
  H   H1790     1.0  0.86944  0.23403  0.12616  1.0000
  C   C1512     1.0  0.90417  0.00571  0.08430  1.0000
  H   H1791     1.0  0.93043  0.27136  0.08105  1.0000
  C   C1513     1.0  0.77457  0.99679  0.16440  1.0000
  H   H1792     1.0  0.89493  0.04601  0.09252  1.0000
  C   C1514     1.0  0.75755  0.14462  0.26628  1.0000
  C   C1515     1.0  0.86382  0.29193  0.11642  1.0000
  H   H1793     1.0  0.98952  0.04841  0.23690  1.0000
  H   H1794     1.0  0.98657  0.09435  0.14938  1.0000
  C   C1516     1.0  0.00368  0.04643  0.14895  1.0000
  H   H1795     1.0  0.83633  0.24078  0.16156  1.0000
  H   H1796     1.0  0.83794  0.20963  0.13008  1.0000
  C   C1517     1.0  0.99796  0.08037  0.31515  1.0000
  C   C1518     1.0  0.99070  0.08668  0.16452  1.0000
  H   H1797     1.0  0.77771  0.23122  0.22106  1.0000
  H   H1798     1.0  0.77053  0.21709  0.14369  1.0000
  H   H1799     1.0  0.84497  0.22509  0.10628  1.0000
  C   C1519     1.0  0.93835  0.25750  0.07279  1.0000
  C   C1520     1.0  0.94911  0.43367  0.99157  1.0000
  H   H1800     1.0  0.92591  0.00557  0.13556  1.0000
  H   H1801     1.0  0.84372  0.27673  0.16035  1.0000
  C   C1521     1.0  0.83802  0.25974  0.15127  1.0000
  H   H1802     1.0  0.82792  0.32765  0.09325  1.0000
  H   H1803     1.0  0.00147  0.05075  0.19213  1.0000
  H   H1804     1.0  0.85345  0.34980  0.08781  1.0000
  H   H1805     1.0  0.76985  0.46438  0.06461  1.0000
  N   N101      1.0  0.95519  0.18277  0.07865  1.0000
  C   C1522     1.0  0.96272  0.18614  0.09869  1.0000
  C   C1523     1.0  0.94073  0.16640  0.08186  1.0000
  C   C1524     1.0  0.96542  0.16512  0.06531  1.0000
  C   C1525     1.0  0.95195  0.21157  0.07009  1.0000
  C   C1526     1.0  0.94113  0.22978  0.08002  1.0000
  C   C1527     1.0  0.95997  0.22305  0.05266  1.0000
  H   H1806     1.0  0.77959  0.21147  0.29487  1.0000
  C   C1528     1.0  0.95726  0.25103  0.04578  1.0000
  C   C1529     1.0  0.94651  0.26821  0.05584  1.0000
  H   H1807     1.0  0.97356  0.19855  0.09697  1.0000
  H   H1808     1.0  0.95533  0.19770  0.11003  1.0000
  H   H1809     1.0  0.96557  0.16507  0.10565  1.0000
  H   H1810     1.0  0.93425  0.16494  0.06734  1.0000
  H   H1811     1.0  0.93309  0.17617  0.09371  1.0000
  H   H1812     1.0  0.94294  0.14415  0.08740  1.0000
  H   H1813     1.0  0.97708  0.17463  0.06378  1.0000
  H   H1814     1.0  0.96710  0.14321  0.07188  1.0000
  H   H1815     1.0  0.96057  0.16233  0.04974  1.0000
  H   H1816     1.0  0.91023  0.02855  0.15887  1.0000
  H   H1817     1.0  0.99156  0.10584  0.17456  1.0000
  C   C1530     1.0  0.00170  0.99457  0.14294  1.0000
  H   H1818     1.0  0.83154  0.37940  0.01121  1.0000
  H   H1819     1.0  0.77122  0.32511  0.01589  1.0000
  H   H1820     1.0  0.99943  0.06595  0.30161  1.0000
  H   H1821     1.0  0.82703  0.23616  0.11752  1.0000
  H   H1822     1.0  0.98003  0.08814  0.28533  1.0000
  H   H1823     1.0  0.87425  0.28350  0.12268  1.0000
  C   C1531     1.0  0.98972  0.16754  0.27341  1.0000
  C   C1532     1.0  0.86187  0.23971  0.13946  1.0000
  H   H1824     1.0  0.96864  0.21117  0.04435  1.0000
  H   H1825     1.0  0.86812  0.25430  0.14989  1.0000
  C   C1533     1.0  0.99904  0.99941  0.12218  1.0000
  C   C1534     1.0  0.83817  0.01978  0.09143  1.0000
  H   H1826     1.0  0.93524  0.22335  0.09408  1.0000
  C   C1535     1.0  0.00216  0.00484  0.98874  1.0000
  C   C1536     1.0  0.76546  0.33175  0.00210  1.0000
  H   H1827     1.0  0.76401  0.04453  0.12794  1.0000
  C   C1537     1.0  0.83553  0.04637  0.10067  1.0000
  C   C1538     1.0  0.75937  0.21651  0.15227  1.0000
  C   C1539     1.0  0.75891  0.24881  0.23912  1.0000
  H   H1828     1.0  0.76692  0.18631  0.26727  1.0000
  N   N102      1.0  0.75665  0.20411  0.30659  1.0000
  H   H1829     1.0  0.77214  0.22864  0.18576  1.0000
  C   C1540     1.0  0.99935  0.47897  0.15046  1.0000
  C   C1541     1.0  0.76840  0.22269  0.29637  1.0000
  H   H1830     1.0  0.77030  0.24284  0.30509  1.0000
  H   H1831     1.0  0.98524  0.99109  0.01165  1.0000
  S   S415      1.0  0.96106  0.46887  0.10815  1.0000
  C   C1542     1.0  0.76034  0.17072  0.27602  1.0000
  H   H1832     1.0  0.98572  0.08021  0.32021  1.0000
  C   C1543     1.0  0.85343  0.00564  0.12046  1.0000
  C   C1544     1.0  0.82446  0.37112  0.99847  1.0000
  C   C1545     1.0  0.99767  0.15352  0.28897  1.0000
  H   H1833     1.0  0.99258  0.18945  0.26922  1.0000
  C   C1546     1.0  0.99812  0.47876  0.12916  1.0000
  H   H1834     1.0  0.76005  0.00103  0.10864  1.0000
  H   H1835     1.0  0.76202  0.14103  0.25080  1.0000
  H   H1836     1.0  0.75630  0.33733  0.11385  1.0000
  C   C1547     1.0  0.99863  0.02733  0.11459  1.0000
  H   H1837     1.0  0.00001  0.45881  0.15876  1.0000
  H   H1838     1.0  0.86546  0.47697  0.13257  1.0000
  H   H1839     1.0  0.75907  0.24669  0.11974  1.0000
  H   H1840     1.0  0.86054  0.99068  0.12865  1.0000
  H   H1841     1.0  0.99596  0.03096  0.09857  1.0000
  H   H1842     1.0  0.99943  0.07175  0.12126  1.0000
  H   H1843     1.0  0.75915  0.28932  0.09849  1.0000
  N   N103      1.0  0.75636  0.24394  0.16313  1.0000
  C   C1548     1.0  0.75708  0.26684  0.12744  1.0000
  C   C1549     1.0  0.75714  0.29130  0.11492  1.0000
  H   H1844     1.0  0.78203  0.47921  0.02362  1.0000
  C   C1550     1.0  0.76291  0.47882  0.05482  1.0000
  H   H1845     1.0  0.79830  0.33677  0.98940  1.0000
  C   C1551     1.0  0.94491  0.48288  0.00012  1.0000
  C   C1552     1.0  0.00434  0.15651  0.46119  1.0000
  H   H1846     1.0  0.77109  0.02866  0.48792  1.0000
  N   N104      1.0  0.84861  0.31402  0.62702  1.0000
  S   S416      1.0  0.95637  0.35192  0.61827  1.0000
  S   S417      1.0  0.94577  0.42490  0.63971  1.0000
  S   S418      1.0  0.81773  0.39412  0.63206  1.0000
  Fe  Fe209     1.0  0.80468  0.43528  0.63682  1.0000
  H   H1847     1.0  0.85209  0.35982  0.62815  1.0000
  H   H1848     1.0  0.00243  0.07534  0.51117  1.0000
  C   C1553     1.0  0.98825  0.08421  0.64185  1.0000
  Fe  Fe210     1.0  0.96492  0.19303  0.58882  1.0000
  S   S419      1.0  0.95177  0.21023  0.56234  1.0000
  S   S420      1.0  0.97529  0.22036  0.61380  1.0000
  Fe  Fe211     1.0  0.96262  0.13100  0.57379  1.0000
  S   S421      1.0  0.94916  0.14443  0.54592  1.0000
  S   S422      1.0  0.97106  0.08469  0.57798  1.0000
  Fe  Fe212     1.0  0.96617  0.18106  0.54253  1.0000
  S   S423      1.0  0.97464  0.19777  0.51084  1.0000
  Fe  Fe213     1.0  0.93593  0.17272  0.56799  1.0000
  S   S424      1.0  0.91084  0.18489  0.57262  1.0000
  S   S425      1.0  0.98039  0.16591  0.56887  1.0000
  S   S426      1.0  0.94842  0.15712  0.59588  1.0000
  Fe  Fe214     1.0  0.79182  0.13980  0.53320  1.0000
  S   S427      1.0  0.78186  0.15531  0.56349  1.0000
  S   S428      1.0  0.77890  0.13733  0.50258  1.0000
  Fe  Fe215     1.0  0.82488  0.14017  0.55036  1.0000
  S   S429      1.0  0.81711  0.15595  0.58134  1.0000
  S   S430      1.0  0.84927  0.12547  0.54302  1.0000
  Fe  Fe216     1.0  0.79810  0.12361  0.57785  1.0000
  S   S431      1.0  0.79295  0.09603  0.60598  1.0000
  Fe  Fe217     1.0  0.80168  0.18647  0.56457  1.0000
  S   S432      1.0  0.79954  0.23554  0.56828  1.0000
  S   S433      1.0  0.80665  0.10612  0.54772  1.0000
  S   S434      1.0  0.81092  0.17266  0.53345  1.0000
  C   C1554     1.0  0.99226  0.20927  0.49879  1.0000
  C   C1555     1.0  0.99204  0.21967  0.47841  1.0000
  H   H1849     1.0  0.96344  0.10449  0.51152  1.0000
  H   H1850     1.0  0.98127  0.22070  0.47052  1.0000
  H   H1851     1.0  0.83025  0.24035  0.58486  1.0000
  C   C1556     1.0  0.89394  0.16748  0.56447  1.0000
  C   C1557     1.0  0.87966  0.17871  0.57071  1.0000
  C   C1558     1.0  0.86589  0.16614  0.56427  1.0000
  C   C1559     1.0  0.86627  0.14218  0.55146  1.0000
  C   C1560     1.0  0.88054  0.13066  0.54547  1.0000
  C   C1561     1.0  0.89432  0.14324  0.55192  1.0000
  H   H1852     1.0  0.87929  0.19730  0.58056  1.0000
  H   H1853     1.0  0.85499  0.17501  0.56912  1.0000
  H   H1854     1.0  0.88093  0.11206  0.53561  1.0000
  H   H1855     1.0  0.90522  0.13438  0.54702  1.0000
  C   C1562     1.0  0.79424  0.30070  0.62178  1.0000
  C   C1563     1.0  0.79743  0.30983  0.60160  1.0000
  C   C1564     1.0  0.79898  0.28960  0.58555  1.0000
  C   C1565     1.0  0.79757  0.25992  0.58937  1.0000
  C   C1566     1.0  0.79459  0.25077  0.60958  1.0000
  C   C1567     1.0  0.79283  0.27102  0.62558  1.0000
  H   H1856     1.0  0.79847  0.33250  0.59829  1.0000
  H   H1857     1.0  0.80130  0.29704  0.57003  1.0000
  H   H1858     1.0  0.79345  0.22811  0.61287  1.0000
  H   H1859     1.0  0.96096  0.27362  0.55807  1.0000
  C   C1568     1.0  0.79571  0.99762  0.60631  1.0000
  C   C1569     1.0  0.79562  0.01269  0.58756  1.0000
  C   C1570     1.0  0.79468  0.04282  0.58719  1.0000
  C   C1571     1.0  0.79373  0.05813  0.60561  1.0000
  C   C1572     1.0  0.79370  0.04303  0.62435  1.0000
  C   C1573     1.0  0.79477  0.01292  0.62472  1.0000
  H   H1860     1.0  0.79627  0.00104  0.57325  1.0000
  H   H1861     1.0  0.79457  0.05417  0.57267  1.0000
  H   H1862     1.0  0.79287  0.05469  0.63866  1.0000
  H   H1863     1.0  0.79466  0.00159  0.63925  1.0000
  C   C1574     1.0  0.96253  0.01628  0.62922  1.0000
  C   C1575     1.0  0.97109  0.00986  0.61140  1.0000
  C   C1576     1.0  0.97334  0.03084  0.59582  1.0000
  C   C1577     1.0  0.96690  0.05843  0.59757  1.0000
  C   C1578     1.0  0.95794  0.06457  0.61507  1.0000
  C   C1579     1.0  0.95592  0.04377  0.63082  1.0000
  H   H1864     1.0  0.99875  0.29972  0.57153  1.0000
  H   H1865     1.0  0.98027  0.02568  0.58240  1.0000
  H   H1866     1.0  0.95278  0.08548  0.61668  1.0000
  H   H1867     1.0  0.82498  0.32464  0.62157  1.0000
  C   C1580     1.0  0.96089  0.31496  0.61898  1.0000
  C   C1581     1.0  0.95355  0.29654  0.60527  1.0000
  C   C1582     1.0  0.95754  0.26740  0.60409  1.0000
  C   C1583     1.0  0.96918  0.25644  0.61627  1.0000
  C   C1584     1.0  0.97641  0.27472  0.63022  1.0000
  C   C1585     1.0  0.97222  0.30386  0.63168  1.0000
  H   H1868     1.0  0.94471  0.30490  0.59549  1.0000
  H   H1869     1.0  0.95159  0.25351  0.59370  1.0000
  H   H1870     1.0  0.98538  0.26643  0.63981  1.0000
  N   N105      1.0  0.97999  0.13659  0.64384  1.0000
  H   H1871     1.0  0.84024  0.09372  0.63049  1.0000
  C   C1586     1.0  0.75794  0.09157  0.50176  1.0000
  C   C1587     1.0  0.83586  0.07226  0.58112  1.0000
  H   H1872     1.0  0.99097  0.31038  0.33989  1.0000
  C   C1588     1.0  0.86715  0.26190  0.58916  1.0000
  C   C1589     1.0  0.86515  0.28370  0.60365  1.0000
  S   S435      1.0  0.79181  0.32519  0.64274  1.0000
  C   C1590     1.0  0.98852  0.24896  0.55885  1.0000
  H   H1873     1.0  0.76101  0.08718  0.51749  1.0000
  C   C1591     1.0  0.97131  0.11569  0.50042  1.0000
  H   H1874     1.0  0.76599  0.13723  0.46226  1.0000
  H   H1875     1.0  0.78277  0.22796  0.51829  1.0000
  H   H1876     1.0  0.99698  0.13307  0.61940  1.0000
  H   H1877     1.0  0.97799  0.31787  0.64224  1.0000
  C   C1592     1.0  0.98464  0.13815  0.62178  1.0000
  H   H1878     1.0  0.98295  0.16003  0.61533  1.0000
  H   H1879     1.0  0.83103  0.11257  0.60992  1.0000
  H   H1880     1.0  0.87043  0.30744  0.64162  1.0000
  C   C1593     1.0  0.77456  0.20968  0.51800  1.0000
  C   C1594     1.0  0.76244  0.22927  0.54814  1.0000
  H   H1881     1.0  0.98261  0.06857  0.51609  1.0000
  H   H1882     1.0  0.96490  0.29749  0.53714  1.0000
  Fe  Fe218     1.0  0.96665  0.44823  0.65011  1.0000
  N   N106      1.0  0.98493  0.27711  0.54944  1.0000
  C   C1595     1.0  0.85458  0.24644  0.58237  1.0000
  H   H1883     1.0  0.83289  0.09335  0.57424  1.0000
  H   H1884     1.0  0.84748  0.34611  0.60328  1.0000
  C   C1596     1.0  0.85797  0.30788  0.64532  1.0000
  H   H1885     1.0  0.87849  0.25693  0.58307  1.0000
  Fe  Fe219     1.0  0.79809  0.37252  0.64837  1.0000
  H   H1886     1.0  0.77990  0.19157  0.52633  1.0000
  C   C1597     1.0  0.85773  0.09462  0.59575  1.0000
  H   H1887     1.0  0.98724  0.23135  0.54749  1.0000
  H   H1888     1.0  0.94939  0.04916  0.64455  1.0000
  C   C1598     1.0  0.98187  0.10767  0.65297  1.0000
  C   C1599     1.0  0.98957  0.12259  0.52692  1.0000
  C   C1600     1.0  0.76503  0.11430  0.49111  1.0000
  H   H1889     1.0  0.84279  0.06043  0.56941  1.0000
  H   H1890     1.0  0.85477  0.28679  0.65227  1.0000
  C   C1601     1.0  0.76136  0.19963  0.32821  1.0000
  C   C1602     1.0  0.00275  0.12647  0.32986  1.0000
  H   H1891     1.0  0.98182  0.14516  0.47040  1.0000
  H   H1892     1.0  0.97639  0.98902  0.60992  1.0000
  C   C1603     1.0  0.84001  0.25248  0.59020  1.0000
  H   H1893     1.0  0.82349  0.07935  0.61881  1.0000
  H   H1894     1.0  0.96804  0.13877  0.50083  1.0000
  Fe  Fe220     1.0  0.95943  0.38425  0.64394  1.0000
  H   H1895     1.0  0.76876  0.21398  0.55802  1.0000
  H   H1896     1.0  0.79032  0.26359  0.64106  1.0000
  H   H1897     1.0  0.98078  0.24414  0.57223  1.0000
  H   H1898     1.0  0.98835  0.14632  0.52720  1.0000
  H   H1899     1.0  0.76981  0.24878  0.54718  1.0000
  H   H1900     1.0  0.77362  0.20272  0.50175  1.0000
  H   H1901     1.0  0.87894  0.00674  0.62478  1.0000
  C   C1604     1.0  0.98938  0.05701  0.65081  1.0000
  H   H1902     1.0  0.95613  0.12956  0.63792  1.0000
  C   C1605     1.0  0.76370  0.00992  0.48800  1.0000
  H   H1903     1.0  0.98094  0.11325  0.53789  1.0000
  H   H1904     1.0  0.97772  0.12324  0.61235  1.0000
  H   H1905     1.0  0.98975  0.07147  0.48996  1.0000
  H   H1906     1.0  0.85611  0.22976  0.57096  1.0000
  C   C1606     1.0  0.83689  0.02689  0.61372  1.0000
  C   C1607     1.0  0.85547  0.99309  0.62638  1.0000
  C   C1608     1.0  0.83440  0.09098  0.61558  1.0000
  H   H1907     1.0  0.00010  0.27806  0.34871  1.0000
  H   H1908     1.0  0.82499  0.03150  0.61103  1.0000
  H   H1909     1.0  0.82626  0.27764  0.61009  1.0000
  H   H1910     1.0  0.76712  0.00080  0.51998  1.0000
  C   C1609     1.0  0.99077  0.08042  0.50571  1.0000
  C   C1610     1.0  0.98711  0.29991  0.56497  1.0000
  C   C1611     1.0  0.00221  0.29947  0.34149  1.0000
  H   H1911     1.0  0.75795  0.01611  0.45697  1.0000
  C   C1612     1.0  0.86718  0.01249  0.62161  1.0000
  H   H1912     1.0  0.99364  0.03909  0.64181  1.0000
  C   C1613     1.0  0.86384  0.03924  0.61293  1.0000
  C   C1614     1.0  0.76066  0.11973  0.47070  1.0000
  C   C1615     1.0  0.76140  0.99433  0.50610  1.0000
  N   N107      1.0  0.84435  0.07580  0.60047  1.0000
  H   H1913     1.0  0.97800  0.28296  0.50733  1.0000
  H   H1914     1.0  0.85410  0.11575  0.58943  1.0000
  C   C1616     1.0  0.84849  0.04733  0.60885  1.0000
  H   H1915     1.0  0.99194  0.08588  0.62595  1.0000
  S   S436      1.0  0.80570  0.46473  0.60892  1.0000
  H   H1916     1.0  0.86543  0.08508  0.58378  1.0000
  C   C1617     1.0  0.85042  0.29056  0.61190  1.0000
  C   C1618     1.0  0.84035  0.00024  0.62234  1.0000
  H   H1917     1.0  0.96575  0.25895  0.53351  1.0000
  C   C1619     1.0  0.96370  0.14548  0.64541  1.0000
  H   H1918     1.0  0.75916  0.25997  0.51503  1.0000
  C   C1620     1.0  0.83788  0.27415  0.60476  1.0000
  C   C1621     1.0  0.83256  0.31825  0.63436  1.0000
  N   N108      1.0  0.98764  0.11165  0.50576  1.0000
  H   H1919     1.0  0.83122  0.98512  0.62603  1.0000
  C   C1622     1.0  0.96845  0.27683  0.54419  1.0000
  H   H1920     1.0  0.87346  0.05319  0.60962  1.0000
  H   H1921     1.0  0.97906  0.29741  0.57834  1.0000
  H   H1922     1.0  0.00462  0.07034  0.32773  1.0000
  H   H1923     1.0  0.96181  0.16672  0.63792  1.0000
  C   C1623     1.0  0.85388  0.34140  0.61756  1.0000
  H   H1924     1.0  0.87524  0.29521  0.60830  1.0000
  H   H1925     1.0  0.86442  0.09935  0.60971  1.0000
  H   H1926     1.0  0.96882  0.10701  0.48495  1.0000
  S   S437      1.0  0.98113  0.40822  0.65130  1.0000
  H   H1927     1.0  0.00519  0.23662  0.45242  1.0000
  N   N109      1.0  0.75953  0.21703  0.52752  1.0000
  H   H1928     1.0  0.98513  0.32155  0.55824  1.0000
  H   H1929     1.0  0.82484  0.06076  0.58344  1.0000
  H   H1930     1.0  0.86489  0.45528  0.63387  1.0000
  H   H1931     1.0  0.86629  0.34120  0.61348  1.0000
  H   H1932     1.0  0.83161  0.33563  0.64600  1.0000
  C   C1624     1.0  0.99372  0.14247  0.47411  1.0000
  H   H1933     1.0  0.98852  0.17953  0.64821  1.0000
  C   C1625     1.0  0.86315  0.47537  0.62577  1.0000
  C   C1626     1.0  0.99529  0.28223  0.53149  1.0000
  C   C1627     1.0  0.99852  0.12653  0.49153  1.0000
  S   S438      1.0  0.78391  0.41326  0.65118  1.0000
  H   H1934     1.0  0.83870  0.47003  0.62448  1.0000
  H   H1935     1.0  0.99582  0.29162  0.47904  1.0000
  C   C1628     1.0  0.98993  0.28507  0.51107  1.0000
  H   H1936     1.0  0.99524  0.32846  0.37600  1.0000
  H   H1937     1.0  0.82773  0.29860  0.64183  1.0000
  S   S439      1.0  0.96130  0.99231  0.65084  1.0000
  H   H1938     1.0  0.99070  0.13000  0.33508  1.0000
  H   H1939     1.0  0.00092  0.11733  0.53329  1.0000
  C   C1629     1.0  0.00008  0.29010  0.49455  1.0000
  H   H1940     1.0  0.77038  0.46583  0.60098  1.0000
  H   H1941     1.0  0.76423  0.22022  0.33585  1.0000
  H   H1942     1.0  0.77510  0.45365  0.56459  1.0000
  C   C1630     1.0  0.76888  0.48201  0.58915  1.0000
  H   H1943     1.0  0.77151  0.18531  0.32899  1.0000
  H   H1944     1.0  0.00036  0.24799  0.56471  1.0000
  C   C1631     1.0  0.77162  0.47525  0.56859  1.0000
  H   H1945     1.0  0.00044  0.16914  0.44828  1.0000
  H   H1946     1.0  0.00505  0.29583  0.38171  1.0000
  C   C1632     1.0  0.75605  0.00230  0.47015  1.0000
  H   H1947     1.0  0.00172  0.15138  0.65463  1.0000
  S   S440      1.0  0.95983  0.44427  0.68340  1.0000
  S   S441      1.0  0.95193  0.37706  0.67702  1.0000
  C   C1633     1.0  0.75844  0.47446  0.75583  1.0000
  C   C1634     1.0  0.89699  0.39541  0.67085  1.0000
  Fe  Fe221     1.0  0.97316  0.40298  0.68433  1.0000
  S   S442      1.0  0.99179  0.40142  0.70906  1.0000
  H   H1948     1.0  0.86075  0.44313  0.67721  1.0000
  Fe  Fe222     1.0  0.79575  0.42193  0.68127  1.0000
  C   C1635     1.0  0.88546  0.44120  0.67877  1.0000
  S   S443      1.0  0.78724  0.43528  0.71387  1.0000
  C   C1636     1.0  0.88036  0.38827  0.72172  1.0000
  C   C1637     1.0  0.87078  0.42982  0.67522  1.0000
  H   H1949     1.0  0.99138  0.45286  0.94360  1.0000
  S   S444      1.0  0.80817  0.37958  0.67953  1.0000
  C   C1638     1.0  0.77119  0.45430  0.72494  1.0000
  C   C1639     1.0  0.00355  0.32471  0.73592  1.0000
  C   C1640     1.0  0.80436  0.33163  0.97525  1.0000
  H   H1950     1.0  0.83703  0.45483  0.71677  1.0000
  H   H1951     1.0  0.77017  0.34798  0.76240  1.0000
  C   C1641     1.0  0.99615  0.34536  0.72361  1.0000
  H   H1952     1.0  0.83685  0.40614  0.76181  1.0000
  C   C1642     1.0  0.75824  0.23928  0.88620  1.0000
  H   H1953     1.0  0.88118  0.36147  0.66391  1.0000
  H   H1954     1.0  0.76141  0.99757  0.81445  1.0000
  C   C1643     1.0  0.80268  0.31695  0.93979  1.0000
  H   H1955     1.0  0.76437  0.17935  0.94752  1.0000
  H   H1956     1.0  0.76109  0.38936  0.97076  1.0000
  H   H1957     1.0  0.99170  0.46638  0.70424  1.0000
  C   C1644     1.0  0.95755  0.47226  0.96751  1.0000
  H   H1958     1.0  0.83973  0.32673  0.95192  1.0000
  Fe  Fe223     1.0  0.82733  0.40267  0.66307  1.0000
  H   H1959     1.0  0.90701  0.38189  0.66940  1.0000
  C   C1645     1.0  0.83334  0.43256  0.71345  1.0000
  C   C1646     1.0  0.79559  0.32365  0.95848  1.0000
  H   H1960     1.0  0.79580  0.31094  0.92680  1.0000
  C   C1647     1.0  0.76005  0.25037  0.90585  1.0000
  H   H1961     1.0  0.94943  0.41679  0.97957  1.0000
  H   H1962     1.0  0.88659  0.46323  0.68359  1.0000
  H   H1963     1.0  0.83559  0.44283  0.75342  1.0000
  H   H1964     1.0  0.76517  0.27135  0.90774  1.0000
  H   H1965     1.0  0.75557  0.24543  0.93787  1.0000
  C   C1648     1.0  0.87989  0.43702  0.73375  1.0000
  H   H1966     1.0  0.84922  0.35964  0.97552  1.0000
  C   C1649     1.0  0.83250  0.42044  0.74950  1.0000
  N   N110      1.0  0.83861  0.41172  0.72901  1.0000
  H   H1967     1.0  0.78319  0.32290  0.96000  1.0000
  C   C1650     1.0  0.76187  0.36522  0.76209  1.0000
  C   C1651     1.0  0.83169  0.38348  0.72418  1.0000
  C   C1652     1.0  0.76149  0.99444  0.73133  1.0000
  H   H1968     1.0  0.82405  0.31290  0.92321  1.0000
  H   H1969     1.0  0.88600  0.45638  0.73775  1.0000
  H   H1970     1.0  0.98728  0.33883  0.71323  1.0000
  H   H1971     1.0  0.82665  0.00537  0.71915  1.0000
  C   C1653     1.0  0.98416  0.05224  0.67088  1.0000
  C   C1654     1.0  0.88232  0.38388  0.66775  1.0000
  H   H1972     1.0  0.92669  0.48210  0.96759  1.0000
  C   C1655     1.0  0.86387  0.43637  0.73447  1.0000
  C   C1656     1.0  0.85558  0.41145  0.72888  1.0000
  H   H1973     1.0  0.85636  0.32453  0.65739  1.0000
  H   H1974     1.0  0.81011  0.98929  0.74929  1.0000
  C   C1657     1.0  0.00031  0.37429  0.72469  1.0000
  H   H1975     1.0  0.82060  0.43297  0.71261  1.0000
  C   C1658     1.0  0.97717  0.10226  0.67365  1.0000
  S   S445      1.0  0.81594  0.44565  0.66668  1.0000
  C   C1659     1.0  0.81859  0.31812  0.93782  1.0000
  C   C1660     1.0  0.93065  0.46083  0.97305  1.0000
  H   H1976     1.0  0.97240  0.11907  0.68315  1.0000
  H   H1977     1.0  0.92168  0.45274  0.98412  1.0000
  H   H1978     1.0  0.97257  0.43440  0.96798  1.0000
  Fe  Fe224     1.0  0.93948  0.41922  0.67300  1.0000
  H   H1979     1.0  0.83526  0.36665  0.73526  1.0000
  H   H1980     1.0  0.00026  0.30241  0.73482  1.0000
  H   H1981     1.0  0.95960  0.14786  0.66156  1.0000
  H   H1982     1.0  0.88683  0.36998  0.71613  1.0000
  H   H1983     1.0  0.81892  0.38431  0.72474  1.0000
  H   H1984     1.0  0.85915  0.36781  0.71705  1.0000
  C   C1661     1.0  0.82059  0.33328  0.97380  1.0000
  C   C1662     1.0  0.98142  0.46573  0.94747  1.0000
  C   C1663     1.0  0.88811  0.41302  0.72736  1.0000
  H   H1985     1.0  0.98579  0.15951  0.67145  1.0000
  H   H1986     1.0  0.76209  0.25145  0.87284  1.0000
  C   C1664     1.0  0.86435  0.38735  0.72237  1.0000
  H   H1987     1.0  0.85110  0.32246  0.98354  1.0000
  S   S446      1.0  0.91660  0.43809  0.68382  1.0000
  H   H1988     1.0  0.90051  0.41385  0.72618  1.0000
  H   H1989     1.0  0.83485  0.37646  0.70832  1.0000
  H   H1990     1.0  0.81972  0.41965  0.75014  1.0000
  C   C1665     1.0  0.89860  0.42395  0.67683  1.0000
  C   C1666     1.0  0.82749  0.32615  0.95452  1.0000
  C   C1667     1.0  0.77105  0.46057  0.74615  1.0000
  N   N111      1.0  0.94584  0.46240  0.98277  1.0000
  H   H1991     1.0  0.75792  0.36342  0.79424  1.0000
  H   H1992     1.0  0.75761  0.21046  0.96118  1.0000
  C   C1668     1.0  0.97041  0.45535  0.96153  1.0000
  H   H1993     1.0  0.82530  0.38688  0.98561  1.0000
  H   H1994     1.0  0.98443  0.03075  0.67733  1.0000
  C   C1669     1.0  0.75844  0.46244  0.71354  1.0000
  C   C1670     1.0  0.75845  0.37821  0.74341  1.0000
  H   H1995     1.0  0.78078  0.45451  0.75523  1.0000
  H   H1996     1.0  0.83796  0.42697  0.69793  1.0000
  C   C1671     1.0  0.97820  0.07487  0.68235  1.0000
  H   H1997     1.0  0.76417  0.37142  0.72931  1.0000
  H   H1998     1.0  0.97411  0.07096  0.69796  1.0000
  C   C1672     1.0  0.86915  0.40090  0.67012  1.0000
  S   S447      1.0  0.85101  0.38413  0.66851  1.0000
  C   C1673     1.0  0.75971  0.36781  0.97673  1.0000
  H   H1999     1.0  0.85802  0.45577  0.73901  1.0000
  H   H2000     1.0  0.99302  0.45538  0.67791  1.0000
  H   H2001     1.0  0.93096  0.44612  0.95963  1.0000
  H   H2002     1.0  0.76315  0.01713  0.72854  1.0000
  H   H2003     1.0  0.75869  0.47916  0.77207  1.0000
  H   H2004     1.0  0.75825  0.45789  0.69726  1.0000
  C   C1674     1.0  0.99596  0.47295  0.68865  1.0000
  H   H2005     1.0  0.93569  0.47886  0.65879  1.0000
  C   C1675     1.0  0.98942  0.15761  0.65505  1.0000
  H   H2006     1.0  0.81331  0.98440  0.70480  1.0000
  C   C1676     1.0  0.84631  0.34375  0.98780  1.0000
  Fe  Fe225     1.0  0.96886  0.92528  0.03944  1.0000
  S   S448      1.0  0.97425  0.90806  0.07113  1.0000
  S   S449      1.0  0.98836  0.92806  0.01480  1.0000
  Fe  Fe226     1.0  0.93416  0.92829  0.05042  1.0000
  S   S450      1.0  0.93738  0.91219  0.08255  1.0000
  S   S451      1.0  0.91071  0.94229  0.03899  1.0000
  Fe  Fe227     1.0  0.95774  0.94188  0.08254  1.0000
  C   C1677     1.0  0.99478  0.56387  0.24143  1.0000
  Fe  Fe228     1.0  0.95343  0.87951  0.06872  1.0000
  S   S452      1.0  0.95002  0.83109  0.07487  1.0000
  S   S453      1.0  0.95349  0.96057  0.05129  1.0000
  S   S454      1.0  0.94909  0.89424  0.03613  1.0000
  Fe  Fe229     1.0  0.79333  0.88653  0.03770  1.0000
  S   S455      1.0  0.77981  0.90349  0.06496  1.0000
  S   S456      1.0  0.78336  0.87756  0.00558  1.0000
  Fe  Fe230     1.0  0.82382  0.88955  0.06136  1.0000
  S   S457      1.0  0.81211  0.90602  0.08996  1.0000
  S   S458      1.0  0.84890  0.87864  0.06666  1.0000
  Fe  Fe231     1.0  0.79406  0.87305  0.08363  1.0000
  S   S459      1.0  0.78551  0.84849  0.11180  1.0000
  Fe  Fe232     1.0  0.79907  0.93526  0.06939  1.0000
  C   C1678     1.0  0.98202  0.62528  0.26879  1.0000
  S   S460      1.0  0.80653  0.85427  0.05643  1.0000
  S   S461      1.0  0.81180  0.92076  0.04071  1.0000
  Fe  Fe233     1.0  0.95776  0.62978  0.13724  1.0000
  S   S462      1.0  0.95288  0.61084  0.16845  1.0000
  S   S463      1.0  0.96304  0.60517  0.10794  1.0000
  Fe  Fe234     1.0  0.95772  0.69178  0.15269  1.0000
  S   S464      1.0  0.95301  0.67718  0.18541  1.0000
  S   S465      1.0  0.96350  0.73903  0.14588  1.0000
  Fe  Fe235     1.0  0.97032  0.64196  0.18014  1.0000
  S   S466      1.0  0.99048  0.63225  0.20161  1.0000
  Fe  Fe236     1.0  0.93582  0.64710  0.17155  1.0000
  S   S467      1.0  0.91295  0.63693  0.18749  1.0000
  S   S468      1.0  0.97631  0.65883  0.14845  1.0000
  S   S469      1.0  0.93941  0.66374  0.13929  1.0000
  Fe  Fe237     1.0  0.79580  0.68552  0.13777  1.0000
  S   S470      1.0  0.80543  0.70431  0.16639  1.0000
  S   S471      1.0  0.78765  0.71222  0.11091  1.0000
  Fe  Fe238     1.0  0.80258  0.62300  0.15038  1.0000
  S   S472      1.0  0.81264  0.63798  0.18031  1.0000
  S   S473      1.0  0.80366  0.57419  0.14483  1.0000
  Fe  Fe239     1.0  0.79255  0.66875  0.18286  1.0000
  S   S474      1.0  0.77709  0.67183  0.21203  1.0000
  Fe  Fe240     1.0  0.82456  0.67229  0.16148  1.0000
  S   S475      1.0  0.84931  0.68724  0.15686  1.0000
  S   S476      1.0  0.78179  0.65142  0.15409  1.0000
  S   S477      1.0  0.81553  0.65582  0.13170  1.0000
  S   S478      1.0  0.96173  0.96805  0.11134  1.0000
  C   C1679     1.0  0.87267  0.54867  0.13475  1.0000
  C   C1680     1.0  0.76669  0.69949  0.22535  1.0000
  H   H2007     1.0  0.95828  0.66579  0.10149  1.0000
  H   H2008     1.0  0.86982  0.98287  0.07462  1.0000
  H   H2009     1.0  0.78502  0.92452  0.13418  1.0000
  H   H2010     1.0  0.83363  0.94938  0.11286  1.0000
  C   C1681     1.0  0.86327  0.49978  0.13368  1.0000
  H   H2011     1.0  0.99369  0.63282  0.26645  1.0000
  H   H2012     1.0  0.96900  0.64656  0.06976  1.0000
  C   C1682     1.0  0.89528  0.65062  0.17861  1.0000
  C   C1683     1.0  0.89475  0.67118  0.16293  1.0000
  C   C1684     1.0  0.88058  0.68220  0.15663  1.0000
  C   C1685     1.0  0.86675  0.67262  0.16574  1.0000
  C   C1686     1.0  0.86723  0.65179  0.18126  1.0000
  C   C1687     1.0  0.88144  0.64093  0.18769  1.0000
  H   H2013     1.0  0.90529  0.67896  0.15587  1.0000
  H   H2014     1.0  0.88037  0.69834  0.14465  1.0000
  H   H2015     1.0  0.85670  0.64448  0.18859  1.0000
  H   H2016     1.0  0.88172  0.62514  0.19990  1.0000
  H   H2017     1.0  0.97938  0.66967  0.05222  1.0000
  C   C1688     1.0  0.80189  0.50885  0.09121  1.0000
  C   C1689     1.0  0.80038  0.53847  0.08730  1.0000
  C   C1690     1.0  0.80085  0.55877  0.10338  1.0000
  C   C1691     1.0  0.80273  0.54972  0.12373  1.0000
  C   C1692     1.0  0.80427  0.52011  0.12762  1.0000
  C   C1693     1.0  0.80390  0.49984  0.11153  1.0000
  H   H2018     1.0  0.79884  0.54581  0.07169  1.0000
  H   H2019     1.0  0.79968  0.58138  0.10003  1.0000
  H   H2020     1.0  0.80573  0.51276  0.14326  1.0000
  C   C1694     1.0  0.99771  0.53156  0.15068  1.0000
  C   C1695     1.0  0.78672  0.81068  0.11135  1.0000
  C   C1696     1.0  0.78847  0.79543  0.12982  1.0000
  C   C1697     1.0  0.78894  0.76526  0.12992  1.0000
  C   C1698     1.0  0.78725  0.75012  0.11159  1.0000
  C   C1699     1.0  0.78534  0.76538  0.09318  1.0000
  C   C1700     1.0  0.78531  0.79554  0.09299  1.0000
  H   H2021     1.0  0.78954  0.80700  0.14409  1.0000
  H   H2022     1.0  0.79037  0.75382  0.14424  1.0000
  H   H2023     1.0  0.78399  0.75386  0.07893  1.0000
  H   H2024     1.0  0.78379  0.80705  0.07869  1.0000
  H   H2025     1.0  0.92405  0.63012  0.26271  1.0000
  H   H2026     1.0  0.75720  0.50776  0.02147  1.0000
  C   C1701     1.0  0.96110  0.68806  0.09655  1.0000
  C   C1702     1.0  0.95265  0.80708  0.09602  1.0000
  C   C1703     1.0  0.94583  0.77969  0.09543  1.0000
  C   C1704     1.0  0.94845  0.75906  0.11096  1.0000
  C   C1705     1.0  0.95831  0.76522  0.12706  1.0000
  C   C1706     1.0  0.96487  0.79282  0.12790  1.0000
  C   C1707     1.0  0.96198  0.81369  0.11261  1.0000
  H   H2027     1.0  0.93854  0.77435  0.08275  1.0000
  H   H2028     1.0  0.94293  0.73839  0.11033  1.0000
  H   H2029     1.0  0.97243  0.79800  0.14032  1.0000
  H   H2030     1.0  0.96734  0.83457  0.11333  1.0000
  C   C1708     1.0  0.96032  0.50674  0.10716  1.0000
  C   C1709     1.0  0.96370  0.52207  0.08909  1.0000
  C   C1710     1.0  0.96433  0.55227  0.08942  1.0000
  C   C1711     1.0  0.96131  0.56733  0.10771  1.0000
  C   C1712     1.0  0.95753  0.55199  0.12560  1.0000
  C   C1713     1.0  0.95724  0.52185  0.12538  1.0000
  C   C1714     1.0  0.97028  0.66925  0.06443  1.0000
  H   H2031     1.0  0.96724  0.56394  0.07548  1.0000
  H   H2032     1.0  0.95491  0.56328  0.13963  1.0000
  H   H2033     1.0  0.95464  0.51012  0.13941  1.0000
  C   C1715     1.0  0.89366  0.92375  0.04613  1.0000
  C   C1716     1.0  0.87973  0.93156  0.03716  1.0000
  C   C1717     1.0  0.86593  0.91759  0.04286  1.0000
  C   C1718     1.0  0.86593  0.89592  0.05783  1.0000
  C   C1719     1.0  0.87988  0.88819  0.06675  1.0000
  C   C1720     1.0  0.89365  0.90195  0.06093  1.0000
  H   H2034     1.0  0.87966  0.94825  0.02557  1.0000
  H   H2035     1.0  0.85535  0.92347  0.03559  1.0000
  H   H2036     1.0  0.88009  0.87153  0.07833  1.0000
  H   H2037     1.0  0.90429  0.89564  0.06789  1.0000
  H   H2038     1.0  0.77832  0.90892  0.11114  1.0000
  H   H2039     1.0  0.98870  0.78312  0.09482  1.0000
  H   H2040     1.0  0.98065  0.57809  0.18386  1.0000
  C   C1721     1.0  0.76800  0.85734  0.99460  1.0000
  N   N112      1.0  0.94371  0.63140  0.24215  1.0000
  C   C1722     1.0  0.99698  0.50450  0.11841  1.0000
  C   C1723     1.0  0.94303  0.66303  0.23954  1.0000
  C   C1724     1.0  0.94807  0.61837  0.22219  1.0000
  C   C1725     1.0  0.95533  0.62355  0.25749  1.0000
  N   N113      1.0  0.76449  0.94401  0.12224  1.0000
  C   C1726     1.0  0.98274  0.55729  0.17607  1.0000
  H   H2041     1.0  0.98371  0.54086  0.18840  1.0000
  H   H2042     1.0  0.76551  0.96020  0.09105  1.0000
  C   C1727     1.0  0.99739  0.95507  0.99897  1.0000
  H   H2043     1.0  0.98137  0.80010  0.06042  1.0000
  H   H2044     1.0  0.94071  0.67380  0.25450  1.0000
  H   H2045     1.0  0.93388  0.66950  0.22873  1.0000
  H   H2046     1.0  0.95381  0.67217  0.23292  1.0000
  H   H2047     1.0  0.96127  0.58078  0.29981  1.0000
  H   H2048     1.0  0.93948  0.62312  0.21025  1.0000
  H   H2049     1.0  0.95928  0.62651  0.21628  1.0000
  H   H2050     1.0  0.91516  0.96507  0.07909  1.0000
  H   H2051     1.0  0.77517  0.95150  0.16135  1.0000
  C   C1728     1.0  0.76859  0.72865  0.22074  1.0000
  N   N114      1.0  0.83633  0.74941  0.10844  1.0000
  C   C1729     1.0  0.82508  0.75766  0.09263  1.0000
  C   C1730     1.0  0.84154  0.71988  0.10362  1.0000
  C   C1731     1.0  0.82824  0.74906  0.12866  1.0000
  C   C1732     1.0  0.84967  0.76899  0.10927  1.0000
  C   C1733     1.0  0.86191  0.76301  0.12271  1.0000
  C   C1734     1.0  0.85094  0.79433  0.09708  1.0000
  C   C1735     1.0  0.87483  0.78073  0.12334  1.0000
  C   C1736     1.0  0.86391  0.81186  0.09786  1.0000
  C   C1737     1.0  0.87587  0.80501  0.11084  1.0000
  H   H2052     1.0  0.83047  0.75878  0.07702  1.0000
  H   H2053     1.0  0.81559  0.74177  0.09175  1.0000
  H   H2054     1.0  0.81961  0.77869  0.09620  1.0000
  H   H2055     1.0  0.83169  0.70483  0.10221  1.0000
  H   H2056     1.0  0.84879  0.71070  0.11584  1.0000
  H   H2057     1.0  0.84830  0.71945  0.08895  1.0000
  H   H2058     1.0  0.82421  0.77090  0.13297  1.0000
  H   H2059     1.0  0.81805  0.73469  0.12852  1.0000
  H   H2060     1.0  0.83561  0.74113  0.14122  1.0000
  H   H2061     1.0  0.86157  0.74456  0.13287  1.0000
  H   H2062     1.0  0.84211  0.80125  0.08677  1.0000
  H   H2063     1.0  0.88411  0.77558  0.13358  1.0000
  H   H2064     1.0  0.86464  0.83091  0.08825  1.0000
  H   H2065     1.0  0.88594  0.81863  0.11123  1.0000
  H   H2066     1.0  0.86904  0.94536  0.08053  1.0000
  C   C1738     1.0  0.86632  0.96701  0.08665  1.0000
  H   H2067     1.0  0.99022  0.68733  0.10659  1.0000
  H   H2068     1.0  0.94095  0.50445  0.99536  1.0000
  H   H2069     1.0  0.96802  0.71571  0.04373  1.0000
  H   H2070     1.0  0.98629  0.65357  0.09562  1.0000
  C   C1739     1.0  0.75776  0.94770  0.10158  1.0000
  H   H2071     1.0  0.97236  0.55205  0.16714  1.0000
  H   H2072     1.0  0.84256  0.94218  0.06753  1.0000
  H   H2073     1.0  0.98501  0.73331  0.10489  1.0000
  C   C1740     1.0  0.77948  0.92963  0.11939  1.0000
  C   C1741     1.0  0.96377  0.59583  0.28744  1.0000
  H   H2074     1.0  0.98768  0.59898  0.29474  1.0000
  H   H2075     1.0  0.96360  0.70048  0.11065  1.0000
  H   H2076     1.0  0.76981  0.49884  0.05308  1.0000
  H   H2077     1.0  0.00161  0.97276  0.14880  1.0000
  C   C1742     1.0  0.99723  0.60720  0.22038  1.0000
  C   C1743     1.0  0.97684  0.71876  0.07509  1.0000
  C   C1744     1.0  0.76667  0.97135  0.13331  1.0000
  H   H2078     1.0  0.87382  0.97012  0.10006  1.0000
  H   H2079     1.0  0.84437  0.97890  0.06048  1.0000
  C   C1745     1.0  0.98781  0.67673  0.09174  1.0000
  H   H2080     1.0  0.97760  0.57921  0.22058  1.0000
  H   H2081     1.0  0.98464  0.58428  0.14022  1.0000
  C   C1746     1.0  0.98467  0.76784  0.08362  1.0000
  N   N115      1.0  0.85398  0.59062  0.13633  1.0000
  C   C1747     1.0  0.86779  0.60922  0.13453  1.0000
  C   C1748     1.0  0.84388  0.59794  0.11898  1.0000
  C   C1749     1.0  0.85747  0.55958  0.13595  1.0000
  C   C1750     1.0  0.84540  0.53916  0.13646  1.0000
  H   H2082     1.0  0.88709  0.51126  0.13247  1.0000
  C   C1751     1.0  0.87543  0.51916  0.13359  1.0000
  H   H2083     1.0  0.98553  0.49103  0.00663  1.0000
  H   H2084     1.0  0.87550  0.60624  0.14783  1.0000
  H   H2085     1.0  0.86470  0.63237  0.13440  1.0000
  H   H2086     1.0  0.87434  0.60514  0.12001  1.0000
  H   H2087     1.0  0.83228  0.58818  0.12075  1.0000
  H   H2088     1.0  0.84201  0.62145  0.11771  1.0000
  H   H2089     1.0  0.84887  0.59041  0.10409  1.0000
  C   C1752     1.0  0.92798  0.62141  0.24762  1.0000
  C   C1753     1.0  0.97865  0.60616  0.28472  1.0000
  H   H2090     1.0  0.97406  0.64756  0.24260  1.0000
  H   H2091     1.0  0.95910  0.67487  0.05753  1.0000
  H   H2092     1.0  0.97118  0.76608  0.03521  1.0000
  H   H2093     1.0  0.84329  0.62115  0.15682  1.0000
  H   H2094     1.0  0.84665  0.92502  0.10024  1.0000
  H   H2095     1.0  0.76523  0.72087  0.14240  1.0000
  H   H2096     1.0  0.83878  0.49472  0.13525  1.0000
  H   H2097     1.0  0.92860  0.96539  0.11206  1.0000
  C   C1754     1.0  0.84088  0.96437  0.07336  1.0000
  N   N116      1.0  0.97409  0.68869  0.08164  1.0000
  H   H2098     1.0  0.85323  0.94642  0.12070  1.0000
  C   C1755     1.0  0.84594  0.59784  0.15591  1.0000
  H   H2099     1.0  0.88263  0.56242  0.13461  1.0000
  H   H2100     1.0  0.85303  0.59221  0.16938  1.0000
  H   H2101     1.0  0.94102  0.59518  0.27696  1.0000
  C   C1756     1.0  0.95221  0.60433  0.27410  1.0000
  N   N117      1.0  0.84984  0.96972  0.09217  1.0000
  H   H2102     1.0  0.78753  0.94335  0.11024  1.0000
  H   H2103     1.0  0.80778  0.97718  0.11742  1.0000
  C   C1757     1.0  0.98055  0.77745  0.06423  1.0000
  C   C1758     1.0  0.99467  0.48482  0.99616  1.0000
  H   H2104     1.0  0.98811  0.54536  0.24622  1.0000
  C   C1759     1.0  0.75835  0.83930  0.00628  1.0000
  C   C1760     1.0  0.84566  0.94680  0.10720  1.0000
  C   C1761     1.0  0.97061  0.63376  0.25528  1.0000
  H   H2105     1.0  0.83482  0.58638  0.15780  1.0000
  H   H2106     1.0  0.76001  0.83733  0.02266  1.0000
  H   H2107     1.0  0.77696  0.73522  0.20918  1.0000
  C   C1762     1.0  0.98880  0.58304  0.22672  1.0000
  H   H2108     1.0  0.96620  0.51064  0.07501  1.0000
  H   H2109     1.0  0.94901  0.59466  0.22353  1.0000
  S   S479      1.0  0.80086  0.48425  0.07019  1.0000
  H   H2110     1.0  0.92720  0.59760  0.24800  1.0000
  C   C1763     1.0  0.97288  0.72923  0.05531  1.0000
  C   C1764     1.0  0.97470  0.75821  0.05010  1.0000
  C   C1765     1.0  0.98266  0.73908  0.08915  1.0000
  H   H2111     1.0  0.99816  0.67897  0.08161  1.0000
  C   C1766     1.0  0.84828  0.50977  0.13519  1.0000
  H   H2112     1.0  0.99481  0.60449  0.15875  1.0000
  H   H2113     1.0  0.91951  0.62848  0.23597  1.0000
  H   H2114     1.0  0.83359  0.54584  0.13772  1.0000
  H   H2115     1.0  0.95629  0.48553  0.00731  1.0000
  H   H2116     1.0  0.95062  0.69748  0.08979  1.0000
  C   C1767     1.0  0.99921  0.50493  0.16112  1.0000
  H   H2117     1.0  0.99505  0.54953  0.11959  1.0000
  H   H2118     1.0  0.78329  0.70966  0.99959  1.0000
  H   H2119     1.0  0.76139  0.77193  0.22751  1.0000
  H   H2120     1.0  0.99984  0.50395  0.17767  1.0000
  C   C1768     1.0  0.99668  0.53060  0.12889  1.0000
  H   H2121     1.0  0.78728  0.76221  0.99953  1.0000
  N   N118      1.0  0.99655  0.55854  0.16249  1.0000
  H   H2122     1.0  0.82835  0.96681  0.07641  1.0000
  C   C1769     1.0  0.99530  0.58456  0.14936  1.0000
  C   C1770     1.0  0.75968  0.74951  0.23119  1.0000
  H   H2123     1.0  0.76432  0.70723  0.17940  1.0000
  H   H2124     1.0  0.99552  0.50406  0.10189  1.0000
  H   H2125     1.0  0.75761  0.76880  0.14172  1.0000
  H   H2126     1.0  0.75894  0.81703  0.15487  1.0000
  H   H2127     1.0  0.75914  0.91808  0.14918  1.0000
  C   C1771     1.0  0.92110  0.98306  0.10820  1.0000
  C   C1772     1.0  0.77227  0.97128  0.15367  1.0000
  H   H2128     1.0  0.99673  0.98151  0.11209  1.0000
  H   H2129     1.0  0.75587  0.92674  0.09389  1.0000
  C   C1773     1.0  0.75584  0.69173  0.24074  1.0000
  S   S480      1.0  0.79500  0.98325  0.07578  1.0000
  C   C1774     1.0  0.91354  0.98285  0.08959  1.0000
  H   H2130     1.0  0.00533  0.58685  0.13870  1.0000
  C   C1775     1.0  0.77729  0.72292  0.98866  1.0000
  C   C1776     1.0  0.77959  0.75249  0.98866  1.0000
  C   C1777     1.0  0.90649  0.55711  0.65135  1.0000
  H   H2131     1.0  0.89219  0.81148  0.59644  1.0000
  Fe  Fe241     1.0  0.96781  0.88227  0.63926  1.0000
  S   S481      1.0  0.97673  0.85528  0.61266  1.0000
  S   S482      1.0  0.94851  0.91342  0.63490  1.0000
  S   S483      1.0  0.82275  0.90707  0.63301  1.0000
  Fe  Fe242     1.0  0.80178  0.93477  0.63528  1.0000
  C   C1778     1.0  0.75651  0.65370  0.43199  1.0000
  H   H2132     1.0  0.98203  0.68599  0.41401  1.0000
  S   S484      1.0  0.81305  0.82566  0.63907  1.0000
  Fe  Fe243     1.0  0.96385  0.69430  0.58098  1.0000
  S   S485      1.0  0.95939  0.71272  0.54968  1.0000
  S   S486      1.0  0.96589  0.72054  0.61008  1.0000
  Fe  Fe244     1.0  0.96004  0.63192  0.56751  1.0000
  S   S487      1.0  0.95541  0.64628  0.53505  1.0000
  S   S488      1.0  0.95666  0.58354  0.57286  1.0000
  Fe  Fe245     1.0  0.97498  0.67765  0.53800  1.0000
  S   S489      1.0  0.99172  0.67911  0.51007  1.0000
  Fe  Fe246     1.0  0.94032  0.68006  0.54899  1.0000
  S   S490      1.0  0.91740  0.69362  0.53596  1.0000
  S   S491      1.0  0.98072  0.66084  0.56968  1.0000
  S   S492      1.0  0.94363  0.66417  0.58107  1.0000
  Fe  Fe247     1.0  0.79932  0.63831  0.53298  1.0000
  S   S493      1.0  0.78484  0.65273  0.55997  1.0000
  S   S494      1.0  0.79135  0.62046  0.50192  1.0000
  Fe  Fe248     1.0  0.82942  0.64591  0.55726  1.0000
  S   S495      1.0  0.81674  0.66072  0.58569  1.0000
  S   S496      1.0  0.85431  0.63273  0.56165  1.0000
  Fe  Fe249     1.0  0.80019  0.62521  0.57916  1.0000
  S   S497      1.0  0.79137  0.59833  0.60602  1.0000
  Fe  Fe250     1.0  0.80264  0.68747  0.56443  1.0000
  S   S498      1.0  0.79381  0.73288  0.57154  1.0000
  S   S499      1.0  0.81356  0.60857  0.55219  1.0000
  S   S500      1.0  0.81634  0.67490  0.53591  1.0000
  C   C1779     1.0  0.92915  0.55439  0.62947  1.0000
  C   C1780     1.0  0.80370  0.81704  0.54015  1.0000
  C   C1781     1.0  0.76359  0.53107  0.57947  1.0000
  C   C1782     1.0  0.77194  0.76078  0.64665  1.0000
  H   H2133     1.0  0.94460  0.82518  0.59839  1.0000
  C   C1783     1.0  0.89990  0.67707  0.54377  1.0000
  C   C1784     1.0  0.88595  0.68875  0.53725  1.0000
  C   C1785     1.0  0.87185  0.67580  0.54282  1.0000
  C   C1786     1.0  0.87159  0.65084  0.55483  1.0000
  C   C1787     1.0  0.88553  0.63928  0.56144  1.0000
  C   C1788     1.0  0.89960  0.65238  0.55605  1.0000
  H   H2134     1.0  0.88606  0.70782  0.52773  1.0000
  H   H2135     1.0  0.86122  0.68486  0.53756  1.0000
  H   H2136     1.0  0.88548  0.61996  0.57067  1.0000
  H   H2137     1.0  0.91024  0.64313  0.56112  1.0000
  C   C1789     1.0  0.80721  0.79997  0.62042  1.0000
  C   C1790     1.0  0.79404  0.80336  0.60874  1.0000
  C   C1791     1.0  0.79004  0.78249  0.59409  1.0000
  C   C1792     1.0  0.79898  0.75769  0.59109  1.0000
  C   C1793     1.0  0.81190  0.75387  0.60319  1.0000
  C   C1794     1.0  0.81600  0.77492  0.61766  1.0000
  H   H2138     1.0  0.78684  0.82185  0.61113  1.0000
  H   H2139     1.0  0.77997  0.78564  0.58493  1.0000
  H   H2140     1.0  0.81893  0.73502  0.60111  1.0000
  H   H2141     1.0  0.82612  0.77184  0.62673  1.0000
  C   C1795     1.0  0.80212  0.50200  0.60898  1.0000
  C   C1796     1.0  0.80453  0.51749  0.59064  1.0000
  C   C1797     1.0  0.80158  0.54705  0.58974  1.0000
  C   C1798     1.0  0.79593  0.56140  0.60708  1.0000
  C   C1799     1.0  0.79353  0.54596  0.62547  1.0000
  C   C1800     1.0  0.79674  0.51637  0.62649  1.0000
  H   H2142     1.0  0.80856  0.50644  0.57699  1.0000
  H   H2143     1.0  0.80342  0.55857  0.57550  1.0000
  H   H2144     1.0  0.78912  0.55685  0.63897  1.0000
  H   H2145     1.0  0.75806  0.62235  0.38400  1.0000
  C   C1801     1.0  0.97043  0.51812  0.62278  1.0000
  C   C1802     1.0  0.96215  0.50961  0.60566  1.0000
  C   C1803     1.0  0.95831  0.52987  0.59042  1.0000
  C   C1804     1.0  0.96262  0.55887  0.59208  1.0000
  C   C1805     1.0  0.97102  0.56732  0.60913  1.0000
  C   C1806     1.0  0.97494  0.54703  0.62432  1.0000
  C   C1807     1.0  0.92326  0.57574  0.61675  1.0000
  H   H2146     1.0  0.95186  0.52306  0.57727  1.0000
  H   H2147     1.0  0.97441  0.58952  0.61065  1.0000
  H   H2148     1.0  0.98134  0.55393  0.63748  1.0000
  C   C1808     1.0  0.97343  0.81789  0.61180  1.0000
  C   C1809     1.0  0.96697  0.80322  0.62861  1.0000
  C   C1810     1.0  0.96483  0.77340  0.62785  1.0000
  C   C1811     1.0  0.96859  0.75803  0.60998  1.0000
  C   C1812     1.0  0.97460  0.77276  0.59286  1.0000
  C   C1813     1.0  0.97717  0.80256  0.59387  1.0000
  C   C1814     1.0  0.87339  0.51848  0.60974  1.0000
  S   S501      1.0  0.97483  0.49405  0.64316  1.0000
  H   H2149     1.0  0.97757  0.76110  0.57901  1.0000
  H   H2150     1.0  0.98207  0.81375  0.58070  1.0000
  S   S502      1.0  0.79696  0.95976  0.60608  1.0000
  C   C1815     1.0  0.77364  0.60870  0.49137  1.0000
  C   C1816     1.0  0.77389  0.59356  0.47267  1.0000
  C   C1817     1.0  0.98384  0.73473  0.45235  1.0000
  H   H2151     1.0  0.78477  0.58920  0.46511  1.0000
  H   H2152     1.0  0.99621  0.72964  0.42372  1.0000
  H   H2153     1.0  0.78086  0.64291  0.42754  1.0000
  H   H2154     1.0  0.83324  0.56369  0.60275  1.0000
  H   H2155     1.0  0.85811  0.97251  0.63329  1.0000
  H   H2156     1.0  0.78374  0.89246  0.56053  1.0000
  H   H2157     1.0  0.76100  0.55256  0.58459  1.0000
  H   H2158     1.0  0.76774  0.61093  0.40660  1.0000
  H   H2159     1.0  0.91383  0.86739  0.62150  1.0000
  H   H2160     1.0  0.78812  0.56079  0.54426  1.0000
  H   H2161     1.0  0.88977  0.58847  0.64225  1.0000
  H   H2162     1.0  0.95867  0.48746  0.60415  1.0000
  H   H2163     1.0  0.81779  0.92082  0.58404  1.0000
  H   H2164     1.0  0.96010  0.76215  0.64111  1.0000
  C   C1818     1.0  0.90911  0.58799  0.62136  1.0000
  H   H2165     1.0  0.79884  0.64605  0.63443  1.0000
  H   H2166     1.0  0.80940  0.67876  0.63295  1.0000
  H   H2167     1.0  0.82439  0.84096  0.58926  1.0000
  H   H2168     1.0  0.93871  0.85903  0.60778  1.0000
  C   C1819     1.0  0.76486  0.50985  0.59458  1.0000
  C   C1820     1.0  0.76606  0.52486  0.55831  1.0000
  C   C1821     1.0  0.78320  0.68427  0.61326  1.0000
  C   C1822     1.0  0.93454  0.83949  0.59979  1.0000
  H   H2169     1.0  0.82652  0.90107  0.56323  1.0000
  C   C1823     1.0  0.77217  0.65202  0.43751  1.0000
  H   H2170     1.0  0.77561  0.58781  0.53459  1.0000
  C   C1824     1.0  0.90071  0.57863  0.63858  1.0000
  H   H2171     1.0  0.82733  0.88820  0.58925  1.0000
  C   C1825     1.0  0.97928  0.69655  0.42843  1.0000
  N   N119      1.0  0.76456  0.54777  0.54263  1.0000
  H   H2172     1.0  0.90508  0.85543  0.59847  1.0000
  H   H2173     1.0  0.81563  0.77715  0.54432  1.0000
  N   N120      1.0  0.92147  0.82583  0.61102  1.0000
  H   H2174     1.0  0.89963  0.84019  0.62332  1.0000
  C   C1826     1.0  0.92644  0.81744  0.63186  1.0000
  C   C1827     1.0  0.79921  0.66841  0.64042  1.0000
  C   C1828     1.0  0.91640  0.79998  0.59985  1.0000
  C   C1829     1.0  0.92693  0.77760  0.59530  1.0000
  H   H2175     1.0  0.99024  0.75367  0.45660  1.0000
  C   C1830     1.0  0.92252  0.75307  0.58466  1.0000
  H   H2176     1.0  0.77219  0.64529  0.39461  1.0000
  H   H2177     1.0  0.88507  0.76856  0.57783  1.0000
  C   C1831     1.0  0.90107  0.79595  0.59339  1.0000
  C   C1832     1.0  0.80099  0.84462  0.54777  1.0000
  H   H2178     1.0  0.83498  0.54499  0.57846  1.0000
  C   C1833     1.0  0.77706  0.66175  0.45660  1.0000
  H   H2179     1.0  0.77046  0.67996  0.48569  1.0000
  H   H2180     1.0  0.94684  0.72334  0.49227  1.0000
  H   H2181     1.0  0.76220  0.77436  0.64350  1.0000
  C   C1834     1.0  0.77021  0.49622  0.55330  1.0000
  H   H2182     1.0  0.79463  0.89966  0.60239  1.0000
  H   H2183     1.0  0.93871  0.77876  0.60000  1.0000
  H   H2184     1.0  0.77258  0.48946  0.53772  1.0000
  H   H2185     1.0  0.93082  0.73631  0.58136  1.0000
  H   H2186     1.0  0.99413  0.79051  0.64415  1.0000
  H   H2187     1.0  0.93134  0.84582  0.58394  1.0000
  N   N121      1.0  0.85649  0.55486  0.59267  1.0000
  C   C1835     1.0  0.86272  0.57902  0.60472  1.0000
  C   C1836     1.0  0.86486  0.55343  0.57263  1.0000
  C   C1837     1.0  0.84024  0.56159  0.58835  1.0000
  C   C1838     1.0  0.85852  0.52762  0.60411  1.0000
  C   C1839     1.0  0.84607  0.50939  0.60988  1.0000
  H   H2188     1.0  0.83910  0.58231  0.57991  1.0000
  H   H2189     1.0  0.86064  0.60005  0.59707  1.0000
  H   H2190     1.0  0.85724  0.57990  0.62029  1.0000
  H   H2191     1.0  0.87742  0.55124  0.57440  1.0000
  H   H2192     1.0  0.86314  0.57322  0.56326  1.0000
  H   H2193     1.0  0.78896  0.65948  0.46085  1.0000
  H   H2194     1.0  0.93113  0.83605  0.64037  1.0000
  H   H2195     1.0  0.93909  0.49914  0.63601  1.0000
  H   H2196     1.0  0.80456  0.86662  0.60592  1.0000
  H   H2197     1.0  0.79479  0.50462  0.64068  1.0000
  H   H2198     1.0  0.83436  0.51429  0.60628  1.0000
  H   H2199     1.0  0.76227  0.72469  0.63189  1.0000
  H   H2200     1.0  0.78652  0.86692  0.59327  1.0000
  H   H2201     1.0  0.78343  0.66212  0.60694  1.0000
  C   C1840     1.0  0.76662  0.67329  0.47070  1.0000
  H   H2202     1.0  0.86085  0.53495  0.56339  1.0000
  H   H2203     1.0  0.91672  0.80864  0.64126  1.0000
  C   C1841     1.0  0.76282  0.63001  0.39879  1.0000
  H   H2204     1.0  0.79372  0.92319  0.56922  1.0000
  H   H2205     1.0  0.80059  0.90543  0.54652  1.0000
  H   H2206     1.0  0.96147  0.70092  0.50334  1.0000
  H   H2207     1.0  0.90416  0.73091  0.56996  1.0000
  C   C1842     1.0  0.90749  0.74996  0.57830  1.0000
  C   C1843     1.0  0.89678  0.77127  0.58272  1.0000
  C   C1844     1.0  0.77642  0.56998  0.54593  1.0000
  C   C1845     1.0  0.90940  0.84802  0.61355  1.0000
  H   H2208     1.0  0.00188  0.86994  0.43584  1.0000
  C   C1846     1.0  0.93076  0.49595  0.64894  1.0000
  H   H2209     1.0  0.93551  0.80088  0.63146  1.0000
  H   H2210     1.0  0.87529  0.57755  0.60650  1.0000
  H   H2211     1.0  0.92988  0.58307  0.60339  1.0000
  H   H2212     1.0  0.82919  0.79361  0.57505  1.0000
  H   H2213     1.0  0.77198  0.64532  0.64060  1.0000
  N   N122      1.0  0.95257  0.68540  0.47479  1.0000
  C   C1847     1.0  0.95662  0.65528  0.47971  1.0000
  C   C1848     1.0  0.95065  0.70085  0.49459  1.0000
  C   C1849     1.0  0.93755  0.68569  0.46453  1.0000
  C   C1850     1.0  0.96443  0.69812  0.46092  1.0000
  C   C1851     1.0  0.97270  0.72340  0.46585  1.0000
  C   C1852     1.0  0.96796  0.68524  0.44166  1.0000
  H   H2214     1.0  0.76068  0.67710  0.64103  1.0000
  H   H2215     1.0  0.96378  0.81474  0.64230  1.0000
  C   C1853     1.0  0.77214  0.73232  0.64001  1.0000
  H   H2216     1.0  0.96810  0.65409  0.48686  1.0000
  H   H2217     1.0  0.94821  0.64534  0.49068  1.0000
  H   H2218     1.0  0.95698  0.64131  0.46596  1.0000
  C   C1854     1.0  0.81393  0.79883  0.54987  1.0000
  H   H2219     1.0  0.94181  0.69056  0.50479  1.0000
  C   C1855     1.0  0.98724  0.72119  0.43381  1.0000
  H   H2220     1.0  0.93755  0.67227  0.45048  1.0000
  H   H2221     1.0  0.92823  0.67727  0.47489  1.0000
  H   H2222     1.0  0.93436  0.70789  0.45997  1.0000
  H   H2223     1.0  0.97111  0.73446  0.48026  1.0000
  H   H2224     1.0  0.96212  0.66608  0.43681  1.0000
  H   H2225     1.0  0.75895  0.62631  0.51501  1.0000
  H   H2226     1.0  0.94026  0.54588  0.62536  1.0000
  C   C1856     1.0  0.00406  0.78939  0.65452  1.0000
  N   N123      1.0  0.80532  0.88307  0.57479  1.0000
  C   C1857     1.0  0.79745  0.87887  0.59495  1.0000
  C   C1858     1.0  0.81987  0.89885  0.57791  1.0000
  C   C1859     1.0  0.79542  0.90168  0.56207  1.0000
  C   C1860     1.0  0.80848  0.85466  0.56559  1.0000
  C   C1861     1.0  0.81880  0.83547  0.57511  1.0000
  N   N124      1.0  0.78494  0.68434  0.63587  1.0000
  C   C1862     1.0  0.82157  0.80814  0.56719  1.0000
  C   C1863     1.0  0.79747  0.72650  0.65397  1.0000
  H   H2227     1.0  0.88343  0.53106  0.60573  1.0000
  H   H2228     1.0  0.77552  0.57979  0.56146  1.0000
  C   C1864     1.0  0.76640  0.53739  0.52115  1.0000
  H   H2229     1.0  0.76325  0.51522  0.61067  1.0000
  H   H2230     1.0  0.79278  0.85741  0.53964  1.0000
  S   S503      1.0  0.78676  0.89937  0.64850  1.0000
  H   H2231     1.0  0.90477  0.60498  0.61163  1.0000
  H   H2232     1.0  0.92000  0.48728  0.64251  1.0000
  C   C1865     1.0  0.92106  0.54454  0.64726  1.0000
  C   C1866     1.0  0.77196  0.66825  0.64543  1.0000
  H   H2233     1.0  0.99728  0.74114  0.51532  1.0000
  H   H2234     1.0  0.79764  0.80945  0.52684  1.0000
  H   H2235     1.0  0.76481  0.55493  0.50973  1.0000
  H   H2236     1.0  0.76068  0.57220  0.44933  1.0000
  C   C1867     1.0  0.87561  0.49274  0.62043  1.0000
  C   C1868     1.0  0.76021  0.58398  0.46359  1.0000
  H   H2237     1.0  0.79261  0.69665  0.60565  1.0000
  H   H2238     1.0  0.77810  0.52883  0.51807  1.0000
  C   C1869     1.0  0.75944  0.61427  0.50085  1.0000
  H   H2239     1.0  0.77230  0.69408  0.60827  1.0000
  C   C1870     1.0  0.84842  0.48369  0.62050  1.0000
  H   H2240     1.0  0.75776  0.52063  0.51757  1.0000
  Fe  Fe251     1.0  0.80831  0.87265  0.64818  1.0000
  H   H2241     1.0  0.75715  0.51237  0.34390  1.0000
  C   C1871     1.0  0.00303  0.70509  0.49623  1.0000
  C   C1872     1.0  0.78494  0.71427  0.64340  1.0000
  C   C1873     1.0  0.00367  0.73398  0.50190  1.0000
  H   H2242     1.0  0.88706  0.48601  0.62441  1.0000
  S   S504      1.0  0.95119  0.92570  0.68469  1.0000
  H   H2243     1.0  0.75688  0.67221  0.94458  1.0000
  H   H2244     1.0  0.98905  0.50144  0.92891  1.0000
  C   C1874     1.0  0.76115  0.97950  0.82575  1.0000
  Fe  Fe252     1.0  0.97073  0.89369  0.68530  1.0000
  S   S505      1.0  0.98064  0.87392  0.71498  1.0000
  C   C1875     1.0  0.82436  0.98357  0.71306  1.0000
  Fe  Fe253     1.0  0.79412  0.91646  0.67945  1.0000
  H   H2245     1.0  0.97964  0.88730  0.81208  1.0000
  S   S506      1.0  0.77863  0.91835  0.70869  1.0000
  C   C1876     1.0  0.76718  0.71044  0.97483  1.0000
  H   H2246     1.0  0.92382  0.49841  0.68875  1.0000
  N   N125      1.0  0.75680  0.95203  0.81593  1.0000
  S   S507      1.0  0.81468  0.88690  0.68010  1.0000
  H   H2247     1.0  0.85319  0.95288  0.71487  1.0000
  H   H2248     1.0  0.77268  0.97815  0.83263  1.0000
  H   H2249     1.0  0.83132  0.92825  0.70900  1.0000
  H   H2250     1.0  0.97741  0.80427  0.67283  1.0000
  S   S508      1.0  0.91455  0.87632  0.66518  1.0000
  H   H2251     1.0  0.87713  0.95429  0.73324  1.0000
  C   C1877     1.0  0.98012  0.49313  0.93914  1.0000
  C   C1878     1.0  0.98732  0.80088  0.68302  1.0000
  H   H2252     1.0  0.91587  0.53361  0.68891  1.0000
  H   H2253     1.0  0.98681  0.83955  0.75075  1.0000
  H   H2254     1.0  0.00436  0.91996  0.74692  1.0000
  H   H2255     1.0  0.76404  0.92927  0.78841  1.0000
  H   H2256     1.0  0.90693  0.93669  0.67260  1.0000
  H   H2257     1.0  0.97633  0.92244  0.75160  1.0000
  H   H2258     1.0  0.75582  0.91330  0.74104  1.0000
  S   S509      1.0  0.98241  0.91305  0.65716  1.0000
  N   N126      1.0  0.92792  0.52256  0.66076  1.0000
  C   C1879     1.0  0.86899  0.89440  0.66528  1.0000
  H   H2259     1.0  0.99274  0.85116  0.82545  1.0000
  S   S510      1.0  0.95723  0.86185  0.66715  1.0000
  H   H2260     1.0  0.77290  0.87309  0.96397  1.0000
  C   C1880     1.0  0.88323  0.88034  0.66385  1.0000
  C   C1881     1.0  0.76964  0.97438  0.71907  1.0000
  Fe  Fe254     1.0  0.93874  0.89502  0.66428  1.0000
  H   H2261     1.0  0.98920  0.49200  0.68406  1.0000
  H   H2262     1.0  0.82258  0.91591  0.73260  1.0000
  C   C1882     1.0  0.91817  0.51478  0.67891  1.0000
  H   H2263     1.0  0.75998  0.95064  0.85909  1.0000
  S   S511      1.0  0.80770  0.95325  0.66588  1.0000
  C   C1883     1.0  0.00156  0.89096  0.79554  1.0000
  C   C1884     1.0  0.76765  0.94719  0.79843  1.0000
  C   C1885     1.0  0.00159  0.50541  0.98289  1.0000
  C   C1886     1.0  0.94274  0.53319  0.66855  1.0000
  H   H2264     1.0  0.76842  0.96629  0.78806  1.0000
  C   C1887     1.0  0.99830  0.86249  0.72606  1.0000
  Fe  Fe255     1.0  0.82769  0.92277  0.66455  1.0000
  C   C1888     1.0  0.00430  0.84958  0.81818  1.0000
  H   H2265     1.0  0.96416  0.90653  0.78437  1.0000
  H   H2266     1.0  0.94824  0.51718  0.67881  1.0000
  H   H2267     1.0  0.76448  0.71186  0.92116  1.0000
  C   C1889     1.0  0.79710  0.75498  0.66060  1.0000
  C   C1890     1.0  0.97649  0.90521  0.78238  1.0000
  C   C1891     1.0  0.82222  0.93303  0.72065  1.0000
  C   C1892     1.0  0.76780  0.94490  0.72255  1.0000
  C   C1893     1.0  0.88215  0.93884  0.67221  1.0000
  C   C1894     1.0  0.99780  0.84568  0.74416  1.0000
  H   H2268     1.0  0.94122  0.55351  0.67723  1.0000
  N   N127      1.0  0.82397  0.96187  0.72981  1.0000
  C   C1895     1.0  0.76555  0.85931  0.97325  1.0000
  H   H2269     1.0  0.94688  0.51382  0.96197  1.0000
  H   H2270     1.0  0.80693  0.76430  0.66805  1.0000
  H   H2271     1.0  0.88180  0.96150  0.67560  1.0000
  H   H2272     1.0  0.77251  0.66876  0.66251  1.0000
  C   C1896     1.0  0.86647  0.95864  0.74149  1.0000
  C   C1897     1.0  0.99914  0.91305  0.76138  1.0000
  C   C1898     1.0  0.83843  0.96315  0.74129  1.0000
  C   C1899     1.0  0.98545  0.89391  0.79804  1.0000
  H   H2273     1.0  0.85306  0.97540  0.78917  1.0000
  C   C1900     1.0  0.96756  0.51008  0.94444  1.0000
  H   H2274     1.0  0.75594  0.77194  0.95062  1.0000
  H   H2275     1.0  0.96669  0.53149  0.93801  1.0000
  H   H2276     1.0  0.88356  0.85756  0.66087  1.0000
  H   H2277     1.0  0.99956  0.85355  0.67837  1.0000
  S   S512      1.0  0.85070  0.94198  0.67272  1.0000
  C   C1901     1.0  0.86838  0.92369  0.66966  1.0000
  H   H2278     1.0  0.87736  0.96551  0.77040  1.0000
  H   H2279     1.0  0.98693  0.77792  0.68769  1.0000
  C   C1902     1.0  0.77190  0.76971  0.97474  1.0000
  H   H2280     1.0  0.79943  0.96561  0.73357  1.0000
  C   C1903     1.0  0.89642  0.92484  0.67050  1.0000
  C   C1904     1.0  0.75903  0.72748  0.96052  1.0000
  C   C1905     1.0  0.89701  0.89543  0.66650  1.0000
  C   C1906     1.0  0.85264  0.95782  0.73107  1.0000
  C   C1907     1.0  0.95636  0.49981  0.95828  1.0000
  Fe  Fe256     1.0  0.96199  0.94303  0.65501  1.0000
  H   H2281     1.0  0.82879  0.97417  0.77169  1.0000
  C   C1908     1.0  0.81006  0.96732  0.74271  1.0000
  H   H2282     1.0  0.81112  0.93089  0.71266  1.0000
  C   C1909     1.0  0.75747  0.93599  0.73825  1.0000
  H   H2283     1.0  0.00377  0.78643  0.71307  1.0000
  H   H2284     1.0  0.77933  0.94235  0.80399  1.0000
  H   H2285     1.0  0.00304  0.52187  0.66286  1.0000
  C   C1910     1.0  0.98331  0.91449  0.76400  1.0000
  H   H2286     1.0  0.95123  0.53743  0.65598  1.0000
  H   H2287     1.0  0.98522  0.81454  0.69682  1.0000
  H   H2288     1.0  0.99863  0.90074  0.83625  1.0000
  C   C1911     1.0  0.75813  0.90621  0.86487  1.0000
  H   H2289     1.0  0.80880  0.95121  0.75530  1.0000
  H   H2290     1.0  0.78443  0.79438  0.66156  1.0000
  H   H2291     1.0  0.85849  0.88245  0.66338  1.0000
  C   C1912     1.0  0.76180  0.75749  0.96085  1.0000
  H   H2292     1.0  0.75915  0.90894  0.88133  1.0000
  C   C1913     1.0  0.86660  0.96493  0.76238  1.0000
  H   H2293     1.0  0.83335  0.97892  0.70119  1.0000
  H   H2294     1.0  0.00353  0.83515  0.80466  1.0000
  H   H2295     1.0  0.99757  0.52732  0.98323  1.0000
  H   H2296     1.0  0.80104  0.66668  0.65726  1.0000
  N   N128      1.0  0.00207  0.80844  0.67256  1.0000
  H   H2297     1.0  0.90715  0.50496  0.67424  1.0000
  H   H2298     1.0  0.77359  0.79278  0.97492  1.0000
  H   H2299     1.0  0.76586  0.68748  0.97578  1.0000
  C   C1914     1.0  0.75860  0.93011  0.85179  1.0000
  H   H2300     1.0  0.77741  0.98178  0.70704  1.0000
  C   C1915     1.0  0.00073  0.83850  0.66521  1.0000
  C   C1916     1.0  0.85288  0.97048  0.77291  1.0000
  C   C1917     1.0  0.83896  0.96966  0.76261  1.0000
  H   H2301     1.0  0.89944  0.55096  0.66445  1.0000
  C   C1918     1.0  0.75680  0.92719  0.83021  1.0000
  H   H2302     1.0  0.99052  0.84150  0.65541  1.0000
  C   C1919     1.0  0.75572  0.87893  0.85698  1.0000
  H   H2303     1.0  0.00534  0.76661  0.65937  1.0000
  C   C1920     1.0  0.78440  0.77207  0.65692  1.0000
  H   H2304     1.0  0.80782  0.71478  0.65700  1.0000
