data_image0
_chemical_formula_structural       FeS2FeSCFe2S3C3H3C2HCHNH6SHCH3SHFeSFeS2Fe2S2C5H4SC3HSHC2HC8H3CHCHCHCH10C2HNC9H10NC3H2CSH4C2NH2CHCHC3H4CHCH2SH2C6H2CHCHCH4FeHNSHSCHCHFeS3FeSCH2C2H2SFeNSFeSH2FeS2HC7H3SC2H3SCFeHSH3C2H2FeHCH3FeS3FeSHSC2HC5HCHCH6CHCNC3HFeCH3C5H8C5HCSCNH4CH2FeS2CHCH4CHCHCH2CHCH2CH3CHC2NCHCHC3NH4C5H7CH5NH2C7HC2HCH3C2H2SCNC2H2CH3FeS2FeSFe2S3HSHC7H5CH2CH2NCHCH2CHC2SC3HC4H7C5HC2H2C2H5C2H2CSFeS2HFeSHS2C4H3C6H5CSHCHCH2CHFeH4NC3HC3HCH3CHCHCH5FeS2HSFeSFeS3HSC4HC7H4C3H3CH2FeCHCH2CH4C2H2CH4FeCHC2HCH2NHCH2CH2CH2C2NC2H3C3NCHC3HCNC2H3CH2CH3CHCH3CHCHCHCHC2HCHC2HCHSC2H2C2HCH2SH2CHC2HCSFeS2FeS2FeSFeS3HFeS2HFeSHSHFeC2NCHCH3C6H4C6H4CHCH2CH3SCHNCH8C2HCHFeHCH2CSH2CHC2HFeCNHCH3CH2C2HCH2C2HCHCHC2HC2HCHCFeS2CHFeSCSHFeS2FeS2FeSFeS3C8H4CHC7H4C4H2CHNC5HCH9CH4CH3CHCH3CFeH2CHCNSCH2C3H2CHSH9C2NH3CH4S2H2C2
_chemical_formula_sum              "Fe48 S96 C360 H432 N24"
_cell_length_a       33.1613
_cell_length_b       33.5075
_cell_length_c       43.2335
_cell_angle_alpha    89.6949
_cell_angle_beta     89.8679
_cell_angle_gamma    120.333

_space_group_name_H-M_alt    "P 1"
_space_group_IT_number       1

loop_
  _space_group_symop_operation_xyz
  'x, y, z'

loop_
  _atom_site_type_symbol
  _atom_site_label
  _atom_site_symmetry_multiplicity
  _atom_site_fract_x
  _atom_site_fract_y
  _atom_site_fract_z
  _atom_site_occupancy
  Fe  Fe1       1.0  0.17354  0.37416  0.17046  1.0000
  S   S1        1.0  0.11444  0.31698  0.14465  1.0000
  S   S2        1.0  0.21069  0.34766  0.20004  1.0000
  Fe  Fe2       1.0  0.16292  0.44951  0.13731  1.0000
  S   S3        1.0  0.10362  0.39683  0.10859  1.0000
  C   C1        1.0  0.12426  0.31160  0.33170  1.0000
  Fe  Fe3       1.0  0.07759  0.35644  0.15354  1.0000
  Fe  Fe4       1.0  0.14716  0.36276  0.10308  1.0000
  S   S4        1.0  0.15845  0.33155  0.05955  1.0000
  S   S5        1.0  0.13492  0.41117  0.18258  1.0000
  S   S6        1.0  0.20801  0.41793  0.12872  1.0000
  C   C2        1.0  0.20281  0.24980  0.10270  1.0000
  C   C3        1.0  0.21406  0.33850  0.05105  1.0000
  C   C4        1.0  0.25414  0.37116  0.06650  1.0000
  H   H1        1.0  0.16427  0.40498  0.32986  1.0000
  H   H2        1.0  0.25194  0.39402  0.08295  1.0000
  H   H3        1.0  0.16020  0.34367  0.25764  1.0000
  C   C5        1.0  0.25065  0.31506  0.13519  1.0000
  C   C6        1.0  0.25041  0.42973  0.23119  1.0000
  H   H4        1.0  0.23391  0.44108  0.21455  1.0000
  C   C7        1.0  0.06214  0.37839  0.25660  1.0000
  H   H5        1.0  0.17534  0.25956  0.10055  1.0000
  N   N1        1.0  0.22730  0.26409  0.13283  1.0000
  H   H6        1.0  0.22541  0.32757  0.13244  1.0000
  H   H7        1.0  0.16503  0.25570  0.15508  1.0000
  H   H8        1.0  0.22675  0.26666  0.08278  1.0000
  H   H9        1.0  0.27810  0.33294  0.11731  1.0000
  H   H10       1.0  0.18586  0.21177  0.09951  1.0000
  H   H11       1.0  0.12052  0.28710  0.27209  1.0000
  S   S7        1.0  0.46130  0.25770  0.16973  1.0000
  H   H12       1.0  0.06656  0.39985  0.23652  1.0000
  C   C8        1.0  0.26157  0.31291  0.02339  1.0000
  H   H13       1.0  0.44595  0.30275  0.11834  1.0000
  H   H14       1.0  0.32803  0.39955  0.07313  1.0000
  H   H15       1.0  0.44983  0.29387  0.06169  1.0000
  S   S8        1.0  0.47469  0.23683  0.02600  1.0000
  H   H16       1.0  0.30891  0.38870  0.29117  1.0000
  Fe  Fe5       1.0  0.37980  0.08507  0.19150  1.0000
  S   S9        1.0  0.45744  0.13589  0.19189  1.0000
  Fe  Fe6       1.0  0.36113  0.13929  0.24176  1.0000
  S   S10       1.0  0.43700  0.19177  0.24647  1.0000
  S   S11       1.0  0.30602  0.15214  0.26335  1.0000
  Fe  Fe7       1.0  0.43725  0.19047  0.19472  1.0000
  Fe  Fe8       1.0  0.45002  0.13197  0.24365  1.0000
  S   S12       1.0  0.36087  0.14051  0.18974  1.0000
  S   S13       1.0  0.37297  0.07845  0.24340  1.0000
  C   C9        1.0  0.47265  0.24425  0.06587  1.0000
  C   C10       1.0  0.48373  0.21870  0.08634  1.0000
  C   C11       1.0  0.47931  0.22199  0.11832  1.0000
  C   C12       1.0  0.46596  0.25249  0.12986  1.0000
  C   C13       1.0  0.45832  0.27403  0.07743  1.0000
  H   H17       1.0  0.49550  0.19615  0.07747  1.0000
  H   H18       1.0  0.48756  0.20195  0.13406  1.0000
  H   H19       1.0  0.30028  0.28574  0.09258  1.0000
  H   H20       1.0  0.26380  0.33772  0.24785  1.0000
  S   S14       1.0  0.49697  0.12203  0.27761  1.0000
  C   C14       1.0  0.32182  0.19527  0.29187  1.0000
  C   C15       1.0  0.36333  0.21217  0.30852  1.0000
  C   C16       1.0  0.30456  0.24823  0.32002  1.0000
  H   H21       1.0  0.38599  0.19821  0.30444  1.0000
  S   S15       1.0  0.32242  0.47646  0.31067  1.0000
  H   H22       1.0  0.17995  0.31835  0.28577  1.0000
  C   C17       1.0  0.09462  0.34587  0.29333  1.0000
  C   C18       1.0  0.29797  0.20897  0.16059  1.0000
  H   H23       1.0  0.35382  0.36683  0.23497  1.0000
  C   C19       1.0  0.29742  0.37440  0.06072  1.0000
  C   C20       1.0  0.24585  0.38608  0.22853  1.0000
  C   C21       1.0  0.27572  0.45845  0.25587  1.0000
  C   C22       1.0  0.29577  0.44313  0.27796  1.0000
  C   C23       1.0  0.29234  0.40006  0.27466  1.0000
  C   C24       1.0  0.26736  0.37153  0.24995  1.0000
  C   C25       1.0  0.19108  0.24414  0.15757  1.0000
  C   C26       1.0  0.26280  0.24968  0.13487  1.0000
  H   H24       1.0  0.34340  0.16128  0.05168  1.0000
  H   H25       1.0  0.35878  0.21392  0.13871  1.0000
  H   H26       1.0  0.29793  0.18740  0.17947  1.0000
  C   C27       1.0  0.45595  0.27888  0.10945  1.0000
  H   H27       1.0  0.37165  0.05627  0.08282  1.0000
  C   C28       1.0  0.29824  0.26401  0.11184  1.0000
  H   H28       1.0  0.28172  0.26192  0.32436  1.0000
  C   C29       1.0  0.26386  0.22186  0.15950  1.0000
  H   H29       1.0  0.35872  0.26240  0.09520  1.0000
  C   C30       1.0  0.33214  0.25095  0.11318  1.0000
  H   H30       1.0  0.23867  0.20946  0.17818  1.0000
  H   H31       1.0  0.41530  0.31650  0.16766  1.0000
  H   H32       1.0  0.39839  0.35668  0.12699  1.0000
  H   H33       1.0  0.17139  0.20569  0.15697  1.0000
  H   H34       1.0  0.26742  0.32696  0.15814  1.0000
  H   H35       1.0  0.36039  0.40197  0.13956  1.0000
  H   H36       1.0  0.38194  0.17027  0.08289  1.0000
  H   H37       1.0  0.26016  0.20032  0.28508  1.0000
  H   H38       1.0  0.20657  0.25589  0.18093  1.0000
  H   H39       1.0  0.33759  0.40554  0.19362  1.0000
  C   C31       1.0  0.33212  0.22360  0.13757  1.0000
  C   C32       1.0  0.29243  0.21335  0.29778  1.0000
  H   H40       1.0  0.13291  0.39468  0.25582  1.0000
  N   N2        1.0  0.39933  0.31487  0.23016  1.0000
  C   C33       1.0  0.38632  0.32157  0.26181  1.0000
  C   C34       1.0  0.37512  0.26439  0.22447  1.0000
  C   C35       1.0  0.45052  0.33330  0.22991  1.0000
  C   C36       1.0  0.38709  0.33794  0.20564  1.0000
  C   C37       1.0  0.39850  0.33574  0.17425  1.0000
  C   C38       1.0  0.36440  0.36350  0.21194  1.0000
  C   C39       1.0  0.38896  0.35862  0.15078  1.0000
  C   C40       1.0  0.35490  0.38618  0.18826  1.0000
  C   C41       1.0  0.36752  0.38407  0.15780  1.0000
  H   H41       1.0  0.34785  0.30621  0.26435  1.0000
  H   H42       1.0  0.39668  0.30433  0.27956  1.0000
  H   H43       1.0  0.40404  0.35878  0.26810  1.0000
  H   H44       1.0  0.38420  0.24606  0.24222  1.0000
  H   H45       1.0  0.38480  0.25591  0.20188  1.0000
  H   H46       1.0  0.33648  0.24874  0.22507  1.0000
  H   H47       1.0  0.47017  0.37137  0.23343  1.0000
  H   H48       1.0  0.46103  0.31693  0.24827  1.0000
  H   H49       1.0  0.46297  0.32642  0.20780  1.0000
  H   H50       1.0  0.15551  0.31017  0.33958  1.0000
  N   N3        1.0  0.35382  0.10367  0.06119  1.0000
  C   C42       1.0  0.09982  0.37499  0.26779  1.0000
  C   C43       1.0  0.36753  0.08634  0.08861  1.0000
  C   C44       1.0  0.30932  0.06854  0.04707  1.0000
  H   H51       1.0  0.39279  0.09063  0.02677  1.0000
  H   H52       1.0  0.10399  0.50861  0.14212  1.0000
  C   C45       1.0  0.34588  0.26471  0.33688  1.0000
  S   S16       1.0  0.35598  0.34807  0.03590  1.0000
  H   H53       1.0  0.17552  0.50540  0.06042  1.0000
  H   H54       1.0  0.18743  0.28477  0.01671  1.0000
  H   H55       1.0  0.18842  0.41165  0.29158  1.0000
  H   H56       1.0  0.38932  0.14154  0.01935  1.0000
  C   C46       1.0  0.14951  0.32183  0.27886  1.0000
  C   C47       1.0  0.37501  0.24635  0.33111  1.0000
  N   N4        1.0  0.13480  0.34173  0.30398  1.0000
  H   H57       1.0  0.32004  0.13244  0.08804  1.0000
  H   H58       1.0  0.09669  0.27537  0.32697  1.0000
  C   C48       1.0  0.21815  0.30996  0.02900  1.0000
  H   H59       1.0  0.27855  0.49190  0.25832  1.0000
  C   C49       1.0  0.30126  0.34486  0.03959  1.0000
  H   H60       1.0  0.40150  0.11330  0.09844  1.0000
  C   C50       1.0  0.34952  0.14357  0.07137  1.0000
  C   C51       1.0  0.29307  0.07918  0.01962  1.0000
  C   C52       1.0  0.17459  0.38804  0.31192  1.0000
  H   H61       1.0  0.34158  0.07604  0.10779  1.0000
  H   H62       1.0  0.20479  0.38594  0.32124  1.0000
  H   H63       1.0  0.40691  0.25868  0.34413  1.0000
  H   H64       1.0  0.11282  0.46384  0.02562  1.0000
  C   C53       1.0  0.39212  0.12000  0.03798  1.0000
  H   H65       1.0  0.42699  0.14225  0.04848  1.0000
  C   C54       1.0  0.04927  0.32025  0.30686  1.0000
  H   H66       1.0  0.10121  0.50547  0.06709  1.0000
  H   H67       1.0  0.09279  0.22965  0.40552  1.0000
  S   S17       1.0  0.17199  0.33623  0.40521  1.0000
  H   H68       1.0  0.49546  0.45762  0.48285  1.0000
  H   H69       1.0  0.47846  0.38274  0.48351  1.0000
  C   C55       1.0  0.14699  0.33594  0.44148  1.0000
  C   C56       1.0  0.16468  0.32923  0.46910  1.0000
  C   C57       1.0  0.14050  0.32339  0.49714  1.0000
  C   C58       1.0  0.09877  0.32462  0.49783  1.0000
  C   C59       1.0  0.08199  0.33297  0.47035  1.0000
  C   C60       1.0  0.10597  0.33846  0.44228  1.0000
  H   H70       1.0  0.19611  0.32702  0.46876  1.0000
  H   H71       1.0  0.15378  0.31717  0.51834  1.0000
  C   C61       1.0  0.50837  0.44508  0.43529  1.0000
  H   H72       1.0  0.09249  0.34426  0.42104  1.0000
  C   C62       1.0  0.46805  0.37197  0.40560  1.0000
  H   H73       1.0  0.45793  0.38708  0.38617  1.0000
  C   C63       1.0  0.51679  0.47201  0.46232  1.0000
  H   H74       1.0  0.51559  0.37435  0.45728  1.0000
  H   H75       1.0  0.05043  0.33493  0.47085  1.0000
  H   H76       1.0  0.42286  0.40417  0.46437  1.0000
  H   H77       1.0  0.50137  0.37329  0.39971  1.0000
  Fe  Fe9       1.0  0.32898  0.35139  0.37432  1.0000
  H   H78       1.0  0.45402  0.33268  0.45987  1.0000
  N   N5        1.0  0.47136  0.39564  0.43526  1.0000
  S   S18       1.0  0.36325  0.30857  0.36499  1.0000
  H   H79       1.0  0.39607  0.35513  0.43939  1.0000
  S   S19       1.0  0.06785  0.31421  0.53317  1.0000
  C   C64       1.0  0.42537  0.39155  0.44111  1.0000
  H   H80       1.0  0.41874  0.41241  0.42402  1.0000
  C   C65       1.0  0.53658  0.46801  0.40890  1.0000
  H   H81       1.0  0.44050  0.33467  0.40655  1.0000
  Fe  Fe10      1.0  0.35213  0.43377  0.41545  1.0000
  S   S20       1.0  0.30533  0.35686  0.42232  1.0000
  S   S21       1.0  0.39990  0.47910  0.45366  1.0000
  S   S22       1.0  0.37893  0.42783  0.36913  1.0000
  Fe  Fe11      1.0  0.24999  0.36598  0.39853  1.0000
  S   S23       1.0  0.29488  0.44319  0.39582  1.0000
  C   C66       1.0  0.48034  0.37035  0.46005  1.0000
  H   H82       1.0  0.45062  0.51418  0.39576  1.0000
  H   H83       1.0  0.11322  0.32479  0.35169  1.0000
  C   C67       1.0  0.05053  0.19406  0.36606  1.0000
  C   C68       1.0  0.06058  0.21963  0.39315  1.0000
  H   H84       1.0  0.53210  0.45089  0.38705  1.0000
  H   H85       1.0  0.07471  0.18385  0.35747  1.0000
  S   S24       1.0  0.26972  0.35372  0.35104  1.0000
  Fe  Fe12      1.0  0.31778  0.43054  0.35010  1.0000
  N   N6        1.0  0.43448  0.46415  0.95736  1.0000
  S   S25       1.0  0.45472  0.34017  0.99921  1.0000
  Fe  Fe13      1.0  0.44504  0.33243  0.94786  1.0000
  S   S26       1.0  0.36763  0.30617  0.95018  1.0000
  H   H86       1.0  0.46958  0.42585  0.96569  1.0000
  H   H87       1.0  0.27320  0.04038  0.86285  1.0000
  Fe  Fe14      1.0  0.35922  0.23500  0.95404  1.0000
  S   S27       1.0  0.30294  0.17081  0.92993  1.0000
  S   S28       1.0  0.43556  0.26107  0.94723  1.0000
  H   H88       1.0  0.41559  0.40410  0.98597  1.0000
  C   C69       1.0  0.44705  0.43653  0.97794  1.0000
  C   C70       1.0  0.34089  0.07024  0.88411  1.0000
  C   C71       1.0  0.37235  0.10472  0.90416  1.0000
  C   C72       1.0  0.36116  0.13576  0.91809  1.0000
  C   C73       1.0  0.31825  0.13267  0.91216  1.0000
  C   C74       1.0  0.28646  0.09784  0.89234  1.0000
  C   C75       1.0  0.29779  0.06686  0.87819  1.0000
  H   H89       1.0  0.40568  0.10751  0.90897  1.0000
  H   H90       1.0  0.38576  0.16196  0.93350  1.0000
  H   H91       1.0  0.25314  0.09515  0.88766  1.0000
  S   S29       1.0  0.35610  0.03040  0.86924  1.0000
  C   C76       1.0  0.47554  0.50698  0.94538  1.0000
  C   C77       1.0  0.40744  0.43411  0.93116  1.0000
  H   H92       1.0  0.39183  0.44980  0.91631  1.0000
  H   H93       1.0  0.43009  0.42664  0.91607  1.0000
  H   H94       1.0  0.26409  0.29002  0.00693  1.0000
  S   S30       1.0  0.36148  0.23655  0.00607  1.0000
  C   C78       1.0  0.40381  0.47591  0.97537  1.0000
  Fe  Fe15      1.0  0.37663  0.30978  0.00177  1.0000
  H   H95       1.0  0.37797  0.40023  0.93930  1.0000
  S   S31       1.0  0.48816  0.38854  0.91236  1.0000
  H   H96       1.0  0.37346  0.44438  0.98570  1.0000
  H   H97       1.0  0.46528  0.45575  0.99916  1.0000
  H   H98       1.0  0.42334  0.49958  0.99473  1.0000
  C   C79       1.0  0.52225  0.52097  0.95388  1.0000
  C   C80       1.0  0.12606  0.49531  0.01069  1.0000
  H   H99       1.0  0.31264  0.11286  0.00861  1.0000
  H   H100      1.0  0.15028  0.49372  0.99353  1.0000
  Fe  Fe16      1.0  0.43840  0.26668  0.99891  1.0000
  H   H101      1.0  0.38920  0.49303  0.96090  1.0000
  C   C81       1.0  0.25105  0.04684  0.00589  1.0000
  H   H102      1.0  0.53070  0.50106  0.96952  1.0000
  H   H103      1.0  0.09513  0.49220  0.99841  1.0000
  H   H104      1.0  0.23940  0.05617  0.98503  1.0000
  Fe  Fe17      1.0  0.12858  0.71232  0.08376  1.0000
  S   S32       1.0  0.08308  0.74437  0.08061  1.0000
  S   S33       1.0  0.10547  0.65304  0.11823  1.0000
  S   S34       1.0  0.19867  0.52720  0.12815  1.0000
  Fe  Fe18      1.0  0.15093  0.81259  0.07836  1.0000
  S   S35       1.0  0.16048  0.87455  0.10576  1.0000
  H   H105      1.0  0.26645  0.01689  0.16186  1.0000
  S   S36       1.0  0.19568  0.78065  0.08525  1.0000
  C   C82       1.0  0.21568  0.91625  0.12046  1.0000
  C   C83       1.0  0.21999  0.95416  0.13710  1.0000
  H   H106      1.0  0.18948  0.95736  0.14085  1.0000
  C   C84       1.0  0.19896  0.60796  0.11670  1.0000
  C   C85       1.0  0.17879  0.63602  0.11341  1.0000
  C   C86       1.0  0.13173  0.61840  0.12093  1.0000
  C   C87       1.0  0.10514  0.57254  0.13176  1.0000
  C   C88       1.0  0.32869  0.95220  0.04059  1.0000
  H   H107      1.0  0.19980  0.67141  0.10544  1.0000
  C   C89       1.0  0.36381  0.58708  0.34625  1.0000
  H   H108      1.0  0.13096  0.56688  0.06747  1.0000
  C   C90       1.0  0.17208  0.56168  0.12669  1.0000
  H   H109      1.0  0.23553  0.62203  0.11110  1.0000
  H   H110      1.0  0.11840  0.74686  0.15026  1.0000
  H   H111      1.0  0.16459  0.80366  0.13934  1.0000
  H   H112      1.0  0.33073  0.90034  0.19417  1.0000
  H   H113      1.0  0.21397  0.76579  0.15031  1.0000
  H   H114      1.0  0.27289  0.82148  0.18105  1.0000
  C   C91       1.0  0.12501  0.54405  0.13423  1.0000
  H   H115      1.0  0.16428  0.71563  0.16580  1.0000
  C   C92       1.0  0.23885  0.99139  0.04598  1.0000
  N   N7        1.0  0.17447  0.78046  0.18345  1.0000
  C   C93       1.0  0.19293  0.75106  0.17180  1.0000
  C   C94       1.0  0.26001  0.84350  0.18895  1.0000
  C   C95       1.0  0.29386  0.88882  0.19657  1.0000
  H   H116      1.0  0.21463  0.74639  0.18942  1.0000
  Fe  Fe19      1.0  0.19372  0.77604  0.03352  1.0000
  C   C96       1.0  0.19388  0.62522  0.02494  1.0000
  H   H117      1.0  0.19944  0.62814  0.04963  1.0000
  H   H118      1.0  0.12250  0.79706  0.16749  1.0000
  H   H119      1.0  0.34081  0.95323  0.06399  1.0000
  C   C97       1.0  0.26354  0.98795  0.14899  1.0000
  C   C98       1.0  0.30315  0.98411  0.14411  1.0000
  C   C99       1.0  0.29881  0.94637  0.12731  1.0000
  C   C100      1.0  0.25530  0.91245  0.11570  1.0000
  C   C101      1.0  0.28062  0.91997  0.20661  1.0000
  H   H120      1.0  0.32924  0.94298  0.12368  1.0000
  H   H121      1.0  0.25245  0.88332  0.10321  1.0000
  H   H122      1.0  0.30708  0.95536  0.21182  1.0000
  H   H123      1.0  0.22345  0.93099  0.21588  1.0000
  H   H124      1.0  0.16800  0.75657  0.23043  1.0000
  H   H125      1.0  0.16322  0.85218  0.20306  1.0000
  H   H126      1.0  0.11819  0.72113  0.20651  1.0000
  H   H127      1.0  0.12780  0.77543  0.22027  1.0000
  C   C102      1.0  0.14589  0.75746  0.21139  1.0000
  C   C103      1.0  0.14362  0.78194  0.15922  1.0000
  C   C104      1.0  0.21147  0.82816  0.19117  1.0000
  C   C105      1.0  0.19930  0.86098  0.20132  1.0000
  C   C106      1.0  0.23346  0.90615  0.20887  1.0000
  H   H128      1.0  0.06882  0.55878  0.13793  1.0000
  C   C107      1.0  0.11547  0.53669  0.05185  1.0000
  S   S37       1.0  0.13080  0.70497  0.03240  1.0000
  C   C108      1.0  0.28681  0.91441  0.03097  1.0000
  N   N8        1.0  0.14996  0.53833  0.02922  1.0000
  H   H129      1.0  0.28995  0.01219  0.08083  1.0000
  H   H130      1.0  0.26666  0.88584  0.04680  1.0000
  H   H131      1.0  0.38869  0.01661  0.02715  1.0000
  H   H132      1.0  0.41475  0.55300  0.32249  1.0000
  C   C109      1.0  0.28081  0.02353  0.05993  1.0000
  H   H133      1.0  0.21753  0.95730  0.05634  1.0000
  H   H134      1.0  0.43630  0.63274  0.30971  1.0000
  Fe  Fe20      1.0  0.09006  0.74209  0.02898  1.0000
  S   S38       1.0  0.15386  0.81296  0.02635  1.0000
  S   S39       1.0  0.35904  0.02562  0.15782  1.0000
  C   C110      1.0  0.22398  0.00301  0.01906  1.0000
  H   H135      1.0  0.35797  0.58199  0.32085  1.0000
  C   C111      1.0  0.44430  0.64067  0.33471  1.0000
  H   H136      1.0  0.20596  0.56643  0.06280  1.0000
  H   H137      1.0  0.44118  0.67153  0.33985  1.0000
  H   H138      1.0  0.48145  0.65001  0.33751  1.0000
  H   H139      1.0  0.08572  0.53676  0.04004  1.0000
  C   C112      1.0  0.18839  0.53752  0.04623  1.0000
  H   H140      1.0  0.21568  0.53980  0.03010  1.0000
  C   C113      1.0  0.35541  0.98801  0.01985  1.0000
  H   H141      1.0  0.23046  0.69952  0.01949  1.0000
  C   C114      1.0  0.21398  0.88611  0.61523  1.0000
  H   H142      1.0  0.48633  0.67726  0.38520  1.0000
  H   H143      1.0  0.13629  0.88121  0.64141  1.0000
  C   C115      1.0  0.45928  0.65158  0.39996  1.0000
  H   H144      1.0  0.12462  0.81608  0.61444  1.0000
  C   C116      1.0  0.52124  0.60237  0.46009  1.0000
  H   H145      1.0  0.52424  0.58667  0.38280  1.0000
  H   H146      1.0  0.44710  0.87719  0.66814  1.0000
  C   C117      1.0  0.39525  0.58709  0.44209  1.0000
  H   H147      1.0  0.45651  0.57088  0.35322  1.0000
  H   H148      1.0  0.12727  0.78912  0.64939  1.0000
  H   H149      1.0  0.18735  0.91687  0.66337  1.0000
  C   C118      1.0  0.43346  0.62770  0.45276  1.0000
  H   H150      1.0  0.46752  0.80404  0.63627  1.0000
  C   C119      1.0  0.38875  0.57854  0.41037  1.0000
  C   C120      1.0  0.14910  0.81235  0.63018  1.0000
  N   N9        1.0  0.18631  0.85769  0.64207  1.0000
  C   C121      1.0  0.49695  0.83906  0.64204  1.0000
  H   H151      1.0  0.19133  0.88918  0.59751  1.0000
  C   C122      1.0  0.53700  0.61199  0.42942  1.0000
  H   H152      1.0  0.49643  0.69028  0.44022  1.0000
  C   C123      1.0  0.16276  0.88047  0.65682  1.0000
  C   C124      1.0  0.45329  0.52950  0.44412  1.0000
  C   C125      1.0  0.46555  0.65970  0.43176  1.0000
  N   N10       1.0  0.41251  0.60075  0.35474  1.0000
  H   H153      1.0  0.19083  0.77896  0.66059  1.0000
  H   H154      1.0  0.52993  0.91620  0.67691  1.0000
  H   H155      1.0  0.48837  0.86509  0.63330  1.0000
  H   H156      1.0  0.24045  0.92189  0.62210  1.0000
  C   C126      1.0  0.21800  0.85376  0.66444  1.0000
  C   C127      1.0  0.47946  0.56115  0.46740  1.0000
  C   C128      1.0  0.21628  0.81122  0.67093  1.0000
  C   C129      1.0  0.51147  0.57978  0.40638  1.0000
  C   C130      1.0  0.42008  0.61087  0.38824  1.0000
  H   H157      1.0  0.43919  0.63351  0.47740  1.0000
  H   H158      1.0  0.16378  0.79439  0.61668  1.0000
  H   H159      1.0  0.23304  0.87064  0.60389  1.0000
  H   H160      1.0  0.35965  0.54568  0.40344  1.0000
  H   H161      1.0  0.39604  0.53006  0.36060  1.0000
  H   H162      1.0  0.46694  0.55416  0.49105  1.0000
  H   H163      1.0  0.37155  0.56114  0.45851  1.0000
  C   C131      1.0  0.46985  0.53869  0.41368  1.0000
  H   H164      1.0  0.52807  0.84510  0.62823  1.0000
  H   H165      1.0  0.25677  0.92725  0.67611  1.0000
  H   H166      1.0  0.14438  0.86176  0.67824  1.0000
  H   H167      1.0  0.54078  0.62695  0.47803  1.0000
  H   H168      1.0  0.33756  0.55336  0.35667  1.0000
  N   N11       1.0  0.50659  0.84319  0.67578  1.0000
  H   H169      1.0  0.35508  0.61361  0.35365  1.0000
  H   H170      1.0  0.50144  0.77656  0.67938  1.0000
  C   C132      1.0  0.42032  0.56203  0.34748  1.0000
  C   C133      1.0  0.48181  0.94915  0.73639  1.0000
  C   C134      1.0  0.14115  0.84781  0.74317  1.0000
  C   C135      1.0  0.09729  0.83823  0.73208  1.0000
  C   C136      1.0  0.08426  0.76643  0.70931  1.0000
  C   C137      1.0  0.12734  0.77543  0.72119  1.0000
  C   C138      1.0  0.15574  0.81598  0.73780  1.0000
  H   H171      1.0  0.08572  0.86274  0.73611  1.0000
  C   C139      1.0  0.46381  0.83101  0.69379  1.0000
  C   C140      1.0  0.21178  0.66636  0.00793  1.0000
  H   H172      1.0  0.47641  0.96355  0.71542  1.0000
  C   C141      1.0  0.52457  0.95054  0.74094  1.0000
  H   H173      1.0  0.21917  0.69725  0.96307  1.0000
  H   H174      1.0  0.38015  0.86229  0.69960  1.0000
  H   H175      1.0  0.15715  0.81168  0.81251  1.0000
  C   C142      1.0  0.44959  0.80125  0.72014  1.0000
  C   C143      1.0  0.28041  0.84863  0.70699  1.0000
  H   H176      1.0  0.30928  0.92157  0.71295  1.0000
  H   H177      1.0  0.10495  0.74424  0.78486  1.0000
  S   S40       1.0  0.25987  0.79847  0.00685  1.0000
  C   C144      1.0  0.06898  0.79776  0.71499  1.0000
  N   N12       1.0  0.08729  0.76278  0.82852  1.0000
  C   C145      1.0  0.27136  0.91221  0.00065  1.0000
  C   C146      1.0  0.12791  0.81047  0.82608  1.0000
  H   H178      1.0  0.11822  0.83418  0.81443  1.0000
  H   H179      1.0  0.17585  0.62227  0.93631  1.0000
  C   C147      1.0  0.29745  0.94834  0.97897  1.0000
  H   H180      1.0  0.13932  0.75129  0.71697  1.0000
  H   H181      1.0  0.23950  0.88114  0.99458  1.0000
  H   H182      1.0  0.50136  0.89748  0.81120  1.0000
  Fe  Fe21      1.0  0.26676  0.86407  0.83795  1.0000
  S   S41       1.0  0.24079  0.91400  0.84028  1.0000
  S   S42       1.0  0.22225  0.79746  0.86381  1.0000
  Fe  Fe22      1.0  0.33856  0.91903  0.78717  1.0000
  S   S43       1.0  0.31583  0.97206  0.78503  1.0000
  Fe  Fe23      1.0  0.31635  0.96926  0.83708  1.0000
  Fe  Fe24      1.0  0.24214  0.91143  0.78832  1.0000
  S   S44       1.0  0.17770  0.90051  0.76229  1.0000
  S   S45       1.0  0.34274  0.91886  0.83905  1.0000
  S   S46       1.0  0.26479  0.85901  0.78635  1.0000
  H   H183      1.0  0.26721  0.98669  0.91477  1.0000
  S   S47       1.0  0.05221  0.71625  0.68683  1.0000
  H   H184      1.0  0.18945  0.82300  0.74573  1.0000
  C   C148      1.0  0.24705  0.80895  0.69199  1.0000
  C   C149      1.0  0.23353  0.79850  0.90344  1.0000
  C   C150      1.0  0.27922  0.82260  0.91470  1.0000
  C   C151      1.0  0.28739  0.82183  0.94652  1.0000
  C   C152      1.0  0.24980  0.79817  0.96710  1.0000
  C   C153      1.0  0.20414  0.77472  0.95583  1.0000
  C   C154      1.0  0.19610  0.77418  0.92401  1.0000
  H   H185      1.0  0.30825  0.84100  0.89882  1.0000
  H   H186      1.0  0.32275  0.83993  0.95524  1.0000
  H   H187      1.0  0.17495  0.75636  0.97158  1.0000
  H   H188      1.0  0.16072  0.75527  0.91546  1.0000
  H   H189      1.0  0.42656  0.89646  0.80351  1.0000
  C   C155      1.0  0.46942  0.53618  0.92434  1.0000
  H   H190      1.0  0.32552  0.91821  0.93215  1.0000
  H   H191      1.0  0.25331  0.98976  0.95461  1.0000
  C   C156      1.0  0.39867  0.84409  0.70473  1.0000
  H   H192      1.0  0.35739  0.81074  0.74526  1.0000
  H   H193      1.0  0.07168  0.69795  0.84929  1.0000
  N   N13       1.0  0.28289  0.94649  0.94640  1.0000
  C   C157      1.0  0.31852  0.94629  0.92570  1.0000
  H   H194      1.0  0.11591  0.74790  0.86898  1.0000
  C   C158      1.0  0.10165  0.73366  0.84581  1.0000
  H   H195      1.0  0.14423  0.54988  0.96481  1.0000
  H   H196      1.0  0.13008  0.73144  0.83357  1.0000
  C   C159      1.0  0.41117  0.79363  0.73816  1.0000
  H   H197      1.0  0.30731  0.94120  0.90108  1.0000
  C   C160      1.0  0.16290  0.58135  0.97790  1.0000
  C   C161      1.0  0.20534  0.66517  0.97609  1.0000
  S   S48       1.0  0.39163  0.92553  0.75089  1.0000
  C   C162      1.0  0.44616  0.92973  0.75889  1.0000
  C   C163      1.0  0.45373  0.91165  0.78606  1.0000
  C   C164      1.0  0.49617  0.91216  0.79031  1.0000
  H   H198      1.0  0.40164  0.77190  0.75866  1.0000
  C   C165      1.0  0.23715  0.90495  0.93920  1.0000
  C   C166      1.0  0.07501  0.74415  0.79666  1.0000
  C   C167      1.0  0.43717  0.85229  0.68675  1.0000
  C   C168      1.0  0.16894  0.58135  0.01049  1.0000
  H   H199      1.0  0.23826  0.87267  0.94262  1.0000
  H   H200      1.0  0.06549  0.76550  0.78196  1.0000
  H   H201      1.0  0.14284  0.82531  0.84901  1.0000
  H   H202      1.0  0.19117  0.97808  0.00856  1.0000
  H   H203      1.0  0.35238  0.97948  0.92627  1.0000
  H   H204      1.0  0.08787  0.79285  0.88767  1.0000
  H   H205      1.0  0.22716  0.90481  0.91459  1.0000
  C   C169      1.0  0.52712  0.81380  0.68318  1.0000
  C   C170      1.0  0.38593  0.81517  0.73055  1.0000
  C   C171      1.0  0.34002  0.98640  0.98952  1.0000
  C   C172      1.0  0.18094  0.62282  0.96111  1.0000
  C   C173      1.0  0.05493  0.78035  0.87593  1.0000
  H   H206      1.0  0.20853  0.90311  0.95377  1.0000
  C   C174      1.0  0.28337  0.89085  0.70094  1.0000
  C   C175      1.0  0.53163  0.93118  0.76766  1.0000
  H   H207      1.0  0.46824  0.78443  0.72785  1.0000
  H   H208      1.0  0.31265  0.02050  0.94105  1.0000
  C   C176      1.0  0.04851  0.76340  0.84520  1.0000
  C   C177      1.0  0.27883  0.98759  0.93905  1.0000
  H   H209      1.0  0.50222  0.59728  0.89539  1.0000
  H   H210      1.0  0.24455  0.77605  0.69708  1.0000
  H   H211      1.0  0.30376  0.84676  0.72368  1.0000
  H   H212      1.0  0.04571  0.70768  0.79667  1.0000
  H   H213      1.0  0.36220  0.01464  0.97407  1.0000
  C   C178      1.0  0.50766  0.57606  0.91194  1.0000
  C   C179      1.0  0.25288  0.89359  0.67991  1.0000
  H   H214      1.0  0.43498  0.52795  0.91698  1.0000
  H   H215      1.0  0.53983  0.81864  0.70744  1.0000
  C   C180      1.0  0.54211  0.89164  0.68267  1.0000
  S   S49       1.0  0.00167  0.32442  0.16908  1.0000
  Fe  Fe25      1.0  0.83497  0.15332  0.29910  1.0000
  S   S50       1.0  0.78994  0.18423  0.30930  1.0000
  S   S51       1.0  0.91285  0.19305  0.28724  1.0000
  H   H216      1.0  0.98896  0.35492  0.26116  1.0000
  Fe  Fe26      1.0  0.73327  0.12295  0.28398  1.0000
  S   S52       1.0  0.69261  0.13734  0.24762  1.0000
  H   H217      1.0  0.75360  0.11462  0.20188  1.0000
  S   S53       1.0  0.78013  0.09481  0.27100  1.0000
  S   S54       1.0  0.81468  0.11092  0.34305  1.0000
  C   C181      1.0  0.63645  0.12970  0.25486  1.0000
  C   C182      1.0  0.61860  0.15011  0.23478  1.0000
  C   C183      1.0  0.57513  0.14670  0.24081  1.0000
  C   C184      1.0  0.60981  0.10464  0.28052  1.0000
  H   H218      1.0  0.63866  0.16914  0.21465  1.0000
  H   H219      1.0  0.64292  0.13444  0.33907  1.0000
  H   H220      1.0  0.62229  0.08720  0.29541  1.0000
  C   C185      1.0  0.97828  0.28863  0.20239  1.0000
  C   C186      1.0  0.93371  0.27750  0.21316  1.0000
  C   C187      1.0  0.91322  0.24811  0.23898  1.0000
  C   C188      1.0  0.93695  0.22921  0.25417  1.0000
  C   C189      1.0  0.98177  0.24074  0.24367  1.0000
  C   C190      1.0  0.00239  0.27031  0.21790  1.0000
  H   H221      1.0  0.91506  0.29180  0.20140  1.0000
  H   H222      1.0  0.87934  0.24042  0.24739  1.0000
  H   H223      1.0  0.00068  0.22680  0.25553  1.0000
  H   H224      1.0  0.90094  0.13806  0.20749  1.0000
  H   H225      1.0  0.70608  0.22506  0.30953  1.0000
  C   C191      1.0  0.01833  0.35314  0.27049  1.0000
  S   S55       1.0  0.70467  0.07762  0.32608  1.0000
  H   H226      1.0  0.95694  0.18489  0.16609  1.0000
  C   C192      1.0  0.01191  0.32416  0.29554  1.0000
  H   H227      1.0  0.82618  0.24123  0.20582  1.0000
  C   C193      1.0  0.91240  0.20808  0.14708  1.0000
  H   H228      1.0  0.93802  0.23012  0.12987  1.0000
  H   H229      1.0  0.74710  0.20060  0.15516  1.0000
  C   C194      1.0  0.79549  0.20551  0.20639  1.0000
  H   H230      1.0  0.79884  0.18770  0.22720  1.0000
  Fe  Fe27      1.0  0.75643  0.05478  0.31600  1.0000
  H   H231      1.0  0.54683  0.08322  0.30714  1.0000
  H   H232      1.0  0.80772  0.24083  0.15035  1.0000
  H   H233      1.0  0.71830  0.13123  0.18174  1.0000
  H   H234      1.0  0.75117  0.11099  0.16033  1.0000
  N   N14       1.0  0.79240  0.18043  0.17756  1.0000
  C   C195      1.0  0.86988  0.20717  0.14966  1.0000
  C   C196      1.0  0.89170  0.15639  0.19082  1.0000
  C   C197      1.0  0.78170  0.20317  0.15184  1.0000
  H   H235      1.0  0.82691  0.13599  0.21285  1.0000
  C   C198      1.0  0.92327  0.18275  0.16758  1.0000
  C   C199      1.0  0.83671  0.18041  0.17306  1.0000
  C   C200      1.0  0.84918  0.15534  0.19367  1.0000
  H   H236      1.0  0.86457  0.22873  0.13353  1.0000
  C   C201      1.0  0.75242  0.13230  0.18035  1.0000
  H   H237      1.0  0.78053  0.18680  0.12926  1.0000
  H   H238      1.0  0.76368  0.20817  0.21013  1.0000
  H   H239      1.0  0.97724  0.30330  0.30542  1.0000
  C   C202      1.0  0.67255  0.21946  0.31944  1.0000
  H   H240      1.0  0.67045  0.25134  0.31635  1.0000
  C   C203      1.0  0.56684  0.10204  0.28692  1.0000
  H   H241      1.0  0.64442  0.19268  0.30478  1.0000
  C   C204      1.0  0.54932  0.12316  0.26718  1.0000
  H   H242      1.0  0.74389  0.29301  0.33784  1.0000
  H   H243      1.0  0.03677  0.27875  0.20994  1.0000
  H   H244      1.0  0.56204  0.16310  0.22543  1.0000
  H   H245      1.0  0.00142  0.16182  0.32900  1.0000
  H   H246      1.0  0.04149  0.29629  0.32579  1.0000
  Fe  Fe28      1.0  0.89484  0.25234  0.55158  1.0000
  S   S56       1.0  0.88013  0.30976  0.54164  1.0000
  S   S57       1.0  0.83324  0.18068  0.56213  1.0000
  H   H247      1.0  0.97457  0.24708  0.44748  1.0000
  S   S58       1.0  0.99268  0.37576  0.52487  1.0000
  Fe  Fe29      1.0  0.94662  0.35544  0.56715  1.0000
  S   S59       1.0  0.95073  0.40403  0.60517  1.0000
  Fe  Fe30      1.0  0.92699  0.32493  0.50043  1.0000
  S   S60       1.0  0.91019  0.33823  0.45248  1.0000
  S   S61       1.0  0.95833  0.29673  0.58007  1.0000
  S   S62       1.0  0.93651  0.26398  0.50793  1.0000
  H   H248      1.0  0.73577  0.06513  0.64037  1.0000
  S   S63       1.0  0.75029  0.15070  0.39856  1.0000
  C   C205      1.0  0.94734  0.45340  0.59484  1.0000
  C   C206      1.0  0.95798  0.48795  0.61691  1.0000
  C   C207      1.0  0.84523  0.15548  0.65298  1.0000
  C   C208      1.0  0.93280  0.45808  0.56539  1.0000
  H   H249      1.0  0.96967  0.48478  0.63964  1.0000
  C   C209      1.0  0.94855  0.26324  0.37435  1.0000
  C   C210      1.0  0.86412  0.28712  0.43760  1.0000
  C   C211      1.0  0.83681  0.24977  0.45729  1.0000
  C   C212      1.0  0.80112  0.20827  0.44514  1.0000
  C   C213      1.0  0.79382  0.20350  0.41320  1.0000
  C   C214      1.0  0.82118  0.24078  0.39342  1.0000
  C   C215      1.0  0.85569  0.28296  0.40574  1.0000
  H   H250      1.0  0.84295  0.25287  0.48194  1.0000
  H   H251      1.0  0.77972  0.17968  0.46052  1.0000
  H   H252      1.0  0.81506  0.23747  0.36880  1.0000
  H   H253      1.0  0.87638  0.31215  0.39058  1.0000
  C   C216      1.0  0.82249  0.15594  0.59962  1.0000
  C   C217      1.0  0.77946  0.11584  0.60593  1.0000
  C   C218      1.0  0.76936  0.09549  0.63560  1.0000
  H   H254      1.0  0.75331  0.10121  0.58804  1.0000
  H   H255      1.0  0.67576  0.19865  0.41529  1.0000
  H   H256      1.0  0.89619  0.35991  0.66021  1.0000
  C   C219      1.0  0.73963  0.28340  0.36199  1.0000
  H   H257      1.0  0.92669  0.27770  0.38219  1.0000
  H   H258      1.0  0.89220  0.17297  0.38615  1.0000
  Fe  Fe31      1.0  0.99914  0.31351  0.53536  1.0000
  C   C220      1.0  0.55195  0.51852  0.46315  1.0000
  H   H259      1.0  0.76431  0.51586  0.65437  1.0000
  C   C221      1.0  0.61963  0.19403  0.36256  1.0000
  H   H260      1.0  0.98279  0.29300  0.36695  1.0000
  H   H261      1.0  0.79772  0.33030  0.42910  1.0000
  C   C222      1.0  0.76577  0.09071  0.50056  1.0000
  H   H262      1.0  0.80135  0.34814  0.37332  1.0000
  H   H263      1.0  0.73498  0.25552  0.44955  1.0000
  H   H264      1.0  0.94674  0.18438  0.34810  1.0000
  H   H265      1.0  0.87070  0.52095  0.62303  1.0000
  C   C223      1.0  0.74380  0.07195  0.47257  1.0000
  C   C224      1.0  0.77301  0.31565  0.38218  1.0000
  H   H266      1.0  0.93090  0.24205  0.35363  1.0000
  H   H267      1.0  0.82370  0.47570  0.60252  1.0000
  C   C225      1.0  0.02948  0.23272  0.40454  1.0000
  H   H268      1.0  0.92711  0.26898  0.65399  1.0000
  H   H269      1.0  0.00443  0.29814  0.42309  1.0000
  H   H270      1.0  0.96340  0.32252  0.67377  1.0000
  H   H271      1.0  0.78478  0.07865  0.54492  1.0000
  Fe  Fe32      1.0  0.76469  0.13634  0.35045  1.0000
  C   C226      1.0  0.80753  0.22521  0.67238  1.0000
  H   H272      1.0  0.91215  0.17312  0.42477  1.0000
  C   C227      1.0  0.97828  0.19496  0.36122  1.0000
  C   C228      1.0  0.76739  0.06222  0.52367  1.0000
  H   H273      1.0  0.61696  0.22583  0.36302  1.0000
  C   C229      1.0  0.84012  0.48545  0.62579  1.0000
  H   H274      1.0  0.59194  0.16900  0.34669  1.0000
  H   H275      1.0  0.85277  0.46112  0.63124  1.0000
  N   N15       1.0  0.88897  0.29606  0.67772  1.0000
  H   H276      1.0  0.74270  0.09407  0.45459  1.0000
  C   C230      1.0  0.76689  0.43691  0.65136  1.0000
  H   H277      1.0  0.78178  0.12763  0.50450  1.0000
  H   H278      1.0  0.89844  0.50897  0.66956  1.0000
  C   C231      1.0  0.97072  0.26563  0.42728  1.0000
  H   H279      1.0  0.75083  0.42463  0.62821  1.0000
  H   H280      1.0  0.92464  0.43177  0.54818  1.0000
  C   C232      1.0  0.85557  0.17541  0.62314  1.0000
  H   H281      1.0  0.91636  0.49965  0.53552  1.0000
  H   H282      1.0  0.88895  0.20586  0.61830  1.0000
  C   C233      1.0  0.80197  0.11567  0.65937  1.0000
  C   C234      1.0  0.90873  0.19500  0.40668  1.0000
  N   N16       1.0  0.95472  0.23617  0.39926  1.0000
  C   C235      1.0  0.79159  0.51644  0.63911  1.0000
  C   C236      1.0  0.98757  0.22132  0.38862  1.0000
  H   H283      1.0  0.79973  0.25942  0.58777  1.0000
  H   H284      1.0  0.94537  0.27635  0.43463  1.0000
  H   H285      1.0  0.86894  0.30933  0.61810  1.0000
  C   C237      1.0  0.92822  0.49664  0.55825  1.0000
  C   C238      1.0  0.70276  0.24008  0.37304  1.0000
  C   C239      1.0  0.66938  0.16191  0.35407  1.0000
  N   N17       1.0  0.80757  0.48456  0.64977  1.0000
  C   C240      1.0  0.70181  0.23128  0.40529  1.0000
  H   H286      1.0  0.88347  0.20494  0.41556  1.0000
  C   C241      1.0  0.57139  0.51471  0.40994  1.0000
  C   C242      1.0  0.84595  0.26633  0.65993  1.0000
  C   C243      1.0  0.73545  0.26369  0.42520  1.0000
  H   H287      1.0  0.93654  0.32293  0.63864  1.0000
  C   C244      1.0  0.77091  0.30583  0.41369  1.0000
  N   N18       1.0  0.66693  0.20483  0.35245  1.0000
  C   C245      1.0  0.80161  0.25048  0.61165  1.0000
  C   C246      1.0  0.84138  0.27847  0.62914  1.0000
  H   H288      1.0  0.61044  0.17800  0.38598  1.0000
  H   H289      1.0  0.77674  0.50802  0.61538  1.0000
  H   H290      1.0  0.66302  0.14684  0.37776  1.0000
  C   C247      1.0  0.93062  0.30274  0.66032  1.0000
  H   H291      1.0  0.03916  0.25167  0.42594  1.0000
  H   H292      1.0  0.73504  0.18763  0.61032  1.0000
  C   C248      1.0  0.00941  0.18173  0.35012  1.0000
  H   H293      1.0  0.87070  0.17103  0.67120  1.0000
  H   H294      1.0  0.77749  0.41228  0.66021  1.0000
  H   H295      1.0  0.73890  0.43435  0.66690  1.0000
  C   C249      1.0  0.76502  0.21006  0.62434  1.0000
  H   H296      1.0  0.81413  0.03741  0.56493  1.0000
  C   C250      1.0  0.76783  0.19765  0.65469  1.0000
  H   H297      1.0  0.73991  0.16539  0.66422  1.0000
  H   H298      1.0  0.70441  0.16855  0.34671  1.0000
  H   H299      1.0  0.80774  0.21236  0.69530  1.0000
  C   C251      1.0  0.61232  0.50843  0.90208  1.0000
  H   H300      1.0  0.55156  0.46551  0.87439  1.0000
  C   C252      1.0  0.56793  0.46956  0.89667  1.0000
  H   H301      1.0  0.88666  0.24205  0.70635  1.0000
  C   C253      1.0  0.88970  0.27662  0.70856  1.0000
  H   H302      1.0  0.54855  0.41581  0.96659  1.0000
  C   C254      1.0  0.87562  0.50970  0.68712  1.0000
  H   H303      1.0  0.80208  0.51793  0.75403  1.0000
  C   C255      1.0  0.89490  0.52375  0.71658  1.0000
  C   C256      1.0  0.56600  0.44154  0.94862  1.0000
  H   H304      1.0  0.76730  0.49361  0.70303  1.0000
  C   C257      1.0  0.61018  0.48057  0.95412  1.0000
  H   H305      1.0  0.62632  0.48471  0.97648  1.0000
  C   C258      1.0  0.80279  0.50111  0.70600  1.0000
  C   C259      1.0  0.54457  0.43598  0.91988  1.0000
  H   H306      1.0  0.92287  0.29915  0.72106  1.0000
  C   C260      1.0  0.82896  0.49853  0.68082  1.0000
  H   H307      1.0  0.86091  0.27313  0.72373  1.0000
  S   S64       1.0  0.78826  0.09399  0.69766  1.0000
  C   C261      1.0  0.82231  0.51484  0.73539  1.0000
  C   C262      1.0  0.63355  0.51413  0.93090  1.0000
  H   H308      1.0  0.92532  0.36540  0.69582  1.0000
  H   H309      1.0  0.86245  0.33842  0.69512  1.0000
  C   C263      1.0  0.89335  0.34187  0.68251  1.0000
  C   C264      1.0  0.90297  0.68598  0.05635  1.0000
  H   H310      1.0  0.91090  0.71318  0.07286  1.0000
  C   C265      1.0  0.93572  0.67255  0.05057  1.0000
  H   H311      1.0  0.95220  0.62860  0.02422  1.0000
  H   H312      1.0  0.96918  0.68947  0.06221  1.0000
  S   S65       1.0  0.73686  0.97955  0.32100  1.0000
  H   H313      1.0  0.83638  0.67699  0.04567  1.0000
  H   H314      1.0  0.69935  0.88557  0.34190  1.0000
  C   C266      1.0  0.92601  0.63808  0.02911  1.0000
  H   H315      1.0  0.76380  0.60768  0.03967  1.0000
  C   C267      1.0  0.85008  0.63097  0.01770  1.0000
  C   C268      1.0  0.86056  0.66528  0.04043  1.0000
  H   H316      1.0  0.76825  0.55696  0.03400  1.0000
  C   C269      1.0  0.76567  0.58493  0.02181  1.0000
  S   S66       1.0  0.63577  0.90560  0.62626  1.0000
  Fe  Fe33      1.0  0.66619  0.74976  0.51843  1.0000
  S   S67       1.0  0.73831  0.80466  0.50472  1.0000
  S   S68       1.0  0.65100  0.74074  0.56952  1.0000
  Fe  Fe34      1.0  0.63916  0.71423  0.45321  1.0000
  S   S69       1.0  0.70986  0.76653  0.43399  1.0000
  S   S70       1.0  0.58787  0.66383  0.41848  1.0000
  Fe  Fe35      1.0  0.73865  0.74980  0.47586  1.0000
  S   S71       1.0  0.79971  0.73781  0.47258  1.0000
  Fe  Fe36      1.0  0.70386  0.81753  0.46415  1.0000
  S   S72       1.0  0.73293  0.89382  0.45372  1.0000
  S   S73       1.0  0.66878  0.69324  0.49249  1.0000
  S   S74       1.0  0.63077  0.76681  0.48051  1.0000
  H   H317      1.0  0.82129  0.55274  0.63848  1.0000
  Fe  Fe37      1.0  0.93387  0.72091  0.61184  1.0000
  S   S75       1.0  0.87725  0.64734  0.60637  1.0000
  S   S76       1.0  0.92564  0.77885  0.59178  1.0000
  H   H318      1.0  0.68616  0.71531  0.62751  1.0000
  Fe  Fe38      1.0  0.93473  0.63020  0.60575  1.0000
  S   S77       1.0  0.92858  0.57693  0.57101  1.0000
  H   H319      1.0  0.94769  0.93517  0.40424  1.0000
  S   S78       1.0  0.99199  0.70506  0.60639  1.0000
  H   H320      1.0  0.79651  0.86163  0.44053  1.0000
  Fe  Fe39      1.0  0.98742  0.69631  0.65828  1.0000
  C   C270      1.0  0.73267  0.91647  0.41665  1.0000
  C   C271      1.0  0.75351  0.96456  0.41293  1.0000
  N   N19       1.0  0.74951  0.98454  0.54436  1.0000
  C   C272      1.0  0.87162  0.90549  0.40139  1.0000
  H   H321      1.0  0.72286  0.96306  0.59082  1.0000
  C   C273      1.0  0.71300  0.88801  0.39093  1.0000
  H   H322      1.0  0.76975  0.98690  0.43250  1.0000
  H   H323      1.0  0.77002  0.64565  0.59514  1.0000
  H   H324      1.0  0.69691  0.85091  0.39344  1.0000
  C   C274      1.0  0.83518  0.74980  0.50551  1.0000
  C   C275      1.0  0.84594  0.78778  0.52425  1.0000
  C   C276      1.0  0.87463  0.79693  0.55025  1.0000
  C   C277      1.0  0.89206  0.76777  0.55799  1.0000
  C   C278      1.0  0.88162  0.73000  0.53912  1.0000
  C   C279      1.0  0.85379  0.72146  0.51270  1.0000
  H   H325      1.0  0.83245  0.81030  0.51865  1.0000
  H   H326      1.0  0.88297  0.82643  0.56462  1.0000
  H   H327      1.0  0.89538  0.70764  0.54469  1.0000
  H   H328      1.0  0.84617  0.69242  0.49804  1.0000
  C   C280      1.0  0.64125  0.86034  0.61097  1.0000
  C   C281      1.0  0.65277  0.83356  0.62980  1.0000
  C   C282      1.0  0.65538  0.79648  0.61702  1.0000
  C   C283      1.0  0.64777  0.78711  0.58532  1.0000
  C   C284      1.0  0.63720  0.81459  0.56649  1.0000
  C   C285      1.0  0.63314  0.85064  0.57942  1.0000
  H   H329      1.0  0.65906  0.84100  0.65421  1.0000
  H   H330      1.0  0.66355  0.77531  0.63167  1.0000
  H   H331      1.0  0.63095  0.80731  0.54209  1.0000
  H   H332      1.0  0.62367  0.87103  0.56494  1.0000
  C   C286      1.0  0.57919  0.53983  0.43702  1.0000
  H   H333      1.0  0.82109  0.00636  0.53355  1.0000
  C   C287      1.0  0.78116  0.68174  0.58801  1.0000
  H   H334      1.0  0.82354  0.96014  0.36132  1.0000
  H   H335      1.0  0.68700  0.62669  0.59004  1.0000
  C   C288      1.0  0.89640  0.85847  0.43198  1.0000
  H   H336      1.0  0.84612  0.82103  0.38010  1.0000
  H   H337      1.0  0.81600  0.78903  0.41438  1.0000
  H   H338      1.0  0.96817  0.00363  0.37345  1.0000
  S   S79       1.0  0.93360  0.62025  0.65703  1.0000
  C   C289      1.0  0.76307  0.74233  0.58494  1.0000
  H   H339      1.0  0.70685  0.66215  0.55557  1.0000
  N   N20       1.0  0.74606  0.69483  0.59686  1.0000
  C   C290      1.0  0.73045  0.93553  0.53526  1.0000
  H   H340      1.0  0.78587  0.66974  0.64563  1.0000
  H   H341      1.0  0.60539  0.57636  0.43747  1.0000
  H   H342      1.0  0.55704  0.53870  0.48382  1.0000
  H   H343      1.0  0.69279  0.91860  0.52917  1.0000
  H   H344      1.0  0.76743  0.74408  0.55936  1.0000
  H   H345      1.0  0.73846  0.75484  0.58976  1.0000
  H   H346      1.0  0.76976  0.02121  0.38154  1.0000
  H   H347      1.0  0.78665  0.68363  0.56249  1.0000
  C   C291      1.0  0.70176  0.66260  0.58104  1.0000
  C   C292      1.0  0.95416  0.52693  0.60958  1.0000
  H   H348      1.0  0.84975  0.89500  0.46128  1.0000
  C   C293      1.0  0.75383  0.98414  0.38398  1.0000
  H   H349      1.0  0.79730  0.76742  0.59533  1.0000
  Fe  Fe40      1.0  0.88116  0.64369  0.65771  1.0000
  H   H350      1.0  0.81598  0.70547  0.59832  1.0000
  C   C294      1.0  0.83758  0.91450  0.38859  1.0000
  H   H351      1.0  0.91924  0.88748  0.44758  1.0000
  H   H352      1.0  0.91779  0.85666  0.41277  1.0000
  C   C295      1.0  0.73776  0.69321  0.63064  1.0000
  S   S80       1.0  0.93430  0.71849  0.66385  1.0000
  H   H353      1.0  0.67463  0.67243  0.58412  1.0000
  H   H354      1.0  0.79453  0.82029  0.39346  1.0000
  C   C296      1.0  0.82717  0.82171  0.40118  1.0000
  H   H355      1.0  0.80067  0.89099  0.39232  1.0000
  C   C297      1.0  0.82956  0.86319  0.44728  1.0000
  C   C298      1.0  0.70531  0.70507  0.64269  1.0000
  H   H356      1.0  0.86457  0.79042  0.64982  1.0000
  Fe  Fe41      1.0  0.66555  0.92936  0.67375  1.0000
  C   C299      1.0  0.91929  0.93884  0.39543  1.0000
  N   N21       1.0  0.85692  0.86313  0.42013  1.0000
  H   H357      1.0  0.81279  0.82384  0.65133  1.0000
  C   C300      1.0  0.71429  0.90771  0.36176  1.0000
  H   H358      1.0  0.73633  0.02026  0.58105  1.0000
  H   H359      1.0  0.88371  0.82604  0.44588  1.0000
  H   H360      1.0  0.57467  0.90306  0.66928  1.0000
  C   C301      1.0  0.69655  0.70357  0.67445  1.0000
  H   H361      1.0  0.96292  0.55357  0.62660  1.0000
  H   H362      1.0  0.73274  0.91437  0.55440  1.0000
  C   C302      1.0  0.79877  0.00289  0.55386  1.0000
  C   C303      1.0  0.72236  0.98499  0.57152  1.0000
  H   H363      1.0  0.74988  0.93269  0.51515  1.0000
  C   C304      1.0  0.72500  0.99578  0.49054  1.0000
  H   H364      1.0  0.81957  0.83284  0.46267  1.0000
  H   H365      1.0  0.70894  0.95957  0.48484  1.0000
  C   C305      1.0  0.81966  0.81055  0.67234  1.0000
  C   C306      1.0  0.76062  0.67945  0.65239  1.0000
  H   H366      1.0  0.80196  0.97997  0.57122  1.0000
  C   C307      1.0  0.85032  0.95415  0.37086  1.0000
  H   H367      1.0  0.68507  0.97161  0.56548  1.0000
  C   C308      1.0  0.93165  0.97854  0.37770  1.0000
  H   H368      1.0  0.59204  0.53192  0.38949  1.0000
  C   C309      1.0  0.74729  0.01385  0.51938  1.0000
  C   C310      1.0  0.73439  0.95582  0.35818  1.0000
  H   H369      1.0  0.70643  0.01019  0.44573  1.0000
  C   C311      1.0  0.84879  0.79178  0.67157  1.0000
  C   C312      1.0  0.89724  0.98615  0.36545  1.0000
  H   H370      1.0  0.90681  0.01689  0.35174  1.0000
  C   C313      1.0  0.93856  0.53107  0.58031  1.0000
  H   H371      1.0  0.55832  0.82293  0.66839  1.0000
  C   C314      1.0  0.72332  0.02461  0.46765  1.0000
  Fe  Fe42      1.0  0.72063  0.92693  0.72941  1.0000
  S   S81       1.0  0.64423  0.88712  0.71765  1.0000
  S   S82       1.0  0.76570  0.90320  0.75420  1.0000
  C   C315      1.0  0.85821  0.77511  0.69873  1.0000
  H   H372      1.0  0.77754  0.82785  0.70098  1.0000
  Fe  Fe43      1.0  0.64083  0.94746  0.73746  1.0000
  S   S83       1.0  0.58379  0.92943  0.77356  1.0000
  C   C316      1.0  0.87134  0.79973  0.77891  1.0000
  S   S84       1.0  0.71639  0.98514  0.75174  1.0000
  H   H373      1.0  0.76880  0.66651  0.70006  1.0000
  Fe  Fe44      1.0  0.73438  0.61966  0.90487  1.0000
  S   S85       1.0  0.74963  0.69215  0.91332  1.0000
  S   S86       1.0  0.68795  0.56367  0.93962  1.0000
  Fe  Fe45      1.0  0.81032  0.65338  0.85456  1.0000
  S   S87       1.0  0.83017  0.72770  0.85929  1.0000
  S   S88       1.0  0.85815  0.63986  0.82544  1.0000
  Fe  Fe46      1.0  0.82576  0.71281  0.91041  1.0000
  S   S89       1.0  0.88126  0.75958  0.94492  1.0000
  Fe  Fe47      1.0  0.75257  0.69953  0.86128  1.0000
  S   S90       1.0  0.70840  0.72096  0.83306  1.0000
  S   S91       1.0  0.81016  0.64022  0.90520  1.0000
  S   S92       1.0  0.73289  0.62530  0.85305  1.0000
  C   C317      1.0  0.80874  0.79585  0.72746  1.0000
  C   C318      1.0  0.96780  0.74789  0.84855  1.0000
  C   C319      1.0  0.84394  0.62916  0.78637  1.0000
  C   C320      1.0  0.87890  0.63590  0.76526  1.0000
  C   C321      1.0  0.86929  0.63011  0.73359  1.0000
  C   C322      1.0  0.82435  0.61638  0.72309  1.0000
  C   C323      1.0  0.78898  0.60849  0.74423  1.0000
  C   C324      1.0  0.79894  0.61544  0.77592  1.0000
  H   H374      1.0  0.91372  0.64644  0.77336  1.0000
  H   H375      1.0  0.89667  0.63609  0.71736  1.0000
  H   H376      1.0  0.75410  0.59758  0.73613  1.0000
  H   H377      1.0  0.77178  0.60977  0.79227  1.0000
  C   C325      1.0  0.55297  0.58832  0.92038  1.0000
  H   H378      1.0  0.90413  0.82862  0.76879  1.0000
  C   C326      1.0  0.98914  0.76257  0.99249  1.0000
  C   C327      1.0  0.72582  0.77142  0.81058  1.0000
  C   C328      1.0  0.69378  0.77216  0.78965  1.0000
  C   C329      1.0  0.70549  0.81203  0.77195  1.0000
  C   C330      1.0  0.74931  0.85176  0.77529  1.0000
  C   C331      1.0  0.78153  0.85087  0.79599  1.0000
  C   C332      1.0  0.76984  0.81093  0.81363  1.0000
  H   H379      1.0  0.65958  0.74170  0.78722  1.0000
  H   H380      1.0  0.68061  0.81205  0.75583  1.0000
  H   H381      1.0  0.81556  0.88149  0.79867  1.0000
  H   H382      1.0  0.79454  0.81099  0.82997  1.0000
  C   C333      1.0  0.92353  0.74589  0.95837  1.0000
  C   C334      1.0  0.67199  0.80359  0.87840  1.0000
  C   C335      1.0  0.96014  0.69869  0.95691  1.0000
  C   C336      1.0  0.92628  0.70877  0.94615  1.0000
  H   H383      1.0  0.88038  0.78910  0.80109  1.0000
  H   H384      1.0  0.90299  0.68824  0.92793  1.0000
  C   C337      1.0  0.95517  0.77276  0.98160  1.0000
  H   H385      1.0  0.58268  0.61873  0.91035  1.0000
  N   N22       1.0  0.67168  0.90258  0.83505  1.0000
  C   C338      1.0  0.64959  0.87852  0.80587  1.0000
  C   C339      1.0  0.65289  0.93342  0.84245  1.0000
  C   C340      1.0  0.66267  0.86776  0.85940  1.0000
  C   C341      1.0  0.63619  0.86259  0.88660  1.0000
  C   C342      1.0  0.68019  0.83713  0.85603  1.0000
  H   H386      1.0  0.66467  0.85783  0.79706  1.0000
  C   C343      1.0  0.80409  0.72391  0.77114  1.0000
  H   H387      1.0  0.84863  0.81404  0.78508  1.0000
  H   H388      1.0  0.93355  0.73443  0.83832  1.0000
  H   H389      1.0  0.55215  0.96689  0.72387  1.0000
  H   H390      1.0  0.61407  0.91371  0.84461  1.0000
  H   H391      1.0  0.66840  0.95324  0.86399  1.0000
  H   H392      1.0  0.62113  0.88401  0.89113  1.0000
  H   H393      1.0  0.70035  0.83882  0.83592  1.0000
  H   H394      1.0  0.86428  0.71116  0.73739  1.0000
  H   H395      1.0  0.64003  0.77357  0.92221  1.0000
  C   C344      1.0  0.80095  0.64822  0.98537  1.0000
  H   H396      1.0  0.55138  0.89586  0.70765  1.0000
  H   H397      1.0  0.78453  0.69495  0.75479  1.0000
  H   H398      1.0  0.83121  0.59602  0.95856  1.0000
  H   H399      1.0  0.95343  0.80161  0.99120  1.0000
  C   C345      1.0  0.72282  0.93232  0.82993  1.0000
  H   H400      1.0  0.79250  0.79833  0.74849  1.0000
  H   H401      1.0  0.02418  0.79343  0.91591  1.0000
  H   H402      1.0  0.73126  0.96096  0.81330  1.0000
  C   C346      1.0  0.99171  0.72539  0.98011  1.0000
  H   H403      1.0  0.88586  0.72852  0.77566  1.0000
  C   C347      1.0  0.71936  0.68971  0.69512  1.0000
  H   H404      1.0  0.76913  0.63431  0.97076  1.0000
  H   H405      1.0  0.83160  0.66989  0.97030  1.0000
  H   H406      1.0  0.03576  0.79111  0.70596  1.0000
  C   C348      1.0  0.00359  0.74694  0.83197  1.0000
  Fe  Fe48      1.0  0.73253  0.01873  0.70467  1.0000
  H   H407      1.0  0.66066  0.95931  0.82363  1.0000
  H   H408      1.0  0.91472  0.76755  0.74414  1.0000
  C   C349      1.0  0.01883  0.78106  0.89227  1.0000
  H   H409      1.0  0.81037  0.70880  0.79232  1.0000
  C   C350      1.0  0.62831  0.82898  0.90897  1.0000
  N   N23       1.0  0.84843  0.76058  0.75706  1.0000
  S   S93       1.0  0.65664  0.98689  0.69259  1.0000
  C   C351      1.0  0.79973  0.81264  0.70025  1.0000
  H   H410      1.0  0.73888  0.91306  0.81991  1.0000
  H   H411      1.0  0.65434  0.90338  0.78718  1.0000
  C   C352      1.0  0.87974  0.74123  0.75325  1.0000
  C   C353      1.0  0.83851  0.77684  0.72765  1.0000
  C   C354      1.0  0.64619  0.79958  0.90488  1.0000
  H   H412      1.0  0.78057  0.73685  0.77836  1.0000
  H   H413      1.0  0.61128  0.85497  0.80896  1.0000
  C   C355      1.0  0.97547  0.76517  0.87851  1.0000
  H   H414      1.0  0.73171  0.56857  0.00920  1.0000
  S   S94       1.0  0.03282  0.70988  0.99277  1.0000
  H   H415      1.0  0.80193  0.54762  0.98528  1.0000
  H   H416      1.0  0.96198  0.67002  0.94709  1.0000
  H   H417      1.0  0.68572  0.78051  0.87508  1.0000
  H   H418      1.0  0.99490  0.73271  0.80899  1.0000
  H   H419      1.0  0.74118  0.94807  0.85195  1.0000
  H   H420      1.0  0.94753  0.76572  0.89124  1.0000
  H   H421      1.0  0.76907  0.56508  0.96226  1.0000
  H   H422      1.0  0.87968  0.59211  0.99587  1.0000
  H   H423      1.0  0.60814  0.82564  0.92960  1.0000
  C   C356      1.0  0.56018  0.56109  0.94151  1.0000
  C   C357      1.0  0.80207  0.57852  0.97562  1.0000
  N   N24       1.0  0.80564  0.61082  0.00033  1.0000
  H   H424      1.0  0.59558  0.57055  0.94781  1.0000
  H   H425      1.0  0.93096  0.53342  0.72063  1.0000
  H   H426      1.0  0.88366  0.53830  0.76326  1.0000
  C   C358      1.0  0.75118  0.67757  0.68407  1.0000
  H   H427      1.0  0.71224  0.68826  0.71972  1.0000
  H   H428      1.0  0.88114  0.76117  0.69636  1.0000
  H   H429      1.0  0.62981  0.53413  0.88408  1.0000
  H   H430      1.0  0.79827  0.67170  0.00215  1.0000
  S   S95       1.0  0.81303  0.61116  0.68349  1.0000
  S   S96       1.0  0.74227  0.96346  0.68317  1.0000
  H   H431      1.0  0.01319  0.78336  0.01042  1.0000
  H   H432      1.0  0.67169  0.71293  0.68304  1.0000
  C   C359      1.0  0.86836  0.52645  0.74062  1.0000
  C   C360      1.0  0.88402  0.61755  0.01275  1.0000
