data_image0
_chemical_formula_structural       FeS2CSHFeSFeSHSFeSCFeSFeS2CHC6H3NC5NH2CHC2H8CHCFeCH2CSH2C2HCHCHCHC4H3CH3C3H4CH3CFeC2HCSH4SCFeS2FeSCFeSFeS3FeHCFeHFeHSH2C4HCH4CHC6H2CHCH5NCHCNSCHCSHSC3HCSC2H4C2HCHC4HC2HCH4NH2CH2SH2C2HCH3C3H6CHCH5SFeS2FeS2FeSFeS3HCHSFeCSCSHFeSC2NSFeSCHCHSC4HCH3CHCHC6H4C6H4C6H2CHC4HCH3CHCH3CHNCHCHC3NCH3C5H2NHCSHCH5C2H4CHCS2CNHCSH3NC8H20CH4SHCHC2H2C2H2C2H3NHCH2CHFeHC2H4CFeH5CHFe2S2FeS2FeSFeS3HC2SFeHSFeS2FeSCH2SFeSC3HC5HSH2C4HC6H4C6H4C6H2CHC3H2NHS2H7C2H2CHCH3CH4CNH3CHCH2CHCH3CH4CH2CSHNHCFeHCH3C4H8C2H2CH2SHC3H3SC4HC2H3NHCH2SCHCHFeCSNH4CH4FeSFeS2FeS2FeSFeS3FeS2HFeC3H3C2H2C2H2CHC6H5C3HC6H4C2HCH3NHC2H3CH3C3HCSCH4C6H5CH2NHCH2C2H3CHCNHC3H8CH5C4H2C2HSFeS2FeS2FeSFeS3FeS2HFeHCH2CNC7H3C6H4C3H2C6H4CH3C2H2C2HCNHC3NH4CH2CHC2HC2SHNC6H12CHCHCSH7CH7CH2C2H2CH2SC3HCHC2HCNCHCFeS2FeS2FeSFeHS2FeS2FeHFeS3H2C4H4C7H4C6H7C2HNC9H14NCH2C2H3CHCH3C3SCH3CH2CSCH4C2H2CH6NH2NHCH2CHNC2H2SH2C3HCHC2HC2H2NHCSH3C2H2C4H6FeS2FeS2FeSFeCS2FeS2FeHFeS2H2C5H4C7H4C6H4CN2CHSNC9H14CH2CHC2H2C2HC2HC3H3SC2SC2HSCHC3H4CH5CH2SH2NH2CH5C2H4FeCSFeS2FeSCHCSH2CSFeS2FeS2FeSFeS3HC3HC6H4CH4C6H4C6H4C6H2C8HCH3CH2FeCHCH2C5FeH3C2H2C2H2NH4CHC3H6C3H2NHCHSCHFeH3CSHFeHC2H2CHSC2H2SH2CHNH3CH2CHCHCNSH9CSHCNHC3HCH3CHFeHSH3C2H3CFeHSFeS2FeSH3SCH2SFeS2FeS2FeSFeS3HC3HC6H4C2HCSC6H4C6H4C6HCH2C2H3C2H2CHCH2SNC6H16CH2CH4CHCFeSCH3C2H2NC7HCH4CH6CFeNHC3H2C3HC2NCHC2HSH3CHNC3H2CH3FeHSHCSHC3H2CHCHCSHCH3CHC2H3C2HFeS2FeHSHFeCS2FeS2HFeSCHSC7H5C4HCH3C3HSH4CHCHC2H2CHCHCHC2HCH2NHC6HNFeC2HCH2SH3CH2CHCH4CHCFeS2FeHSCFeHS2FeS2CFeSC2SC7H5C6H3CHCH6CH3SH3CFeC2NC2HCHSCH4CHCHC3H
_chemical_formula_sum              "Fe96 S192 C720 H864 N48"
_cell_length_a       51.5598
_cell_length_b       51.3642
_cell_length_c       41.3219
_cell_angle_alpha    89.95
_cell_angle_beta     90.1431
_cell_angle_gamma    119.962

_space_group_name_H-M_alt    "P 1"
_space_group_IT_number       1

loop_
  _space_group_symop_operation_xyz
  'x, y, z'

loop_
  _atom_site_type_symbol
  _atom_site_label
  _atom_site_symmetry_multiplicity
  _atom_site_fract_x
  _atom_site_fract_y
  _atom_site_fract_z
  _atom_site_occupancy
  Fe  Fe1       1.0  0.45757  0.14229  0.20288  1.0000
  S   S1        1.0  0.41513  0.12438  0.17359  1.0000
  S   S2        1.0  0.47021  0.16892  0.24988  1.0000
  C   C1        1.0  0.49500  0.30192  0.46913  1.0000
  S   S3        1.0  0.44101  0.08948  0.12951  1.0000
  H   H1        1.0  0.37396  0.13391  0.27335  1.0000
  Fe  Fe2       1.0  0.44544  0.13580  0.12966  1.0000
  S   S4        1.0  0.45005  0.16088  0.08122  1.0000
  Fe  Fe3       1.0  0.41481  0.07994  0.17617  1.0000
  S   S5        1.0  0.37388  0.03375  0.18850  1.0000
  H   H2        1.0  0.44908  0.30103  0.00055  1.0000
  S   S6        1.0  0.45555  0.09774  0.20724  1.0000
  Fe  Fe4       1.0  0.41762  0.26668  0.43550  1.0000
  S   S7        1.0  0.44989  0.26419  0.40075  1.0000
  C   C2        1.0  0.48069  0.27975  0.24285  1.0000
  Fe  Fe5       1.0  0.40662  0.30901  0.38862  1.0000
  S   S8        1.0  0.43900  0.30903  0.35248  1.0000
  Fe  Fe6       1.0  0.41717  0.25934  0.36179  1.0000
  S   S9        1.0  0.40210  0.22902  0.31725  1.0000
  S   S10       1.0  0.38306  0.25868  0.39663  1.0000
  C   C3        1.0  0.29759  0.29351  0.20516  1.0000
  H   H3        1.0  0.34047  0.10446  0.29153  1.0000
  C   C4        1.0  0.45016  0.18444  0.26851  1.0000
  C   C5        1.0  0.42717  0.18621  0.25249  1.0000
  C   C6        1.0  0.41257  0.19979  0.26785  1.0000
  C   C7        1.0  0.42078  0.21167  0.29927  1.0000
  C   C8        1.0  0.44336  0.20933  0.31549  1.0000
  C   C9        1.0  0.45811  0.19598  0.30005  1.0000
  H   H4        1.0  0.42106  0.17767  0.22808  1.0000
  H   H5        1.0  0.39507  0.20148  0.25518  1.0000
  H   H6        1.0  0.44937  0.21772  0.33995  1.0000
  N   N1        1.0  0.36500  0.08883  0.26318  1.0000
  C   C10       1.0  0.42426  0.21715  0.01342  1.0000
  C   C11       1.0  0.40951  0.20614  0.04325  1.0000
  C   C12       1.0  0.41717  0.18923  0.06434  1.0000
  C   C13       1.0  0.43969  0.18278  0.05591  1.0000
  C   C14       1.0  0.45461  0.19402  0.02618  1.0000
  N   N2        1.0  0.48899  0.31375  0.02879  1.0000
  H   H7        1.0  0.39179  0.21050  0.05003  1.0000
  H   H8        1.0  0.40535  0.18081  0.08694  1.0000
  C   C15       1.0  0.44309  0.00311  0.22113  1.0000
  H   H9        1.0  0.34817  0.02182  0.34785  1.0000
  C   C16       1.0  0.49086  0.28502  0.32503  1.0000
  C   C17       1.0  0.36662  0.00709  0.22030  1.0000
  H   H10       1.0  0.36464  0.11397  0.22132  1.0000
  H   H11       1.0  0.40261  0.03684  0.25181  1.0000
  H   H12       1.0  0.34496  0.30324  0.33072  1.0000
  H   H13       1.0  0.46627  0.27118  0.32121  1.0000
  H   H14       1.0  0.48300  0.28520  0.07002  1.0000
  H   H15       1.0  0.48674  0.22760  0.19766  1.0000
  H   H16       1.0  0.37689  0.11490  0.30760  1.0000
  H   H17       1.0  0.24402  0.28547  0.13510  1.0000
  C   C18       1.0  0.47102  0.29457  0.05617  1.0000
  H   H18       1.0  0.47201  0.18922  0.01922  1.0000
  C   C19       1.0  0.31136  0.00472  0.27609  1.0000
  Fe  Fe7       1.0  0.46871  0.31412  0.39468  1.0000
  C   C20       1.0  0.28224  0.26682  0.18775  1.0000
  H   H19       1.0  0.39830  0.08079  0.24202  1.0000
  H   H20       1.0  0.35505  0.07628  0.21284  1.0000
  C   C21       1.0  0.38347  0.01460  0.24895  1.0000
  S   S11       1.0  0.43806  0.31711  0.43086  1.0000
  H   H21       1.0  0.25127  0.24367  0.14908  1.0000
  H   H22       1.0  0.49367  0.31855  0.45303  1.0000
  C   C22       1.0  0.35631  0.05367  0.30962  1.0000
  C   C23       1.0  0.36395  0.11134  0.28490  1.0000
  H   H23       1.0  0.31239  0.29534  0.22487  1.0000
  C   C24       1.0  0.39667  0.09724  0.25817  1.0000
  H   H24       1.0  0.40837  0.09822  0.28115  1.0000
  C   C25       1.0  0.35260  0.09073  0.23131  1.0000
  H   H25       1.0  0.40968  0.11978  0.24680  1.0000
  C   C26       1.0  0.44709  0.21110  0.00517  1.0000
  H   H26       1.0  0.32855  0.08407  0.23320  1.0000
  C   C27       1.0  0.34875  0.05854  0.27798  1.0000
  C   C28       1.0  0.34163  0.02521  0.32397  1.0000
  C   C29       1.0  0.32597  0.03303  0.26143  1.0000
  C   C30       1.0  0.25919  0.28884  0.15478  1.0000
  H   H27       1.0  0.46750  0.29073  0.24231  1.0000
  H   H28       1.0  0.28514  0.24788  0.19382  1.0000
  H   H29       1.0  0.37411  0.07175  0.32321  1.0000
  C   C31       1.0  0.47598  0.25985  0.21744  1.0000
  H   H30       1.0  0.43563  0.20974  0.46823  1.0000
  H   H31       1.0  0.46798  0.31118  0.28955  1.0000
  H   H32       1.0  0.31966  0.03406  0.23672  1.0000
  C   C32       1.0  0.46940  0.32149  0.00954  1.0000
  C   C33       1.0  0.46283  0.00747  0.24634  1.0000
  C   C34       1.0  0.49285  0.32412  0.29154  1.0000
  H   H33       1.0  0.47581  0.19458  0.31262  1.0000
  H   H34       1.0  0.48397  0.02841  0.24773  1.0000
  H   H35       1.0  0.45983  0.25617  0.19861  1.0000
  H   H36       1.0  0.38782  0.99999  0.29674  1.0000
  C   C35       1.0  0.26315  0.26451  0.16258  1.0000
  H   H37       1.0  0.47272  0.28100  0.46877  1.0000
  H   H38       1.0  0.44975  0.27483  0.04755  1.0000
  H   H39       1.0  0.31516  0.31349  0.29046  1.0000
  C   C36       1.0  0.27446  0.31638  0.17218  1.0000
  Fe  Fe8       1.0  0.48199  0.10984  0.16108  1.0000
  C   C37       1.0  0.29391  0.31796  0.19748  1.0000
  C   C38       1.0  0.31913  0.00081  0.30726  1.0000
  H   H40       1.0  0.47763  0.27693  0.99590  1.0000
  C   C39       1.0  0.49116  0.24378  0.21677  1.0000
  S   S12       1.0  0.48801  0.15624  0.15957  1.0000
  H   H41       1.0  0.22622  0.31867  0.14468  1.0000
  H   H42       1.0  0.46502  0.30741  0.07330  1.0000
  H   H43       1.0  0.49446  0.29878  0.34705  1.0000
  H   H44       1.0  0.44877  0.02063  0.20321  1.0000
  S   S13       1.0  0.41340  0.23855  0.98794  1.0000
  C   C40       1.0  0.34872  0.32581  0.32787  1.0000
  Fe  Fe9       1.0  0.43610  0.14832  0.69174  1.0000
  S   S14       1.0  0.40046  0.11930  0.65556  1.0000
  S   S15       1.0  0.41644  0.16605  0.72945  1.0000
  Fe  Fe10      1.0  0.48036  0.13134  0.66241  1.0000
  S   S16       1.0  0.44698  0.10113  0.62554  1.0000
  C   C41       1.0  0.34789  0.09191  0.57040  1.0000
  Fe  Fe11      1.0  0.43712  0.13922  0.61821  1.0000
  S   S17       1.0  0.43514  0.15329  0.56536  1.0000
  Fe  Fe12      1.0  0.41354  0.08428  0.66660  1.0000
  S   S18       1.0  0.37661  0.03482  0.67454  1.0000
  S   S19       1.0  0.47227  0.17026  0.65377  1.0000
  S   S20       1.0  0.44756  0.11249  0.70393  1.0000
  Fe  Fe13      1.0  0.42891  0.26652  0.94060  1.0000
  H   H45       1.0  0.36605  0.10459  0.52150  1.0000
  C   C42       1.0  0.34252  0.08031  0.77910  1.0000
  Fe  Fe14      1.0  0.40876  0.29565  0.88566  1.0000
  H   H46       1.0  0.31752  0.04022  0.60784  1.0000
  Fe  Fe15      1.0  0.45850  0.28090  0.87392  1.0000
  H   H47       1.0  0.38580  0.12683  0.88650  1.0000
  S   S21       1.0  0.41064  0.25248  0.88962  1.0000
  H   H48       1.0  0.43061  0.28350  0.73395  1.0000
  H   H49       1.0  0.44505  0.17371  0.49923  1.0000
  C   C43       1.0  0.43545  0.19436  0.75900  1.0000
  C   C44       1.0  0.41862  0.19819  0.78335  1.0000
  C   C45       1.0  0.43267  0.22067  0.80711  1.0000
  C   C46       1.0  0.46367  0.23990  0.80641  1.0000
  H   H50       1.0  0.39063  0.10326  0.74180  1.0000
  C   C47       1.0  0.46652  0.21316  0.75868  1.0000
  H   H51       1.0  0.39461  0.18347  0.78403  1.0000
  H   H52       1.0  0.41954  0.22309  0.82599  1.0000
  H   H53       1.0  0.28835  0.29946  0.80143  1.0000
  H   H54       1.0  0.35614  0.08631  0.84833  1.0000
  C   C48       1.0  0.41754  0.22151  0.50882  1.0000
  H   H55       1.0  0.47973  0.21043  0.74011  1.0000
  C   C49       1.0  0.43550  0.18559  0.51143  1.0000
  C   C50       1.0  0.42870  0.18035  0.54468  1.0000
  C   C51       1.0  0.41626  0.19594  0.55988  1.0000
  C   C52       1.0  0.41060  0.21617  0.54205  1.0000
  C   C53       1.0  0.33638  0.10134  0.59632  1.0000
  C   C54       1.0  0.35607  0.10959  0.54178  1.0000
  H   H56       1.0  0.41061  0.19210  0.58529  1.0000
  H   H57       1.0  0.40075  0.22782  0.55412  1.0000
  C   C55       1.0  0.43459  0.15066  0.82379  1.0000
  H   H58       1.0  0.41810  0.24908  0.75506  1.0000
  C   C56       1.0  0.33517  0.04392  0.54622  1.0000
  H   H59       1.0  0.40742  0.03793  0.73629  1.0000
  H   H60       1.0  0.32490  0.13391  0.61366  1.0000
  H   H61       1.0  0.38892  0.05652  0.57240  1.0000
  H   H62       1.0  0.42780  0.27637  0.80918  1.0000
  H   H63       1.0  0.99750  0.30793  0.98074  1.0000
  N   N3        1.0  0.39796  0.27485  0.77134  1.0000
  C   C57       1.0  0.38428  0.07532  0.56908  1.0000
  H   H64       1.0  0.33687  0.02317  0.54794  1.0000
  C   C58       1.0  0.48359  0.27903  0.55174  1.0000
  N   N4        1.0  0.35206  0.06541  0.57258  1.0000
  S   S22       1.0  0.36857  0.29504  0.85989  1.0000
  C   C59       1.0  0.40917  0.32279  0.74306  1.0000
  H   H65       1.0  0.31099  0.27572  0.83390  1.0000
  C   C60       1.0  0.43020  0.20610  0.49369  1.0000
  S   S23       1.0  0.45588  0.32303  0.86759  1.0000
  H   H66       1.0  0.34928  0.03100  0.78231  1.0000
  S   S24       1.0  0.48218  0.26942  0.83485  1.0000
  C   C61       1.0  0.32444  0.29919  0.82739  1.0000
  C   C62       1.0  0.31149  0.31277  0.80894  1.0000
  C   C63       1.0  0.42294  0.15038  0.85423  1.0000
  H   H67       1.0  0.41333  0.30153  0.81444  1.0000
  C   C64       1.0  0.36909  0.00880  0.70723  1.0000
  S   S25       1.0  0.47712  0.29271  0.92477  1.0000
  C   C65       1.0  0.38732  0.01621  0.73482  1.0000
  C   C66       1.0  0.48310  0.32472  0.51266  1.0000
  H   H68       1.0  0.34366  0.05354  0.52185  1.0000
  H   H69       1.0  0.34530  0.02915  0.60471  1.0000
  H   H70       1.0  0.39384  0.25241  0.72609  1.0000
  H   H71       1.0  0.45635  0.16924  0.81705  1.0000
  C   C67       1.0  0.41803  0.12770  0.80154  1.0000
  C   C68       1.0  0.48052  0.23591  0.78222  1.0000
  H   H72       1.0  0.40629  0.08127  0.75792  1.0000
  C   C69       1.0  0.34179  0.04887  0.60374  1.0000
  H   H73       1.0  0.36346  0.25409  0.80753  1.0000
  C   C70       1.0  0.35447  0.31529  0.83723  1.0000
  C   C71       1.0  0.38530  0.08207  0.75456  1.0000
  C   C72       1.0  0.37800  0.10382  0.84070  1.0000
  C   C73       1.0  0.48236  0.25586  0.57071  1.0000
  H   H74       1.0  0.31102  0.03713  0.54710  1.0000
  C   C74       1.0  0.34923  0.30788  0.74431  1.0000
  C   C75       1.0  0.37350  0.24776  0.78727  1.0000
  H   H75       1.0  0.35465  0.06321  0.62464  1.0000
  C   C76       1.0  0.39476  0.12692  0.86274  1.0000
  H   H76       1.0  0.38178  0.23338  0.79807  1.0000
  H   H77       1.0  0.42829  0.12986  0.77819  1.0000
  H   H78       1.0  0.33012  0.08979  0.61927  1.0000
  H   H79       1.0  0.35559  0.23335  0.76980  1.0000
  N   N5        1.0  0.37030  0.07940  0.78600  1.0000
  H   H80       1.0  0.32828  0.06311  0.76080  1.0000
  H   H81       1.0  0.34810  0.04417  0.82184  1.0000
  C   C77       1.0  0.36222  0.04961  0.79985  1.0000
  H   H82       1.0  0.37091  0.06347  0.73765  1.0000
  H   H83       1.0  0.39764  0.09279  0.58736  1.0000
  S   S26       1.0  0.42221  0.30687  0.93799  1.0000
  H   H84       1.0  0.32849  0.07594  0.80102  1.0000
  H   H85       1.0  0.34797  0.10278  0.76946  1.0000
  C   C78       1.0  0.38803  0.29503  0.75734  1.0000
  C   C79       1.0  0.38903  0.10356  0.80929  1.0000
  H   H86       1.0  0.43263  0.32954  0.74194  1.0000
  C   C80       1.0  0.41065  0.26456  0.74547  1.0000
  H   H87       1.0  0.38264  0.04859  0.80654  1.0000
  H   H88       1.0  0.43573  0.16855  0.87113  1.0000
  H   H89       1.0  0.46768  0.24767  0.59155  1.0000
  C   C81       1.0  0.34133  0.14346  0.56494  1.0000
  C   C82       1.0  0.33323  0.12678  0.59346  1.0000
  C   C83       1.0  0.42139  0.29132  0.79613  1.0000
  H   H90       1.0  0.32602  0.30245  0.74509  1.0000
  H   H91       1.0  0.46930  0.28773  0.55908  1.0000
  H   H92       1.0  0.39340  0.08559  0.54508  1.0000
  H   H93       1.0  0.44248  0.30967  0.78576  1.0000
  H   H94       1.0  0.33994  0.26781  0.76818  1.0000
  H   H95       1.0  0.45866  0.21914  0.98239  1.0000
  C   C84       1.0  0.35763  0.28806  0.75743  1.0000
  H   H96       1.0  0.45922  0.30634  0.51223  1.0000
  C   C85       1.0  0.35266  0.13484  0.53914  1.0000
  H   H97       1.0  0.33947  0.16353  0.56297  1.0000
  H   H98       1.0  0.39368  0.00179  0.78195  1.0000
  H   H99       1.0  0.99747  0.32194  0.86667  1.0000
  H   H100      1.0  0.35989  0.14850  0.51737  1.0000
  H   H101      1.0  0.24820  0.33095  0.86380  1.0000
  S   S27       1.0  0.40961  0.24731  0.48759  1.0000
  Fe  Fe16      1.0  0.34542  0.47462  0.23618  1.0000
  S   S28       1.0  0.32788  0.43076  0.20982  1.0000
  S   S29       1.0  0.39458  0.51103  0.23501  1.0000
  Fe  Fe17      1.0  0.28687  0.45176  0.27339  1.0000
  S   S30       1.0  0.26529  0.40622  0.24965  1.0000
  S   S31       1.0  0.26770  0.46962  0.31123  1.0000
  Fe  Fe18      1.0  0.30995  0.40852  0.25801  1.0000
  S   S32       1.0  0.31211  0.36645  0.27348  1.0000
  Fe  Fe19      1.0  0.28485  0.43211  0.20321  1.0000
  S   S33       1.0  0.26448  0.42018  0.15167  1.0000
  S   S34       1.0  0.32980  0.45226  0.28477  1.0000
  S   S35       1.0  0.30410  0.47773  0.22669  1.0000
  H   H102      1.0  0.47492  0.62562  0.24259  1.0000
  C   C86       1.0  0.27244  0.40160  0.39817  1.0000
  H   H103      1.0  0.46189  0.55480  0.10689  1.0000
  S   S36       1.0  0.46384  0.61663  0.13331  1.0000
  Fe  Fe20      1.0  0.13999  0.41660  0.02168  1.0000
  C   C87       1.0  0.36957  0.34879  0.34792  1.0000
  S   S37       1.0  0.15296  0.41540  0.07516  1.0000
  C   C88       1.0  0.32203  0.42159  0.37481  1.0000
  S   S38       1.0  0.12327  0.44095  0.44231  1.0000
  H   H104      1.0  0.27681  0.35903  0.21427  1.0000
  Fe  Fe21      1.0  0.14825  0.41636  0.45232  1.0000
  S   S39       1.0  0.16416  0.39634  0.41313  1.0000
  C   C89       1.0  0.25367  0.37882  0.42048  1.0000
  C   C90       1.0  0.47341  0.64333  0.25660  1.0000
  N   N6        1.0  0.08352  0.37320  0.36535  1.0000
  S   S40       1.0  0.10791  0.43406  0.01369  1.0000
  Fe  Fe22      1.0  0.11630  0.62676  0.06333  1.0000
  S   S41       1.0  0.10003  0.57664  0.05959  1.0000
  C   C91       1.0  0.01293  0.63468  0.13247  1.0000
  H   H105      1.0  0.15713  0.59304  0.10463  1.0000
  C   C92       1.0  0.01961  0.62298  0.15988  1.0000
  H   H106      1.0  0.14747  0.49365  0.34944  1.0000
  S   S42       1.0  0.38890  0.34201  0.38019  1.0000
  C   C93       1.0  0.11706  0.51452  0.01982  1.0000
  C   C94       1.0  0.10532  0.52897  0.03868  1.0000
  C   C95       1.0  0.11566  0.55981  0.03495  1.0000
  C   C96       1.0  0.13777  0.57609  0.01191  1.0000
  H   H107      1.0  0.49079  0.50978  0.17533  1.0000
  C   C97       1.0  0.47397  0.51244  0.16256  1.0000
  H   H108      1.0  0.08827  0.51621  0.05648  1.0000
  H   H109      1.0  0.25527  0.36943  0.18935  1.0000
  H   H110      1.0  0.46115  0.33403  0.02415  1.0000
  C   C98       1.0  0.01010  0.36623  0.43346  1.0000
  H   H111      1.0  0.24682  0.35750  0.13403  1.0000
  C   C99       1.0  0.10101  0.40606  0.35971  1.0000
  H   H112      1.0  0.22304  0.41467  0.46095  1.0000
  C   C100      1.0  0.23729  0.44874  0.33771  1.0000
  C   C101      1.0  0.22110  0.41734  0.33728  1.0000
  C   C102      1.0  0.19853  0.40162  0.36038  1.0000
  C   C103      1.0  0.19165  0.41714  0.38371  1.0000
  C   C104      1.0  0.20699  0.44854  0.38332  1.0000
  C   C105      1.0  0.22984  0.46424  0.36050  1.0000
  H   H113      1.0  0.22613  0.40520  0.31937  1.0000
  H   H114      1.0  0.18659  0.37731  0.36043  1.0000
  H   H115      1.0  0.20173  0.46070  0.40105  1.0000
  H   H116      1.0  0.24216  0.48856  0.36084  1.0000
  C   C106      1.0  0.23418  0.42083  0.13080  1.0000
  C   C107      1.0  0.23188  0.41706  0.09689  1.0000
  C   C108      1.0  0.20774  0.41608  0.07937  1.0000
  C   C109      1.0  0.18511  0.41833  0.09557  1.0000
  C   C110      1.0  0.18753  0.42233  0.12944  1.0000
  C   C111      1.0  0.21191  0.42378  0.14690  1.0000
  H   H117      1.0  0.24885  0.41472  0.08402  1.0000
  H   H118      1.0  0.20632  0.41289  0.05342  1.0000
  H   H119      1.0  0.17020  0.42398  0.14239  1.0000
  H   H120      1.0  0.21310  0.42654  0.17291  1.0000
  C   C112      1.0  0.41271  0.54088  0.20706  1.0000
  C   C113      1.0  0.39750  0.54525  0.18144  1.0000
  C   C114      1.0  0.41334  0.56877  0.15916  1.0000
  C   C115      1.0  0.44439  0.58808  0.16240  1.0000
  C   C116      1.0  0.45935  0.58413  0.18850  1.0000
  C   C117      1.0  0.44362  0.56060  0.21061  1.0000
  H   H121      1.0  0.37368  0.53026  0.17852  1.0000
  H   H122      1.0  0.40155  0.57176  0.13909  1.0000
  C   C118      1.0  0.00737  0.33849  0.42526  1.0000
  H   H123      1.0  0.45550  0.55737  0.23041  1.0000
  C   C119      1.0  0.33574  0.36079  0.30123  1.0000
  C   C120      1.0  0.35738  0.38400  0.32038  1.0000
  C   C121      1.0  0.37367  0.37791  0.34392  1.0000
  C   C122      1.0  0.44399  0.49197  0.16954  1.0000
  H   H124      1.0  0.04476  0.58016  0.04882  1.0000
  C   C123      1.0  0.27258  0.42929  0.39988  1.0000
  H   H125      1.0  0.36144  0.40662  0.31725  1.0000
  H   H126      1.0  0.41219  0.63920  0.22045  1.0000
  H   H127      1.0  0.05862  0.57726  0.10363  1.0000
  C   C124      1.0  0.16220  0.56845  0.42779  1.0000
  H   H128      1.0  0.00660  0.56610  0.03741  1.0000
  C   C125      1.0  0.08117  0.36753  0.40062  1.0000
  H   H129      1.0  0.33141  0.42363  0.39958  1.0000
  H   H130      1.0  0.04082  0.59770  0.11668  1.0000
  H   H131      1.0  0.46251  0.63302  0.27997  1.0000
  C   C126      1.0  0.23627  0.38371  0.44295  1.0000
  H   H132      1.0  0.10882  0.49083  0.02316  1.0000
  N   N7        1.0  0.29036  0.39697  0.37325  1.0000
  C   C127      1.0  0.05285  0.36047  0.35169  1.0000
  H   H133      1.0  0.16978  0.46248  0.33432  1.0000
  C   C128      1.0  0.09728  0.35653  0.35075  1.0000
  H   H134      1.0  0.16439  0.54884  0.42317  1.0000
  C   C129      1.0  0.18365  0.62247  0.42895  1.0000
  C   C130      1.0  0.42582  0.63064  0.23246  1.0000
  C   C131      1.0  0.15754  0.61975  0.44369  1.0000
  N   N8        1.0  0.15650  0.64698  0.45339  1.0000
  C   C132      1.0  0.13064  0.42065  0.34714  1.0000
  H   H135      1.0  0.29913  0.36641  0.40078  1.0000
  H   H136      1.0  0.14211  0.40862  0.34086  1.0000
  H   H137      1.0  0.09622  0.46967  0.37209  1.0000
  C   C133      1.0  0.12815  0.64023  0.46970  1.0000
  C   C134      1.0  0.16562  0.57829  0.09777  1.0000
  C   C135      1.0  0.10560  0.45591  0.36448  1.0000
  C   C136      1.0  0.18538  0.58594  0.07193  1.0000
  C   C137      1.0  0.14951  0.56157  0.99297  1.0000
  H   H138      1.0  0.06829  0.34313  0.40633  1.0000
  H   H139      1.0  0.08302  0.33182  0.35415  1.0000
  N   N9        1.0  0.27078  0.34260  0.16496  1.0000
  H   H140      1.0  0.10084  0.36089  0.32430  1.0000
  C   C138      1.0  0.13449  0.46944  0.35191  1.0000
  S   S43       1.0  0.03899  0.39277  0.45981  1.0000
  H   H141      1.0  0.22155  0.36591  0.45930  1.0000
  C   C139      1.0  0.03702  0.57477  0.11204  1.0000
  H   H142      1.0  0.42534  0.61294  0.21644  1.0000
  H   H143      1.0  0.28515  0.44721  0.38280  1.0000
  H   H144      1.0  0.00333  0.59898  0.20507  1.0000
  H   H145      1.0  0.11778  0.54253  0.44678  1.0000
  H   H146      1.0  0.43830  0.47473  0.18775  1.0000
  C   C140      1.0  0.08912  0.42473  0.36858  1.0000
  C   C141      1.0  0.48203  0.53630  0.14021  1.0000
  H   H147      1.0  0.31709  0.37551  0.17474  1.0000
  H   H148      1.0  0.14585  0.59984  0.00872  1.0000
  H   H149      1.0  0.25167  0.35688  0.42081  1.0000
  H   H150      1.0  0.11289  0.58551  0.46088  1.0000
  C   C142      1.0  0.13590  0.56494  0.44117  1.0000
  H   H151      1.0  0.48306  0.59900  0.19151  1.0000
  C   C143      1.0  0.26007  0.35094  0.19433  1.0000
  S   S44       1.0  0.03988  0.65488  0.10116  1.0000
  S   S45       1.0  0.11188  0.38143  0.48405  1.0000
  C   C144      1.0  0.13929  0.53075  0.99689  1.0000
  N   N10       1.0  0.01296  0.55906  0.08771  1.0000
  H   H152      1.0  0.20644  0.59972  0.41120  1.0000
  C   C145      1.0  0.23720  0.41125  0.44411  1.0000
  S   S46       1.0  0.10737  0.64010  0.11198  1.0000
  H   H153      1.0  0.02293  0.33235  0.43534  1.0000
  H   H154      1.0  0.30914  0.36283  0.13359  1.0000
  H   H155      1.0  0.03101  0.53185  0.07000  1.0000
  N   N11       1.0  0.19583  0.51723  0.06795  1.0000
  C   C146      1.0  0.21705  0.52799  0.04029  1.0000
  C   C147      1.0  0.21055  0.51078  0.09526  1.0000
  C   C148      1.0  0.16922  0.48876  0.05783  1.0000
  C   C149      1.0  0.18627  0.53878  0.07820  1.0000
  C   C150      1.0  0.19552  0.56652  0.06202  1.0000
  C   C151      1.0  0.16625  0.53180  0.10458  1.0000
  C   C152      1.0  0.14699  0.45186  0.34333  1.0000
  C   C153      1.0  0.15608  0.55129  0.11408  1.0000
  H   H156      1.0  0.41048  0.51827  0.11895  1.0000
  H   H157      1.0  0.23791  0.54928  0.04626  1.0000
  H   H158      1.0  0.22387  0.51130  0.03335  1.0000
  H   H159      1.0  0.20663  0.53144  0.01821  1.0000
  H   H160      1.0  0.23004  0.53178  0.10461  1.0000
  H   H161      1.0  0.21866  0.49517  0.08790  1.0000
  H   H162      1.0  0.19505  0.49945  0.11579  1.0000
  H   H163      1.0  0.15696  0.49275  0.03810  1.0000
  H   H164      1.0  0.17563  0.47242  0.04876  1.0000
  H   H165      1.0  0.15323  0.47724  0.07794  1.0000
  H   H166      1.0  0.21000  0.57350  0.04115  1.0000
  H   H167      1.0  0.15785  0.51089  0.11764  1.0000
  H   H168      1.0  0.03922  0.36847  0.36458  1.0000
  H   H169      1.0  0.14034  0.54525  0.13386  1.0000
  H   H170      1.0  0.27965  0.41910  0.33531  1.0000
  H   H171      1.0  0.04183  0.62617  0.16291  1.0000
  H   H172      1.0  0.30638  0.33817  0.21173  1.0000
  H   H173      1.0  0.26752  0.34840  0.37315  1.0000
  H   H174      1.0  0.38974  0.39595  0.35910  1.0000
  H   H175      1.0  0.25571  0.45526  0.42337  1.0000
  C   C154      1.0  0.18593  0.59715  0.42140  1.0000
  H   H176      1.0  0.03209  0.56284  0.13556  1.0000
  H   H177      1.0  0.10843  0.62743  0.45361  1.0000
  H   H178      1.0  0.41415  0.61885  0.25498  1.0000
  H   H179      1.0  0.11915  0.36269  0.36242  1.0000
  S   S47       1.0  0.09344  0.64779  0.03669  1.0000
  H   H180      1.0  0.07018  0.37853  0.41318  1.0000
  C   C155      1.0  0.25557  0.43408  0.42286  1.0000
  H   H181      1.0  0.47113  0.64701  0.19243  1.0000
  C   C156      1.0  0.29029  0.36812  0.37673  1.0000
  C   C157      1.0  0.02293  0.57710  0.05746  1.0000
  H   H182      1.0  0.10366  0.37667  0.41179  1.0000
  H   H183      1.0  0.25412  0.37954  0.33897  1.0000
  C   C158      1.0  0.99767  0.60766  0.18401  1.0000
  C   C159      1.0  0.27813  0.39716  0.34083  1.0000
  H   H184      1.0  0.30465  0.36575  0.35818  1.0000
  H   H185      1.0  0.05363  0.36641  0.32566  1.0000
  C   C160      1.0  0.45819  0.53740  0.12406  1.0000
  C   C161      1.0  0.13348  0.59008  0.44925  1.0000
  H   H186      1.0  0.19211  0.60666  0.05883  1.0000
  H   H187      1.0  0.33644  0.41773  0.35778  1.0000
  H   H188      1.0  0.39800  0.47881  0.16005  1.0000
  N   N12       1.0  0.45688  0.65540  0.23843  1.0000
  H   H189      1.0  0.29809  0.38855  0.14911  1.0000
  C   C162      1.0  0.42830  0.51642  0.13077  1.0000
  H   H190      1.0  0.06745  0.41553  0.38004  1.0000
  H   H191      1.0  0.32478  0.44376  0.36790  1.0000
  C   C163      1.0  0.30003  0.36842  0.15520  1.0000
  H   H192      1.0  0.29041  0.39288  0.32133  1.0000
  Fe  Fe23      1.0  0.08772  0.40737  0.47558  1.0000
  H   H193      1.0  0.20279  0.64425  0.42386  1.0000
  C   C164      1.0  0.42120  0.49408  0.15382  1.0000
  C   C165      1.0  0.01004  0.52938  0.08075  1.0000
  H   H194      1.0  0.00563  0.51560  0.10296  1.0000
  H   H195      1.0  0.02647  0.60015  0.06126  1.0000
  H   H196      1.0  0.02304  0.66237  0.26574  1.0000
  H   H197      1.0  0.14210  0.65257  0.40629  1.0000
  C   C166      1.0  0.24904  0.33724  0.13853  1.0000
  Fe  Fe24      1.0  0.08654  0.66296  0.08564  1.0000
  H   H198      1.0  0.43014  0.65046  0.29731  1.0000
  H   H199      1.0  0.03982  0.33553  0.35381  1.0000
  H   H200      1.0  0.12803  0.66112  0.47667  1.0000
  H   H201      1.0  0.23915  0.33149  0.20375  1.0000
  H   H202      1.0  0.25629  0.33217  0.11519  1.0000
  C   C167      1.0  0.33176  0.33173  0.30502  1.0000
  H   H203      1.0  0.48119  0.33505  0.98780  1.0000
  Fe  Fe25      1.0  0.14569  0.46773  0.48711  1.0000
  Fe  Fe26      1.0  0.34598  0.46532  0.73465  1.0000
  S   S48       1.0  0.32703  0.42185  0.70696  1.0000
  S   S49       1.0  0.39552  0.49936  0.72841  1.0000
  Fe  Fe27      1.0  0.28729  0.44352  0.77184  1.0000
  S   S50       1.0  0.26463  0.39868  0.74662  1.0000
  S   S51       1.0  0.26728  0.46239  0.80747  1.0000
  Fe  Fe28      1.0  0.30872  0.39931  0.75511  1.0000
  S   S52       1.0  0.30913  0.35740  0.77516  1.0000
  Fe  Fe29      1.0  0.28511  0.42534  0.70086  1.0000
  S   S53       1.0  0.26699  0.42520  0.64948  1.0000
  S   S54       1.0  0.32960  0.44262  0.78294  1.0000
  S   S55       1.0  0.30571  0.47024  0.72602  1.0000
  H   H204      1.0  0.38128  0.53801  0.58004  1.0000
  C   C168      1.0  0.26665  0.38134  0.83155  1.0000
  C   C169      1.0  0.07176  0.50687  0.93610  1.0000
  S   S56       1.0  0.45853  0.62573  0.65602  1.0000
  Fe  Fe30      1.0  0.13710  0.41325  0.52538  1.0000
  H   H205      1.0  0.31223  0.46828  0.59733  1.0000
  S   S57       1.0  0.14587  0.39885  0.57543  1.0000
  Fe  Fe31      1.0  0.08573  0.40000  0.97361  1.0000
  S   S58       1.0  0.11686  0.43092  0.93543  1.0000
  S   S59       1.0  0.03458  0.38008  0.96870  1.0000
  Fe  Fe32      1.0  0.14654  0.41200  0.94855  1.0000
  S   S60       1.0  0.16399  0.39222  0.91089  1.0000
  C   C170      1.0  0.40055  0.34264  0.73050  1.0000
  H   H206      1.0  0.23503  0.50741  0.73250  1.0000
  H   H207      1.0  0.23829  0.44072  0.70500  1.0000
  S   S61       1.0  0.10921  0.43599  0.52030  1.0000
  Fe  Fe33      1.0  0.11640  0.63069  0.56207  1.0000
  S   S62       1.0  0.09728  0.58247  0.54493  1.0000
  C   C171      1.0  0.01497  0.63480  0.64132  1.0000
  C   C172      1.0  0.00331  0.58454  0.55905  1.0000
  C   C173      1.0  0.02006  0.61820  0.66491  1.0000
  H   H208      1.0  0.32223  0.47619  0.65563  1.0000
  C   C174      1.0  0.01837  0.47087  0.89931  1.0000
  C   C175      1.0  0.16367  0.56655  0.51539  1.0000
  C   C176      1.0  0.14872  0.58113  0.52764  1.0000
  C   C177      1.0  0.11769  0.56499  0.53203  1.0000
  C   C178      1.0  0.26095  0.42881  0.91413  1.0000
  H   H209      1.0  0.02325  0.54885  0.54023  1.0000
  S   S63       1.0  0.17339  0.44804  0.98526  1.0000
  H   H210      1.0  0.16115  0.60483  0.53326  1.0000
  H   H211      1.0  0.15255  0.44050  0.71667  1.0000
  C   C179      1.0  0.34628  0.49210  0.65107  1.0000
  C   C180      1.0  0.00891  0.36277  0.93577  1.0000
  C   C181      1.0  0.49256  0.65138  0.74917  1.0000
  C   C182      1.0  0.23213  0.37818  0.93423  1.0000
  H   H212      1.0  0.15905  0.45706  0.61516  1.0000
  C   C183      1.0  0.23727  0.44256  0.83478  1.0000
  C   C184      1.0  0.23164  0.45873  0.85848  1.0000
  C   C185      1.0  0.20870  0.44375  0.88145  1.0000
  C   C186      1.0  0.19133  0.41239  0.88098  1.0000
  C   C187      1.0  0.19644  0.39632  0.85668  1.0000
  C   C188      1.0  0.21900  0.41135  0.83338  1.0000
  H   H213      1.0  0.24543  0.48294  0.85948  1.0000
  H   H214      1.0  0.20495  0.45636  0.89998  1.0000
  H   H215      1.0  0.18285  0.37208  0.85597  1.0000
  H   H216      1.0  0.22221  0.39881  0.81441  1.0000
  C   C189      1.0  0.23282  0.41740  0.62954  1.0000
  C   C190      1.0  0.20463  0.40074  0.64400  1.0000
  C   C191      1.0  0.17842  0.39510  0.62701  1.0000
  C   C192      1.0  0.17982  0.40604  0.59533  1.0000
  C   C193      1.0  0.20801  0.42259  0.58085  1.0000
  C   C194      1.0  0.23419  0.42808  0.59777  1.0000
  H   H217      1.0  0.20287  0.39167  0.66799  1.0000
  H   H218      1.0  0.15682  0.38219  0.63851  1.0000
  H   H219      1.0  0.20962  0.43115  0.55657  1.0000
  H   H220      1.0  0.25567  0.44075  0.58603  1.0000
  C   C195      1.0  0.41268  0.53569  0.71079  1.0000
  C   C196      1.0  0.39610  0.54875  0.69980  1.0000
  C   C197      1.0  0.41045  0.57643  0.68324  1.0000
  C   C198      1.0  0.44157  0.59162  0.67817  1.0000
  C   C199      1.0  0.45832  0.57927  0.69056  1.0000
  C   C200      1.0  0.44391  0.55142  0.70672  1.0000
  H   H221      1.0  0.37223  0.53744  0.70391  1.0000
  H   H222      1.0  0.39739  0.58605  0.67414  1.0000
  C   C201      1.0  0.11691  0.51948  0.51306  1.0000
  H   H223      1.0  0.45697  0.54166  0.71543  1.0000
  C   C202      1.0  0.32802  0.34307  0.79981  1.0000
  C   C203      1.0  0.35814  0.35977  0.80995  1.0000
  C   C204      1.0  0.37138  0.34587  0.82842  1.0000
  H   H224      1.0  0.25130  0.49039  0.75715  1.0000
  H   H225      1.0  0.28342  0.34090  0.84660  1.0000
  N   N13       1.0  0.35593  0.48638  0.61952  1.0000
  H   H226      1.0  0.37139  0.38314  0.80309  1.0000
  S   S64       1.0  0.09182  0.65288  0.54173  1.0000
  S   S65       1.0  0.17452  0.44637  0.49391  1.0000
  H   H227      1.0  0.25835  0.49424  0.71507  1.0000
  H   H228      1.0  0.01234  0.52460  0.57431  1.0000
  H   H229      1.0  0.09337  0.49618  0.88119  1.0000
  H   H230      1.0  0.23395  0.43516  0.74792  1.0000
  H   H231      1.0  0.10246  0.66014  0.69662  1.0000
  H   H232      1.0  0.36122  0.45128  0.59762  1.0000
  H   H233      1.0  0.32752  0.43800  0.62115  1.0000
  C   C205      1.0  0.22259  0.43622  0.72544  1.0000
  C   C206      1.0  0.35169  0.45554  0.61978  1.0000
  H   H234      1.0  0.34970  0.51525  0.65218  1.0000
  H   H235      1.0  0.17498  0.42907  0.75663  1.0000
  C   C207      1.0  0.24544  0.36840  0.91144  1.0000
  H   H236      1.0  0.27471  0.37348  0.81095  1.0000
  C   C208      1.0  0.33572  0.48700  0.59416  1.0000
  H   H237      1.0  0.20700  0.45372  0.77979  1.0000
  H   H238      1.0  0.36209  0.45128  0.64121  1.0000
  H   H239      1.0  0.20285  0.41350  0.72132  1.0000
  C   C209      1.0  0.09264  0.48348  0.90333  1.0000
  H   H240      1.0  0.23801  0.47579  0.66711  1.0000
  H   H241      1.0  0.18616  0.46855  0.76012  1.0000
  H   H242      1.0  0.33432  0.50790  0.59529  1.0000
  H   H243      1.0  0.04651  0.45358  0.96816  1.0000
  C   C210      1.0  0.39698  0.53454  0.59402  1.0000
  N   N14       1.0  0.21348  0.45929  0.72797  1.0000
  H   H244      1.0  0.32289  0.39808  0.88512  1.0000
  H   H245      1.0  0.00490  0.60400  0.57274  1.0000
  H   H246      1.0  0.43356  0.57657  0.57670  1.0000
  C   C211      1.0  0.24062  0.48910  0.73326  1.0000
  H   H247      1.0  0.35902  0.48965  0.67146  1.0000
  C   C212      1.0  0.10192  0.53414  0.52479  1.0000
  H   H248      1.0  0.26619  0.45205  0.91455  1.0000
  H   H249      1.0  0.05373  0.50400  0.95298  1.0000
  C   C213      1.0  0.19441  0.45238  0.75724  1.0000
  H   H250      1.0  0.27270  0.40495  0.82619  1.0000
  C   C214      1.0  0.03859  0.46014  0.90533  1.0000
  H   H251      1.0  0.16662  0.57433  0.97521  1.0000
  H   H252      1.0  0.28092  0.34353  0.88957  1.0000
  H   H253      1.0  0.36397  0.35086  0.72217  1.0000
  C   C215      1.0  0.99783  0.60127  0.68817  1.0000
  H   H254      1.0  0.18758  0.57924  0.51138  1.0000
  H   H255      1.0  0.31992  0.42164  0.85485  1.0000
  H   H256      1.0  0.21505  0.36223  0.95044  1.0000
  H   H257      1.0  0.43733  0.63443  0.77242  1.0000
  C   C216      1.0  0.01499  0.34925  0.90971  1.0000
  H   H258      1.0  0.02076  0.59430  0.53986  1.0000
  H   H259      1.0  0.48227  0.59070  0.68691  1.0000
  C   C217      1.0  0.23983  0.40828  0.93555  1.0000
  S   S66       1.0  0.04272  0.65801  0.61210  1.0000
  H   H260      1.0  0.05535  0.59320  0.57589  1.0000
  N   N15       1.0  0.06672  0.47745  0.92400  1.0000
  H   H261      1.0  0.47207  0.57265  0.60843  1.0000
  C   C218      1.0  0.03072  0.43147  0.89244  1.0000
  Fe  Fe34      1.0  0.14016  0.46367  0.97609  1.0000
  H   H262      1.0  0.04523  0.56721  0.60818  1.0000
  C   C219      1.0  0.44497  0.64901  0.75053  1.0000
  H   H263      1.0  0.45757  0.52937  0.64477  1.0000
  H   H264      1.0  0.07792  0.52144  0.52808  1.0000
  H   H265      1.0  0.10443  0.49578  0.50725  1.0000
  C   C220      1.0  0.41061  0.50821  0.63306  1.0000
  C   C221      1.0  0.44068  0.53037  0.62998  1.0000
  C   C222      1.0  0.42709  0.55694  0.59171  1.0000
  C   C223      1.0  0.44889  0.55480  0.60955  1.0000
  H   H266      1.0  0.40535  0.49105  0.65112  1.0000
  H   H267      1.0  0.03954  0.59889  0.61175  1.0000
  H   H268      1.0  0.43828  0.63401  0.72889  1.0000
  H   H269      1.0  0.09318  0.51914  0.94993  1.0000
  H   H270      1.0  0.43224  0.66117  0.74920  1.0000
  H   H271      1.0  0.34307  0.48471  0.56955  1.0000
  H   H272      1.0  0.28886  0.43579  0.87363  1.0000
  H   H273      1.0  0.06530  0.43845  0.94553  1.0000
  C   C224      1.0  0.15320  0.44841  0.66641  1.0000
  C   C225      1.0  0.16996  0.45837  0.63810  1.0000
  H   H274      1.0  0.12924  0.43966  0.66528  1.0000
  H   H275      1.0  0.24178  0.36752  0.83173  1.0000
  C   C226      1.0  0.19826  0.45946  0.69758  1.0000
  H   H276      1.0  0.11431  0.49686  0.91643  1.0000
  H   H277      1.0  0.48878  0.33494  0.53722  1.0000
  S   S67       1.0  0.15431  0.51326  0.97219  1.0000
  H   H278      1.0  0.09199  0.46250  0.89538  1.0000
  C   C227      1.0  0.38783  0.50925  0.61467  1.0000
  C   C228      1.0  0.16699  0.44894  0.69583  1.0000
  C   C229      1.0  0.20059  0.46886  0.63902  1.0000
  H   H279      1.0  0.04122  0.61865  0.66567  1.0000
  H   H280      1.0  0.07343  0.52194  0.91588  1.0000
  H   H281      1.0  0.39459  0.35876  0.83575  1.0000
  S   S68       1.0  0.11029  0.64040  0.61375  1.0000
  C   C230      1.0  0.21455  0.46906  0.66814  1.0000
  C   C231      1.0  0.00668  0.53963  0.56039  1.0000
  C   C232      1.0  0.14783  0.53568  0.50795  1.0000
  C   C233      1.0  0.06630  0.45973  0.95253  1.0000
  H   H282      1.0  0.21329  0.47562  0.61668  1.0000
  C   C234      1.0  0.26686  0.38874  0.88896  1.0000
  C   C235      1.0  0.27405  0.41924  0.89092  1.0000
  H   H283      1.0  0.32252  0.39001  0.84267  1.0000
  H   H284      1.0  0.04470  0.42155  0.89632  1.0000
  H   H285      1.0  0.08684  0.47217  0.96758  1.0000
  N   N16       1.0  0.27943  0.37879  0.86269  1.0000
  H   H286      1.0  0.22864  0.41551  0.95248  1.0000
  C   C236      1.0  0.03817  0.58145  0.59488  1.0000
  H   H287      1.0  0.03640  0.35021  0.90841  1.0000
  H   H288      1.0  0.41716  0.36403  0.72041  1.0000
  S   S69       1.0  0.16693  0.51867  0.49007  1.0000
  C   C237      1.0  0.31254  0.39799  0.86142  1.0000
  H   H289      1.0  0.48596  0.63502  0.76942  1.0000
  C   C238      1.0  0.37064  0.33525  0.73128  1.0000
  H   H290      1.0  0.02234  0.49233  0.90810  1.0000
  Fe  Fe35      1.0  0.46960  0.33199  0.91982  1.0000
  C   C239      1.0  0.27260  0.34716  0.86607  1.0000
  S   S70       1.0  0.11432  0.37918  0.98545  1.0000
  N   N17       1.0  0.00777  0.56397  0.58070  1.0000
  H   H291      1.0  0.00485  0.52602  0.62924  1.0000
  H   H292      1.0  0.00220  0.58878  0.70637  1.0000
  H   H293      1.0  0.23797  0.34469  0.91144  1.0000
  H   H294      1.0  0.18095  0.65113  0.49710  1.0000
  C   C240      1.0  0.00441  0.41471  0.87461  1.0000
  H   H295      1.0  0.48457  0.34251  0.49600  1.0000
  H   H296      1.0  0.99884  0.39280  0.86517  1.0000
  H   H297      1.0  0.12478  0.62718  0.49239  1.0000
  H   H298      1.0  0.48633  0.63799  0.72638  1.0000
  Fe  Fe36      1.0  0.08771  0.66447  0.59337  1.0000
  S   S71       1.0  0.46676  0.86135  0.39221  1.0000
  Fe  Fe37      1.0  0.32460  0.83612  0.30231  1.0000
  S   S72       1.0  0.32501  0.86382  0.34422  1.0000
  S   S73       1.0  0.36302  0.82840  0.28864  1.0000
  Fe  Fe38      1.0  0.26483  0.82770  0.27764  1.0000
  S   S74       1.0  0.26172  0.85526  0.31865  1.0000
  S   S75       1.0  0.23265  0.81377  0.23483  1.0000
  Fe  Fe39      1.0  0.31082  0.88759  0.30827  1.0000
  S   S76       1.0  0.33890  0.93944  0.30581  1.0000
  Fe  Fe40      1.0  0.27605  0.82857  0.35061  1.0000
  S   S77       1.0  0.26273  0.80690  0.40165  1.0000
  S   S78       1.0  0.31274  0.86127  0.26629  1.0000
  S   S79       1.0  0.27669  0.79970  0.30969  1.0000
  Fe  Fe41      1.0  0.15101  0.68289  0.10574  1.0000
  S   S80       1.0  0.13018  0.70751  0.08160  1.0000
  S   S81       1.0  0.18039  0.69440  0.15052  1.0000
  H   H299      1.0  0.32874  0.97148  0.19536  1.0000
  Fe  Fe42      1.0  0.13922  0.69007  0.03473  1.0000
  C   C241      1.0  0.29579  0.78753  0.22992  1.0000
  C   C242      1.0  0.44301  0.92647  0.29796  1.0000
  C   C243      1.0  0.39073  0.90709  0.28909  1.0000
  H   H300      1.0  0.09644  0.67067  0.17510  1.0000
  H   H301      1.0  0.15842  0.68593  0.43099  1.0000
  H   H302      1.0  0.43852  0.96780  0.33348  1.0000
  C   C244      1.0  0.23027  0.78152  0.42461  1.0000
  C   C245      1.0  0.20166  0.77707  0.41810  1.0000
  H   H303      1.0  0.18188  0.67400  0.41243  1.0000
  H   H304      1.0  0.46012  0.67487  0.19118  1.0000
  C   C246      1.0  0.45524  0.98523  0.26992  1.0000
  C   C247      1.0  0.23385  0.76701  0.45188  1.0000
  H   H305      1.0  0.19837  0.78808  0.39746  1.0000
  H   H306      1.0  0.39104  0.89581  0.26624  1.0000
  C   C248      1.0  0.45664  0.67966  0.25760  1.0000
  H   H307      1.0  0.25582  0.77031  0.45736  1.0000
  C   C249      1.0  0.21823  0.78033  0.21181  1.0000
  C   C250      1.0  0.20499  0.77893  0.18159  1.0000
  C   C251      1.0  0.19318  0.75274  0.16250  1.0000
  C   C252      1.0  0.19450  0.72771  0.17360  1.0000
  C   C253      1.0  0.20752  0.72903  0.20391  1.0000
  C   C254      1.0  0.21915  0.75513  0.22306  1.0000
  H   H308      1.0  0.20416  0.79834  0.17277  1.0000
  H   H309      1.0  0.18346  0.75208  0.13907  1.0000
  H   H310      1.0  0.20849  0.70968  0.21268  1.0000
  H   H311      1.0  0.22858  0.75566  0.24663  1.0000
  H   H312      1.0  0.40000  0.95523  0.32428  1.0000
  C   C255      1.0  0.35023  0.96422  0.27156  1.0000
  C   C256      1.0  0.33413  0.95633  0.24244  1.0000
  C   C257      1.0  0.03062  0.67294  0.24228  1.0000
  H   H313      1.0  0.31482  0.93412  0.23974  1.0000
  C   C258      1.0  0.43814  0.85095  0.36289  1.0000
  C   C259      1.0  0.43944  0.84033  0.33208  1.0000
  C   C260      1.0  0.41625  0.83331  0.30947  1.0000
  C   C261      1.0  0.39154  0.83657  0.31764  1.0000
  C   C262      1.0  0.39028  0.84698  0.34849  1.0000
  C   C263      1.0  0.41353  0.85435  0.37082  1.0000
  H   H314      1.0  0.45836  0.83775  0.32565  1.0000
  H   H315      1.0  0.41747  0.82527  0.28566  1.0000
  H   H316      1.0  0.37130  0.84917  0.35540  1.0000
  H   H317      1.0  0.41229  0.86242  0.39462  1.0000
  C   C264      1.0  0.11392  0.74373  0.17983  1.0000
  C   C265      1.0  0.44192  0.69573  0.30694  1.0000
  H   H318      1.0  0.48434  0.75603  0.25925  1.0000
  C   C266      1.0  0.17743  0.75926  0.43903  1.0000
  H   H319      1.0  0.13823  0.75509  0.17389  1.0000
  H   H320      1.0  0.34812  0.79001  0.17843  1.0000
  H   H321      1.0  0.43045  0.69024  0.33004  1.0000
  N   N18       1.0  0.10281  0.71290  0.19259  1.0000
  H   H322      1.0  0.29470  0.98539  0.26270  1.0000
  C   C267      1.0  0.45703  0.72548  0.29648  1.0000
  C   C268      1.0  0.07117  0.69955  0.20287  1.0000
  H   H323      1.0  0.38595  0.93449  0.24027  1.0000
  H   H324      1.0  0.12827  0.70311  0.15832  1.0000
  H   H325      1.0  0.14708  0.72637  0.21099  1.0000
  C   C269      1.0  0.44175  0.67311  0.28792  1.0000
  H   H326      1.0  0.05502  0.70660  0.15651  1.0000
  H   H327      1.0  0.12259  0.72871  0.23975  1.0000
  H   H328      1.0  0.47105  0.98991  0.28933  1.0000
  C   C270      1.0  0.20962  0.74917  0.47276  1.0000
  C   C271      1.0  0.47195  0.73272  0.26694  1.0000
  C   C272      1.0  0.41704  0.94794  0.32599  1.0000
  H   H329      1.0  0.20660  0.77092  0.00329  1.0000
  C   C273      1.0  0.06090  0.68630  0.23387  1.0000
  S   S82       1.0  0.16211  0.66749  0.05931  1.0000
  C   C274      1.0  0.40789  0.95408  0.24274  1.0000
  H   H330      1.0  0.28570  0.84361  0.46483  1.0000
  H   H331      1.0  0.09131  0.69277  0.14498  1.0000
  H   H332      1.0  0.32529  0.76172  0.20762  1.0000
  H   H333      1.0  0.37170  0.91146  0.28845  1.0000
  C   C275      1.0  0.29339  0.78285  0.17183  1.0000
  C   C276      1.0  0.27853  0.75129  0.16680  1.0000
  C   C277      1.0  0.28638  0.79987  0.14993  1.0000
  C   C278      1.0  0.25869  0.73778  0.14097  1.0000
  C   C279      1.0  0.26632  0.78606  0.12428  1.0000
  C   C280      1.0  0.25260  0.75512  0.11976  1.0000
  H   H334      1.0  0.31609  0.83973  0.20067  1.0000
  H   H335      1.0  0.28019  0.79660  0.23041  1.0000
  H   H336      1.0  0.28208  0.76272  0.23251  1.0000
  H   H337      1.0  0.28133  0.73661  0.18338  1.0000
  H   H338      1.0  0.29554  0.82380  0.15241  1.0000
  C   C281      1.0  0.12335  0.71515  0.21914  1.0000
  H   H339      1.0  0.26080  0.79932  0.10824  1.0000
  H   H340      1.0  0.07567  0.68557  0.25193  1.0000
  N   N19       1.0  0.41958  0.93511  0.29482  1.0000
  H   H341      1.0  0.24689  0.71354  0.13812  1.0000
  C   C282      1.0  0.10479  0.69410  0.16663  1.0000
  H   H342      1.0  0.43676  0.90819  0.31615  1.0000
  H   H343      1.0  0.23637  0.74433  0.10046  1.0000
  C   C283      1.0  0.42752  0.95779  0.26886  1.0000
  C   C284      1.0  0.04928  0.69839  0.18106  1.0000
  H   H344      1.0  0.10252  0.74389  0.15703  1.0000
  H   H345      1.0  0.00281  0.68416  0.17257  1.0000
  H   H346      1.0  0.11075  0.75801  0.19784  1.0000
  C   C285      1.0  0.18121  0.74544  0.46674  1.0000
  H   H347      1.0  0.20373  0.67458  0.46464  1.0000
  C   C286      1.0  0.34205  0.97769  0.21726  1.0000
  N   N20       1.0  0.31375  0.79653  0.19987  1.0000
  H   H348      1.0  0.34439  0.83812  0.17621  1.0000
  C   C287      1.0  0.33101  0.82991  0.19881  1.0000
  C   C288      1.0  0.01920  0.68537  0.18992  1.0000
  C   C289      1.0  0.33582  0.78598  0.20168  1.0000
  H   H349      1.0  0.48469  0.71777  0.22557  1.0000
  H   H350      1.0  0.46489  0.94538  0.30607  1.0000
  H   H351      1.0  0.34688  0.83942  0.21962  1.0000
  H   H352      1.0  0.31022  0.79607  0.25181  1.0000
  H   H353      1.0  0.23371  0.82948  0.47815  1.0000
  H   H354      1.0  0.11821  0.69261  0.22801  1.0000
  H   H355      1.0  0.15565  0.75662  0.43392  1.0000
  H   H356      1.0  0.35268  0.79771  0.22126  1.0000
  C   C290      1.0  0.47192  0.71030  0.24770  1.0000
  H   H357      1.0  0.38549  0.89052  0.30888  1.0000
  H   H358      1.0  0.41003  0.93121  0.34601  1.0000
  H   H359      1.0  0.44657  0.91805  0.27451  1.0000
  H   H360      1.0  0.45748  0.74307  0.31142  1.0000
  H   H361      1.0  0.18000  0.68454  0.48585  1.0000
  C   C291      1.0  0.41576  0.97646  0.21929  1.0000
  C   C292      1.0  0.00984  0.67248  0.22037  1.0000
  C   C293      1.0  0.37511  0.99346  0.27445  1.0000
  C   C294      1.0  0.47149  0.66564  0.20641  1.0000
  H   H362      1.0  0.40014  0.97357  0.20008  1.0000
  H   H363      1.0  0.30846  0.97855  0.31798  1.0000
  C   C295      1.0  0.18138  0.66504  0.47619  1.0000
  C   C296      1.0  0.15988  0.66560  0.42450  1.0000
  H   H364      1.0  0.49455  0.75198  0.04209  1.0000
  S   S83       1.0  0.46725  0.86748  0.89907  1.0000
  Fe  Fe43      1.0  0.32083  0.83502  0.80622  1.0000
  S   S84       1.0  0.32356  0.86828  0.84288  1.0000
  S   S85       1.0  0.35557  0.82002  0.80324  1.0000
  Fe  Fe44      1.0  0.26420  0.82959  0.77612  1.0000
  S   S86       1.0  0.26380  0.86284  0.81172  1.0000
  S   S87       1.0  0.22776  0.81278  0.73747  1.0000
  Fe  Fe45      1.0  0.31343  0.89063  0.80116  1.0000
  S   S88       1.0  0.34454  0.94199  0.79350  1.0000
  Fe  Fe46      1.0  0.27371  0.83692  0.84960  1.0000
  S   S89       1.0  0.25643  0.82471  0.90247  1.0000
  S   S90       1.0  0.31309  0.85838  0.76425  1.0000
  S   S91       1.0  0.27164  0.80257  0.81429  1.0000
  Fe  Fe47      1.0  0.15312  0.68424  0.60643  1.0000
  S   S92       1.0  0.13051  0.70944  0.58906  1.0000
  S   S93       1.0  0.19055  0.70160  0.64344  1.0000
  H   H365      1.0  0.32925  0.97361  0.68454  1.0000
  Fe  Fe48      1.0  0.13698  0.69521  0.53918  1.0000
  H   H366      1.0  0.40761  0.81227  0.97361  1.0000
  C   C297      1.0  0.40218  0.79189  0.92701  1.0000
  H   H367      1.0  0.18585  0.71817  0.75995  1.0000
  H   H368      1.0  0.08335  0.71191  0.65891  1.0000
  C   C298      1.0  0.47429  0.70817  0.78635  1.0000
  N   N21       1.0  0.10001  0.70073  0.70180  1.0000
  C   C299      1.0  0.22858  0.79257  0.92451  1.0000
  C   C300      1.0  0.22819  0.79377  0.95864  1.0000
  C   C301      1.0  0.34357  0.97986  0.70566  1.0000
  C   C302      1.0  0.18459  0.74307  0.96198  1.0000
  C   C303      1.0  0.18515  0.74181  0.92785  1.0000
  C   C304      1.0  0.20700  0.76614  0.90930  1.0000
  C   C305      1.0  0.29272  0.82576  0.50908  1.0000
  H   H369      1.0  0.12624  0.69026  0.66933  1.0000
  H   H370      1.0  0.16837  0.72183  0.91560  1.0000
  H   H371      1.0  0.20673  0.76461  0.88320  1.0000
  C   C306      1.0  0.21833  0.78224  0.71108  1.0000
  C   C307      1.0  0.19519  0.77433  0.68838  1.0000
  C   C308      1.0  0.18648  0.74970  0.66746  1.0000
  C   C309      1.0  0.20075  0.73270  0.66921  1.0000
  C   C310      1.0  0.22406  0.74076  0.69164  1.0000
  C   C311      1.0  0.23288  0.76546  0.71249  1.0000
  H   H372      1.0  0.18384  0.78723  0.68726  1.0000
  H   H373      1.0  0.16883  0.74394  0.64998  1.0000
  H   H374      1.0  0.23531  0.72776  0.69303  1.0000
  H   H375      1.0  0.25069  0.77134  0.72988  1.0000
  C   C312      1.0  0.47625  0.92404  0.82996  1.0000
  C   C313      1.0  0.35386  0.96663  0.75921  1.0000
  C   C314      1.0  0.33611  0.95890  0.73124  1.0000
  H   H376      1.0  0.21070  0.80312  0.52837  1.0000
  H   H377      1.0  0.31622  0.93697  0.72958  1.0000
  C   C315      1.0  0.43631  0.85343  0.87226  1.0000
  C   C316      1.0  0.41603  0.86400  0.87538  1.0000
  C   C317      1.0  0.39135  0.85397  0.85442  1.0000
  C   C318      1.0  0.38659  0.83320  0.83002  1.0000
  C   C319      1.0  0.40684  0.82256  0.82685  1.0000
  C   C320      1.0  0.43164  0.83261  0.84789  1.0000
  H   H378      1.0  0.41956  0.88017  0.89409  1.0000
  H   H379      1.0  0.37614  0.86247  0.85711  1.0000
  H   H380      1.0  0.40340  0.80650  0.80804  1.0000
  H   H381      1.0  0.44717  0.82439  0.84519  1.0000
  C   C321      1.0  0.33297  0.83355  0.92364  1.0000
  H   H382      1.0  0.31433  0.83808  0.91885  1.0000
  H   H383      1.0  0.21325  0.73898  0.49386  1.0000
  H   H384      1.0  0.33982  0.84046  0.94909  1.0000
  C   C322      1.0  0.48587  0.68855  0.78116  1.0000
  C   C323      1.0  0.23386  0.80965  0.52419  1.0000
  H   H385      1.0  0.24432  0.76841  0.62072  1.0000
  H   H386      1.0  0.30941  0.78863  0.96700  1.0000
  C   C324      1.0  0.16834  0.72373  0.75625  1.0000
  C   C325      1.0  0.25587  0.78059  0.59814  1.0000
  H   H387      1.0  0.18686  0.75966  0.79110  1.0000
  C   C326      1.0  0.20659  0.76927  0.97721  1.0000
  N   N22       1.0  0.23567  0.78579  0.57674  1.0000
  H   H388      1.0  0.24455  0.81399  0.97088  1.0000
  C   C327      1.0  0.35924  0.78450  0.89568  1.0000
  C   C328      1.0  0.28007  0.81071  0.53811  1.0000
  C   C329      1.0  0.25010  0.80215  0.54653  1.0000
  N   N23       1.0  0.32392  0.80161  0.91758  1.0000
  H   H389      1.0  0.09223  0.73770  0.69132  1.0000
  H   H390      1.0  0.06509  0.69893  0.73228  1.0000
  H   H391      1.0  0.20669  0.80472  0.58308  1.0000
  H   H392      1.0  0.47551  0.70307  0.72099  1.0000
  C   C330      1.0  0.14703  0.75493  0.76871  1.0000
  H   H393      1.0  0.47407  0.74235  0.81661  1.0000
  H   H394      1.0  0.12191  0.73779  0.66867  1.0000
  C   C331      1.0  0.22492  0.80312  0.59563  1.0000
  H   H395      1.0  0.35196  0.84880  0.90784  1.0000
  C   C332      1.0  0.36804  0.80667  0.94916  1.0000
  C   C333      1.0  0.39376  0.80419  0.95207  1.0000
  H   H396      1.0  0.31538  0.83157  0.50267  1.0000
  C   C334      1.0  0.38472  0.78167  0.89912  1.0000
  C   C335      1.0  0.20975  0.75599  0.56856  1.0000
  S   S94       1.0  0.14975  0.72419  0.49289  1.0000
  H   H397      1.0  0.38880  0.86663  0.75245  1.0000
  N   N24       1.0  0.41470  0.91201  0.77040  1.0000
  C   C336      1.0  0.39111  0.90741  0.79387  1.0000
  C   C337      1.0  0.42770  0.94275  0.75682  1.0000
  C   C338      1.0  0.39979  0.89029  0.74352  1.0000
  C   C339      1.0  0.43840  0.90858  0.78687  1.0000
  C   C340      1.0  0.44690  0.88740  0.77680  1.0000
  C   C341      1.0  0.45393  0.92695  0.81387  1.0000
  H   H398      1.0  0.26363  0.76628  0.58617  1.0000
  H   H399      1.0  0.45966  0.70999  0.76890  1.0000
  H   H400      1.0  0.29375  0.75841  0.93821  1.0000
  H   H401      1.0  0.39933  0.92436  0.81357  1.0000
  H   H402      1.0  0.37259  0.90893  0.78195  1.0000
  H   H403      1.0  0.38119  0.88483  0.80508  1.0000
  H   H404      1.0  0.41050  0.94593  0.74378  1.0000
  H   H405      1.0  0.44611  0.94751  0.73958  1.0000
  H   H406      1.0  0.43700  0.96031  0.77596  1.0000
  H   H407      1.0  0.42259  0.79075  0.92896  1.0000
  H   H408      1.0  0.38175  0.89310  0.73205  1.0000
  H   H409      1.0  0.41587  0.89322  0.72403  1.0000
  C   C342      1.0  0.12453  0.73958  0.74566  1.0000
  H   H410      1.0  0.08670  0.66868  0.66271  1.0000
  C   C343      1.0  0.30103  0.78259  0.94177  1.0000
  H   H411      1.0  0.19237  0.75768  0.55419  1.0000
  C   C344      1.0  0.30952  0.79345  0.88516  1.0000
  S   S95       1.0  0.16162  0.67210  0.55660  1.0000
  H   H412      1.0  0.27565  0.80213  0.60593  1.0000
  H   H413      1.0  0.47525  0.86824  0.78534  1.0000
  H   H414      1.0  0.48716  0.93752  0.85119  1.0000
  H   H415      1.0  0.24348  0.82640  0.60039  1.0000
  H   H416      1.0  0.44862  0.94341  0.82306  1.0000
  H   H417      1.0  0.28070  0.78496  0.93992  1.0000
  H   H418      1.0  0.43603  0.87193  0.75708  1.0000
  C   C345      1.0  0.12369  0.71617  0.72658  1.0000
  H   H419      1.0  0.21693  0.74242  0.55410  1.0000
  H   H420      1.0  0.10797  0.74641  0.74274  1.0000
  H   H421      1.0  0.36242  0.81630  0.96928  1.0000
  H   H422      1.0  0.30058  0.76927  0.87952  1.0000
  H   H423      1.0  0.34751  0.77712  0.87287  1.0000
  H   H424      1.0  0.29005  0.79715  0.88354  1.0000
  H   H425      1.0  0.21574  0.79255  0.61953  1.0000
  C   C346      1.0  0.24683  0.82488  0.49540  1.0000
  H   H426      1.0  0.32541  0.80728  0.86578  1.0000
  H   H427      1.0  0.29414  0.80579  0.55329  1.0000
  C   C347      1.0  0.09942  0.72302  0.67930  1.0000
  C   C348      1.0  0.35030  0.79748  0.92058  1.0000
  H   H428      1.0  0.19859  0.74287  0.59073  1.0000
  H   H429      1.0  0.05197  0.67225  0.70004  1.0000
  C   C349      1.0  0.14616  0.70841  0.73288  1.0000
  H   H430      1.0  0.39165  0.77253  0.87949  1.0000
  H   H431      1.0  0.14788  0.77338  0.78234  1.0000
  S   S96       1.0  0.15562  0.71161  0.98393  1.0000
  C   C350      1.0  0.16894  0.74710  0.77389  1.0000
  C   C351      1.0  0.48202  0.72651  0.81379  1.0000
  C   C352      1.0  0.37957  0.99546  0.76065  1.0000
  H   H432      1.0  0.14771  0.69115  0.71958  1.0000
  C   C353      1.0  0.46955  0.88500  0.79284  1.0000
  H   H433      1.0  0.48061  0.67590  0.69977  1.0000
  C   C354      1.0  0.48657  0.68932  0.72247  1.0000
  C   C355      1.0  0.48409  0.90316  0.81941  1.0000
  H   H434      1.0  0.49305  0.73584  0.51686  1.0000
  C   C356      1.0  0.10416  0.67905  0.68184  1.0000
  N   N25       1.0  0.47778  0.66982  0.75153  1.0000
  C   C357      1.0  0.07047  0.68395  0.71793  1.0000
  H   H435      1.0  0.06976  0.66667  0.73479  1.0000
  C   C358      1.0  0.27615  0.83282  0.48780  1.0000
  Fe  Fe49      1.0  0.67175  0.07744  0.05595  1.0000
  S   S97       1.0  0.67001  0.10862  0.01904  1.0000
  S   S98       1.0  0.64294  0.02574  0.05209  1.0000
  Fe  Fe50      1.0  0.70945  0.13138  0.10436  1.0000
  S   S99       1.0  0.70969  0.16521  0.06957  1.0000
  S   S100      1.0  0.72493  0.14142  0.15779  1.0000
  Fe  Fe51      1.0  0.66109  0.13089  0.06104  1.0000
  S   S101      1.0  0.62491  0.14370  0.05908  1.0000
  Fe  Fe52      1.0  0.71865  0.13963  0.03097  1.0000
  H   H436      1.0  0.68444  0.01620  0.09560  1.0000
  S   S102      1.0  0.66010  0.09836  0.09745  1.0000
  S   S103      1.0  0.72112  0.10728  0.06630  1.0000
  Fe  Fe53      1.0  0.84269  0.27184  0.28900  1.0000
  S   S104      1.0  0.81873  0.29444  0.31022  1.0000
  S   S105      1.0  0.83023  0.25267  0.23675  1.0000
  Fe  Fe54      1.0  0.89018  0.29583  0.34579  1.0000
  H   H437      1.0  0.90103  0.32093  0.47523  1.0000
  Fe  Fe55      1.0  0.82456  0.27677  0.35820  1.0000
  S   S106      1.0  0.78648  0.26005  0.39462  1.0000
  S   S107      1.0  0.84640  0.25214  0.33684  1.0000
  S   S108      1.0  0.88851  0.31315  0.29621  1.0000
  H   H438      1.0  0.63197  0.00506  0.43854  1.0000
  H   H439      1.0  0.75004  0.04945  0.02087  1.0000
  C   C359      1.0  0.77966  0.18987  0.44769  1.0000
  C   C360      1.0  0.78774  0.21175  0.42332  1.0000
  C   C361      1.0  0.77483  0.23007  0.42257  1.0000
  C   C362      1.0  0.75260  0.22516  0.44533  1.0000
  H   H440      1.0  0.69073  0.07161  0.45883  1.0000
  H   H441      1.0  0.79037  0.17638  0.44863  1.0000
  H   H442      1.0  0.80399  0.21453  0.40520  1.0000
  H   H443      1.0  0.74227  0.23903  0.44472  1.0000
  C   C363      1.0  0.70734  0.03161  0.08876  1.0000
  C   C364      1.0  0.75402  0.17311  0.17913  1.0000
  C   C365      1.0  0.77790  0.19732  0.16331  1.0000
  C   C366      1.0  0.80092  0.22115  0.18136  1.0000
  C   C367      1.0  0.80035  0.22158  0.21551  1.0000
  C   C368      1.0  0.77618  0.19763  0.23130  1.0000
  C   C369      1.0  0.75340  0.17355  0.21327  1.0000
  H   H444      1.0  0.77901  0.19741  0.13717  1.0000
  H   H445      1.0  0.81947  0.23932  0.16869  1.0000
  H   H446      1.0  0.77520  0.19742  0.25746  1.0000
  H   H447      1.0  0.73514  0.15510  0.22596  1.0000
  C   C370      1.0  0.59421  0.12910  0.08605  1.0000
  C   C371      1.0  0.58883  0.10618  0.10797  1.0000
  C   C372      1.0  0.56500  0.09604  0.13002  1.0000
  C   C373      1.0  0.54610  0.10842  0.13020  1.0000
  C   C374      1.0  0.55106  0.13090  0.10785  1.0000
  C   C375      1.0  0.57504  0.14118  0.08587  1.0000
  H   H448      1.0  0.60310  0.09639  0.10829  1.0000
  H   H449      1.0  0.56121  0.07856  0.14719  1.0000
  H   H450      1.0  0.53655  0.14052  0.10771  1.0000
  H   H451      1.0  0.57887  0.15879  0.06886  1.0000
  H   H452      1.0  0.58052  0.03454  0.05532  1.0000
  H   H453      1.0  0.86255  0.31647  0.23485  1.0000
  H   H454      1.0  0.78789  0.08589  0.05880  1.0000
  C   C376      1.0  0.49755  0.29593  0.00763  1.0000
  C   C377      1.0  0.74420  0.04999  0.04596  1.0000
  H   H455      1.0  0.74288  0.20721  0.99552  1.0000
  N   N26       1.0  0.65953  0.18293  0.15830  1.0000
  C   C378      1.0  0.66438  0.20230  0.12964  1.0000
  C   C379      1.0  0.66308  0.15719  0.14830  1.0000
  C   C380      1.0  0.62798  0.17077  0.16881  1.0000
  C   C381      1.0  0.68184  0.20018  0.18379  1.0000
  C   C382      1.0  0.67371  0.20281  0.21601  1.0000
  C   C383      1.0  0.71295  0.21419  0.17697  1.0000
  C   C384      1.0  0.69551  0.21841  0.23972  1.0000
  C   C385      1.0  0.73448  0.22992  0.20078  1.0000
  C   C386      1.0  0.72581  0.23182  0.23215  1.0000
  H   H456      1.0  0.68611  0.20932  0.11751  1.0000
  H   H457      1.0  0.64694  0.19034  0.11067  1.0000
  H   H458      1.0  0.66370  0.22290  0.13644  1.0000
  H   H459      1.0  0.66018  0.14223  0.16915  1.0000
  H   H460      1.0  0.68554  0.16449  0.13795  1.0000
  H   H461      1.0  0.64662  0.14352  0.12929  1.0000
  H   H462      1.0  0.62367  0.18899  0.17663  1.0000
  H   H463      1.0  0.61185  0.15869  0.14883  1.0000
  H   H464      1.0  0.62183  0.15410  0.18872  1.0000
  H   H465      1.0  0.65068  0.19269  0.22367  1.0000
  H   H466      1.0  0.72088  0.21238  0.15333  1.0000
  H   H467      1.0  0.68886  0.21976  0.26427  1.0000
  H   H468      1.0  0.75805  0.23991  0.19510  1.0000
  H   H469      1.0  0.74263  0.24329  0.25077  1.0000
  N   N27       1.0  0.71874  0.05438  0.14454  1.0000
  C   C387      1.0  0.70944  0.02551  0.16130  1.0000
  H   H470      1.0  0.96006  0.31520  0.01018  1.0000
  H   H471      1.0  0.88038  0.26899  0.40416  1.0000
  C   C388      1.0  0.72816  0.05281  0.11107  1.0000
  C   C389      1.0  0.75775  0.07201  0.09953  1.0000
  H   H472      1.0  0.68965  0.00640  0.14957  1.0000
  H   H473      1.0  0.50875  0.28555  0.02111  1.0000
  H   H474      1.0  0.72786  0.02012  0.16130  1.0000
  C   C390      1.0  0.74401  0.20280  0.46929  1.0000
  H   H475      1.0  0.52163  0.23373  0.24166  1.0000
  C   C391      1.0  0.53797  0.32359  0.30371  1.0000
  H   H476      1.0  0.67294  0.04143  0.13149  1.0000
  H   H477      1.0  0.51139  0.29683  0.45761  1.0000
  H   H478      1.0  0.84615  0.26542  0.41816  1.0000
  C   C392      1.0  0.81141  0.31609  0.22473  1.0000
  C   C393      1.0  0.71540  0.08240  0.45616  1.0000
  C   C394      1.0  0.71009  0.02415  0.43815  1.0000
  S   S109      1.0  0.93227  0.29750  0.36802  1.0000
  C   C395      1.0  0.51099  0.24740  0.24158  1.0000
  H   H479      1.0  0.87253  0.31376  0.44569  1.0000
  H   H480      1.0  0.84021  0.29819  0.18375  1.0000
  H   H481      1.0  0.80934  0.32761  0.24652  1.0000
  C   C396      1.0  0.59198  0.05428  0.03890  1.0000
  H   H482      1.0  0.53162  0.05700  0.01078  1.0000
  H   H483      1.0  0.53503  0.03884  0.04697  1.0000
  C   C397      1.0  0.71524  0.03048  0.05667  1.0000
  S   S110      1.0  0.51740  0.09572  0.15945  1.0000
  C   C398      1.0  0.86456  0.26109  0.42484  1.0000
  H   H484      1.0  0.55694  0.07855  0.04239  1.0000
  H   H485      1.0  0.53011  0.26777  0.28660  1.0000
  H   H486      1.0  0.60079  0.07506  0.05377  1.0000
  H   H487      1.0  0.80965  0.29462  0.23301  1.0000
  C   C399      1.0  0.76546  0.07053  0.06739  1.0000
  C   C400      1.0  0.98378  0.31812  0.40492  1.0000
  H   H488      1.0  0.79160  0.30982  0.20914  1.0000
  H   H489      1.0  0.68580  0.06193  0.16854  1.0000
  C   C401      1.0  0.83160  0.26626  0.48210  1.0000
  H   H490      1.0  0.73463  0.08016  0.18886  1.0000
  H   H491      1.0  0.61175  0.05396  0.02892  1.0000
  H   H492      1.0  0.90768  0.31915  0.43278  1.0000
  H   H493      1.0  0.72505  0.10661  0.46242  1.0000
  H   H494      1.0  0.69852  0.01487  0.03982  1.0000
  H   H495      1.0  0.90831  0.29176  0.99096  1.0000
  N   N28       1.0  0.50559  0.30404  0.29645  1.0000
  H   H496      1.0  0.77248  0.10544  0.47526  1.0000
  H   H497      1.0  0.92223  0.28277  0.43935  1.0000
  N   N29       1.0  0.57157  0.05342  0.01308  1.0000
  H   H498      1.0  0.76224  0.07554  0.16762  1.0000
  C   C402      1.0  0.54759  0.05689  0.02887  1.0000
  H   H499      1.0  0.76422  0.07796  0.44431  1.0000
  H   H500      1.0  0.69907  0.08093  0.13083  1.0000
  C   C403      1.0  0.69297  0.05971  0.14379  1.0000
  H   H501      1.0  0.77521  0.08889  0.11453  1.0000
  N   N30       1.0  0.72767  0.06749  0.47702  1.0000
  C   C404      1.0  0.56033  0.02523  0.99428  1.0000
  C   C405      1.0  0.51573  0.26706  0.26718  1.0000
  H   H502      1.0  0.64734  0.03945  0.48607  1.0000
  H   H503      1.0  0.85487  0.23633  0.42666  1.0000
  S   S111      1.0  0.86802  0.31872  0.36981  1.0000
  H   H504      1.0  0.71995  0.03951  0.41814  1.0000
  H   H505      1.0  0.49935  0.26940  0.33047  1.0000
  C   C406      1.0  0.75795  0.18546  0.47092  1.0000
  C   C407      1.0  0.96226  0.32484  0.39262  1.0000
  C   C408      1.0  0.65000  0.00815  0.98992  1.0000
  H   H506      1.0  0.75040  0.10129  0.15297  1.0000
  C   C409      1.0  0.74267  0.07885  0.16423  1.0000
  H   H507      1.0  0.70312  0.02613  0.18694  1.0000
  C   C410      1.0  0.76003  0.08081  0.47009  1.0000
  C   C411      1.0  0.89057  0.30887  0.45228  1.0000
  H   H508      1.0  0.98193  0.29672  0.39909  1.0000
  C   C412      1.0  0.63278  0.00065  0.01816  1.0000
  C   C413      1.0  0.95325  0.30083  0.98899  1.0000
  H   H509      1.0  0.89976  0.24830  0.45995  1.0000
  H   H510      1.0  0.82178  0.31413  0.16160  1.0000
  N   N31       1.0  0.87950  0.27619  0.45545  1.0000
  H   H511      1.0  0.82738  0.27794  0.46281  1.0000
  C   C414      1.0  0.84100  0.31982  0.17797  1.0000
  S   S112      1.0  0.75409  0.15678  0.99154  1.0000
  H   H512      1.0  0.54857  0.31075  0.31277  1.0000
  H   H513      1.0  0.91859  0.28351  0.48225  1.0000
  H   H514      1.0  0.72032  0.08194  0.43012  1.0000
  C   C415      1.0  0.50109  0.28425  0.26840  1.0000
  C   C416      1.0  0.90609  0.27242  0.45970  1.0000
  H   H515      1.0  0.59631  0.10138  0.00464  1.0000
  H   H516      1.0  0.51237  0.00529  0.00510  1.0000
  C   C417      1.0  0.52948  0.00292  0.99271  1.0000
  C   C418      1.0  0.58841  0.07973  0.99149  1.0000
  C   C419      1.0  0.71216  0.03478  0.47031  1.0000
  C   C420      1.0  0.85759  0.26336  0.48220  1.0000
  H   H517      1.0  0.51295  0.31016  0.98809  1.0000
  H   H518      1.0  0.53465  0.31470  0.06406  1.0000
  H   H519      1.0  0.58035  0.01632  0.48033  1.0000
  H   H520      1.0  0.72720  0.19956  0.48695  1.0000
  H   H521      1.0  0.77008  0.07013  0.48517  1.0000
  H   H522      1.0  0.66964  0.03019  0.98768  1.0000
  Fe  Fe56      1.0  0.66694  0.07919  0.56346  1.0000
  S   S113      1.0  0.66462  0.10793  0.52421  1.0000
  S   S114      1.0  0.64614  0.02806  0.55609  1.0000
  Fe  Fe57      1.0  0.69875  0.13466  0.61125  1.0000
  S   S115      1.0  0.69763  0.16604  0.57382  1.0000
  S   S116      1.0  0.71389  0.14952  0.66412  1.0000
  Fe  Fe58      1.0  0.65042  0.12855  0.56369  1.0000
  S   S117      1.0  0.60915  0.13305  0.55520  1.0000
  Fe  Fe59      1.0  0.71172  0.14195  0.53839  1.0000
  C   C421      1.0  0.72468  0.07468  0.51113  1.0000
  S   S118      1.0  0.65052  0.09826  0.60250  1.0000
  S   S119      1.0  0.71506  0.11215  0.57645  1.0000
  Fe  Fe60      1.0  0.84027  0.27757  0.79039  1.0000
  S   S120      1.0  0.81775  0.30116  0.81297  1.0000
  S   S121      1.0  0.82655  0.25698  0.73890  1.0000
  Fe  Fe61      1.0  0.89148  0.30381  0.84319  1.0000
  H   H523      1.0  0.79143  0.31114  0.68790  1.0000
  Fe  Fe62      1.0  0.82735  0.28584  0.86060  1.0000
  S   S122      1.0  0.79485  0.27216  0.90269  1.0000
  S   S123      1.0  0.84743  0.25995  0.83809  1.0000
  H   H524      1.0  0.69913  0.01833  0.52026  1.0000
  H   H525      1.0  0.51884  0.01623  0.55986  1.0000
  C   C422      1.0  0.84785  0.32592  0.67723  1.0000
  C   C423      1.0  0.78000  0.19158  0.93780  1.0000
  C   C424      1.0  0.78942  0.21701  0.91787  1.0000
  C   C425      1.0  0.78239  0.23915  0.92615  1.0000
  C   C426      1.0  0.76528  0.23526  0.95406  1.0000
  H   H526      1.0  0.88152  0.21756  0.91328  1.0000
  H   H527      1.0  0.78569  0.17463  0.93137  1.0000
  H   H528      1.0  0.80195  0.21940  0.89606  1.0000
  H   H529      1.0  0.57424  0.07923  0.97087  1.0000
  C   C427      1.0  0.80972  0.25293  0.50603  1.0000
  C   C428      1.0  0.74545  0.17988  0.68421  1.0000
  C   C429      1.0  0.77015  0.20228  0.66749  1.0000
  C   C430      1.0  0.79452  0.22558  0.68464  1.0000
  C   C431      1.0  0.79456  0.22722  0.71874  1.0000
  C   C432      1.0  0.76959  0.20517  0.73541  1.0000
  C   C433      1.0  0.74542  0.18163  0.71829  1.0000
  H   H530      1.0  0.77073  0.20137  0.64137  1.0000
  H   H531      1.0  0.81368  0.24227  0.67134  1.0000
  H   H532      1.0  0.76918  0.20581  0.76157  1.0000
  H   H533      1.0  0.72667  0.16440  0.73167  1.0000
  C   C434      1.0  0.58413  0.13015  0.58635  1.0000
  C   C435      1.0  0.58727  0.12268  0.61810  1.0000
  C   C436      1.0  0.56829  0.12259  0.64268  1.0000
  C   C437      1.0  0.54587  0.12977  0.63580  1.0000
  C   C438      1.0  0.54188  0.13599  0.60377  1.0000
  C   C439      1.0  0.56097  0.13621  0.57921  1.0000
  H   H534      1.0  0.60476  0.11767  0.62381  1.0000
  H   H535      1.0  0.57133  0.11756  0.66733  1.0000
  H   H536      1.0  0.52475  0.14159  0.59811  1.0000
  H   H537      1.0  0.55824  0.14187  0.55469  1.0000
  C   C440      1.0  0.81276  0.23596  0.53045  1.0000
  N   N32       1.0  0.88316  0.25543  0.93786  1.0000
  N   N33       1.0  0.56188  0.02496  0.54192  1.0000
  C   C441      1.0  0.58851  0.05119  0.52760  1.0000
  H   H538      1.0  0.50454  0.25059  0.78159  1.0000
  S   S124      1.0  0.52532  0.13326  0.66833  1.0000
  N   N34       1.0  0.65127  0.17471  0.69125  1.0000
  C   C442      1.0  0.63688  0.17246  0.72304  1.0000
  C   C443      1.0  0.64614  0.14438  0.68308  1.0000
  C   C444      1.0  0.68392  0.19545  0.69532  1.0000
  C   C445      1.0  0.63965  0.18557  0.66480  1.0000
  C   C446      1.0  0.61540  0.19106  0.66899  1.0000
  C   C447      1.0  0.65220  0.19022  0.63331  1.0000
  C   C448      1.0  0.60442  0.20033  0.64309  1.0000
  C   C449      1.0  0.64102  0.19944  0.60762  1.0000
  C   C450      1.0  0.61712  0.20440  0.61248  1.0000
  H   H539      1.0  0.64647  0.16464  0.74241  1.0000
  H   H540      1.0  0.64010  0.19462  0.73085  1.0000
  H   H541      1.0  0.61243  0.15587  0.72226  1.0000
  H   H542      1.0  0.65618  0.13610  0.70147  1.0000
  H   H543      1.0  0.65636  0.14402  0.65957  1.0000
  H   H544      1.0  0.62186  0.12772  0.68129  1.0000
  H   H545      1.0  0.68894  0.21890  0.69962  1.0000
  H   H546      1.0  0.69321  0.18872  0.71597  1.0000
  H   H547      1.0  0.69696  0.19565  0.67384  1.0000
  H   H548      1.0  0.60367  0.18732  0.69164  1.0000
  H   H549      1.0  0.67018  0.18583  0.62807  1.0000
  H   H550      1.0  0.58503  0.20303  0.64650  1.0000
  H   H551      1.0  0.65010  0.20153  0.58348  1.0000
  H   H552      1.0  0.60775  0.21040  0.59223  1.0000
  C   C451      1.0  0.53871  0.03367  0.54667  1.0000
  H   H553      1.0  0.83581  0.32390  0.65416  1.0000
  H   H554      1.0  0.84404  0.30313  0.68363  1.0000
  C   C452      1.0  0.86259  0.23633  0.96384  1.0000
  H   H555      1.0  0.86319  0.24952  0.98539  1.0000
  C   C453      1.0  0.63645  0.01549  0.48968  1.0000
  C   C454      1.0  0.96623  0.27926  0.94451  1.0000
  H   H556      1.0  0.83887  0.22440  0.95562  1.0000
  H   H557      1.0  0.79647  0.32414  0.72959  1.0000
  C   C455      1.0  0.86035  0.24642  0.50790  1.0000
  C   C456      1.0  0.91457  0.26937  0.94929  1.0000
  H   H558      1.0  0.89042  0.24958  0.88758  1.0000
  C   C457      1.0  0.76331  0.18794  0.96601  1.0000
  C   C458      1.0  0.51915  0.27565  0.51630  1.0000
  H   H559      1.0  0.78971  0.25482  0.50490  1.0000
  C   C459      1.0  0.83810  0.23289  0.53153  1.0000
  C   C460      1.0  0.63207  0.00409  0.52121  1.0000
  C   C461      1.0  0.69913  0.01268  0.49508  1.0000
  H   H560      1.0  0.89159  0.29439  0.91056  1.0000
  H   H561      1.0  0.52994  0.24127  0.52849  1.0000
  H   H562      1.0  0.85304  0.22571  0.90106  1.0000
  S   S125      1.0  0.88641  0.31899  0.79369  1.0000
  C   C462      1.0  0.57093  0.01909  0.57404  1.0000
  C   C463      1.0  0.75571  0.20975  0.97390  1.0000
  S   S126      1.0  0.75009  0.15900  0.50223  1.0000
  C   C464      1.0  0.96430  0.33068  0.88759  1.0000
  C   C465      1.0  0.80554  0.31611  0.70996  1.0000
  H   H563      1.0  0.80260  0.29411  0.71817  1.0000
  S   S127      1.0  0.93634  0.30776  0.85845  1.0000
  C   C466      1.0  0.87607  0.27927  0.92952  1.0000
  H   H564      1.0  0.75958  0.25220  0.96051  1.0000
  C   C467      1.0  0.49884  0.24218  0.56220  1.0000
  C   C468      1.0  0.92376  0.28744  0.97765  1.0000
  C   C469      1.0  0.50201  0.28956  0.52376  1.0000
  H   H565      1.0  0.85279  0.26974  0.92006  1.0000
  H   H566      1.0  0.54755  0.05489  0.56097  1.0000
  H   H567      1.0  0.84019  0.21944  0.55050  1.0000
  H   H568      1.0  0.53370  0.28253  0.49547  1.0000
  C   C470      1.0  0.97441  0.29668  0.97249  1.0000
  H   H569      1.0  0.86814  0.21900  0.97190  1.0000
  H   H570      1.0  0.60710  0.04640  0.52405  1.0000
  H   H571      1.0  0.84990  0.31839  0.74181  1.0000
  H   H572      1.0  0.58630  0.00986  0.57129  1.0000
  H   H573      1.0  0.58286  0.03993  0.58888  1.0000
  C   C471      1.0  0.93685  0.26586  0.93284  1.0000
  H   H574      1.0  0.58316  0.05801  0.50408  1.0000
  H   H575      1.0  0.93248  0.25369  0.91034  1.0000
  S   S128      1.0  0.87149  0.32830  0.86807  1.0000
  H   H576      1.0  0.87791  0.29347  0.95062  1.0000
  H   H577      1.0  0.79512  0.22464  0.54819  1.0000
  N   N35       1.0  0.50347  0.31355  0.50259  1.0000
  H   H578      1.0  0.59738  0.07134  0.54356  1.0000
  H   H579      1.0  0.70074  0.06529  0.51791  1.0000
  C   C472      1.0  0.87691  0.23622  0.90873  1.0000
  H   H580      1.0  0.73599  0.09935  0.51529  1.0000
  H   H581      1.0  0.98309  0.27706  0.93109  1.0000
  H   H582      1.0  0.87918  0.24282  0.51003  1.0000
  H   H583      1.0  0.73524  0.06608  0.52839  1.0000
  H   H584      1.0  0.49681  0.22341  0.57631  1.0000
  C   C473      1.0  0.51732  0.25215  0.53514  1.0000
  C   C474      1.0  0.58062  0.01921  0.97709  1.0000
  H   H585      1.0  0.53080  0.03752  0.52300  1.0000
  H   H586      1.0  0.55158  0.00272  0.58865  1.0000
  H   H587      1.0  0.60883  0.08079  0.98127  1.0000
  H   H588      1.0  0.60448  0.03474  0.97762  1.0000
  Fe  Fe63      1.0  0.69783  0.53553  0.45717  1.0000
  C   C475      1.0  0.72420  0.62359  0.28434  1.0000
  S   S129      1.0  0.71860  0.53677  0.40701  1.0000
  Fe  Fe64      1.0  0.66713  0.55756  0.00504  1.0000
  S   S130      1.0  0.67164  0.52689  0.04089  1.0000
  S   S131      1.0  0.64552  0.58678  0.01604  1.0000
  Fe  Fe65      1.0  0.71820  0.54580  0.02056  1.0000
  S   S132      1.0  0.76345  0.56439  0.04517  1.0000
  C   C476      1.0  0.94536  0.53476  0.14251  1.0000
  H   H589      1.0  0.71979  0.45997  0.40281  1.0000
  C   C477      1.0  0.75742  0.60230  0.28950  1.0000
  S   S133      1.0  0.65620  0.54015  0.45863  1.0000
  H   H590      1.0  0.53048  0.55542  0.18210  1.0000
  H   H591      1.0  0.58185  0.38752  0.40245  1.0000
  C   C478      1.0  0.54920  0.39499  0.04691  1.0000
  S   S134      1.0  0.88223  0.38405  0.31163  1.0000
  Fe  Fe66      1.0  0.84785  0.55261  0.28474  1.0000
  S   S135      1.0  0.80920  0.51722  0.25711  1.0000
  S   S136      1.0  0.84060  0.56397  0.33668  1.0000
  Fe  Fe67      1.0  0.89183  0.56321  0.22701  1.0000
  S   S137      1.0  0.85422  0.52776  0.19639  1.0000
  S   S138      1.0  0.94217  0.58467  0.21342  1.0000
  Fe  Fe68      1.0  0.82712  0.54834  0.21453  1.0000
  S   S139      1.0  0.78981  0.55462  0.19344  1.0000
  Fe  Fe69      1.0  0.83975  0.50017  0.24220  1.0000
  S   S140      1.0  0.81865  0.44941  0.24563  1.0000
  S   S141      1.0  0.86516  0.58531  0.24288  1.0000
  S   S142      1.0  0.87806  0.53399  0.27216  1.0000
  H   H592      1.0  0.49710  0.37365  0.43601  1.0000
  C   C479      1.0  0.96206  0.61577  0.15424  1.0000
  C   C480      1.0  0.96865  0.60379  0.18146  1.0000
  C   C481      1.0  0.94051  0.56188  0.09749  1.0000
  H   H593      1.0  0.94006  0.61332  0.15182  1.0000
  C   C482      1.0  0.86320  0.40183  0.29560  1.0000
  C   C483      1.0  0.83326  0.38559  0.28582  1.0000
  C   C484      1.0  0.81973  0.40051  0.27091  1.0000
  C   C485      1.0  0.83585  0.43181  0.26627  1.0000
  C   C486      1.0  0.86539  0.44819  0.27729  1.0000
  C   C487      1.0  0.87904  0.43320  0.29167  1.0000
  H   H594      1.0  0.82070  0.36158  0.28952  1.0000
  H   H595      1.0  0.79681  0.38773  0.26257  1.0000
  H   H596      1.0  0.87804  0.47227  0.27385  1.0000
  H   H597      1.0  0.90219  0.44593  0.29934  1.0000
  C   C488      1.0  0.75557  0.45808  0.37774  1.0000
  H   H598      1.0  0.71112  0.58562  0.35537  1.0000
  H   H599      1.0  0.52345  0.41888  0.47072  1.0000
  H   H600      1.0  0.81236  0.60715  0.23789  1.0000
  H   H601      1.0  0.94864  0.35819  0.39180  1.0000
  C   C489      1.0  0.76939  0.55854  0.08602  1.0000
  C   C490      1.0  0.74691  0.54987  0.10928  1.0000
  C   C491      1.0  0.75343  0.54835  0.14210  1.0000
  C   C492      1.0  0.78214  0.55458  0.15175  1.0000
  C   C493      1.0  0.80439  0.56252  0.12839  1.0000
  C   C494      1.0  0.79810  0.56487  0.09570  1.0000
  H   H602      1.0  0.72470  0.54484  0.10212  1.0000
  H   H603      1.0  0.73611  0.54218  0.16008  1.0000
  H   H604      1.0  0.82664  0.56764  0.13560  1.0000
  H   H605      1.0  0.81564  0.57177  0.07783  1.0000
  C   C495      1.0  0.75285  0.54189  0.39025  1.0000
  C   C496      1.0  0.78091  0.56094  0.40414  1.0000
  C   C497      1.0  0.80745  0.56676  0.38792  1.0000
  C   C498      1.0  0.80644  0.55347  0.35776  1.0000
  C   C499      1.0  0.77839  0.53349  0.34454  1.0000
  C   C500      1.0  0.75189  0.52809  0.36043  1.0000
  H   H606      1.0  0.78221  0.57195  0.42688  1.0000
  H   H607      1.0  0.82895  0.58220  0.39854  1.0000
  H   H608      1.0  0.77706  0.52264  0.32170  1.0000
  H   H609      1.0  0.73040  0.51325  0.34942  1.0000
  C   C501      1.0  0.61346  0.62213  0.10230  1.0000
  C   C502      1.0  0.62661  0.60414  0.10802  1.0000
  C   C503      1.0  0.63571  0.59239  0.08218  1.0000
  C   C504      1.0  0.63220  0.59875  0.04997  1.0000
  C   C505      1.0  0.61862  0.61634  0.04430  1.0000
  C   C506      1.0  0.60920  0.62779  0.07012  1.0000
  H   H610      1.0  0.63010  0.59952  0.13269  1.0000
  H   H611      1.0  0.64588  0.57883  0.08722  1.0000
  C   C507      1.0  0.79443  0.61180  0.24601  1.0000
  C   C508      1.0  0.82020  0.36525  0.17937  1.0000
  C   C509      1.0  0.53757  0.37723  0.41697  1.0000
  C   C510      1.0  0.52127  0.38625  0.43633  1.0000
  C   C511      1.0  0.53628  0.41200  0.45594  1.0000
  C   C512      1.0  0.56770  0.42920  0.45624  1.0000
  C   C513      1.0  0.58406  0.42022  0.43685  1.0000
  C   C514      1.0  0.56902  0.39429  0.41735  1.0000
  H   H612      1.0  0.59922  0.64155  0.06504  1.0000
  C   C515      1.0  0.79293  0.49905  0.42444  1.0000
  H   H613      1.0  0.60827  0.43326  0.43691  1.0000
  H   H614      1.0  0.73762  0.63768  0.02604  1.0000
  H   H615      1.0  0.58138  0.35839  0.08199  1.0000
  C   C516      1.0  0.98400  0.63104  0.13005  1.0000
  H   H616      1.0  0.88461  0.44070  0.21210  1.0000
  H   H617      1.0  0.55403  0.41767  0.04157  1.0000
  Fe  Fe70      1.0  0.63475  0.49615  0.48552  1.0000
  C   C517      1.0  0.57042  0.39066  0.06317  1.0000
  H   H618      1.0  0.52868  0.52604  0.13487  1.0000
  C   C518      1.0  0.82123  0.39231  0.17187  1.0000
  H   H619      1.0  0.72206  0.58294  0.06522  1.0000
  H   H620      1.0  0.86447  0.34893  0.25290  1.0000
  C   C519      1.0  0.71142  0.61172  0.31434  1.0000
  C   C520      1.0  0.97215  0.53866  0.12968  1.0000
  C   C521      1.0  0.86696  0.41959  0.20243  1.0000
  C   C522      1.0  0.76221  0.48812  0.42551  1.0000
  C   C523      1.0  0.52879  0.57191  0.16619  1.0000
  Fe  Fe71      1.0  0.57724  0.66307  0.13997  1.0000
  H   H621      1.0  0.79806  0.59433  0.32434  1.0000
  H   H622      1.0  0.80077  0.42501  0.37948  1.0000
  H   H623      1.0  0.98357  0.52935  0.14318  1.0000
  C   C524      1.0  0.86595  0.39266  0.21050  1.0000
  C   C525      1.0  0.51842  0.58403  0.11353  1.0000
  H   H624      1.0  0.88701  0.35236  0.21789  1.0000
  H   H625      1.0  0.73984  0.44266  0.36026  1.0000
  C   C526      1.0  0.98427  0.55486  0.10049  1.0000
  C   C527      1.0  0.92953  0.54625  0.12640  1.0000
  H   H626      1.0  0.77784  0.65188  0.10600  1.0000
  H   H627      1.0  0.59158  0.40994  0.07033  1.0000
  N   N36       1.0  0.73741  0.62902  0.07752  1.0000
  H   H628      1.0  0.53245  0.65729  0.33459  1.0000
  H   H629      1.0  0.55338  0.56052  0.11466  1.0000
  H   H630      1.0  0.82625  0.43695  0.34576  1.0000
  H   H631      1.0  0.54260  0.60090  0.11051  1.0000
  C   C528      1.0  0.82253  0.48637  0.33189  1.0000
  H   H632      1.0  0.83516  0.46032  0.38062  1.0000
  C   C529      1.0  0.53799  0.33680  0.05887  1.0000
  C   C530      1.0  0.51631  0.34041  0.04124  1.0000
  C   C531      1.0  0.80517  0.48958  0.40012  1.0000
  H   H633      1.0  0.70036  0.58814  0.09582  1.0000
  H   H634      1.0  0.55215  0.59059  0.16288  1.0000
  H   H635      1.0  0.71637  0.63631  0.27056  1.0000
  H   H636      1.0  0.74855  0.61719  0.12372  1.0000
  H   H637      1.0  0.69672  0.59575  0.05428  1.0000
  H   H638      1.0  0.76153  0.41698  0.33835  1.0000
  C   C532      1.0  0.96484  0.35247  0.40097  1.0000
  C   C533      1.0  0.80556  0.60636  0.30095  1.0000
  C   C534      1.0  0.72411  0.64723  0.08850  1.0000
  H   H639      1.0  0.93716  0.52348  0.16556  1.0000
  H   H640      1.0  0.81578  0.63077  0.30624  1.0000
  N   N37       1.0  0.80054  0.45952  0.35016  1.0000
  H   H641      1.0  0.75017  0.57718  0.33457  1.0000
  C   C535      1.0  0.81633  0.44484  0.36470  1.0000
  H   H642      1.0  0.84193  0.50230  0.34689  1.0000
  S   S143      1.0  0.58514  0.46124  0.48169  1.0000
  C   C536      1.0  0.84236  0.36453  0.19925  1.0000
  H   H643      1.0  0.74098  0.65529  0.13849  1.0000
  Fe  Fe72      1.0  0.65752  0.49396  0.99937  1.0000
  H   H644      1.0  0.83188  0.48019  0.31089  1.0000
  H   H645      1.0  0.82365  0.60219  0.29233  1.0000
  H   H646      1.0  0.61568  0.62150  0.01964  1.0000
  C   C537      1.0  0.96757  0.56641  0.08470  1.0000
  S   S144      1.0  0.67502  0.49034  0.48212  1.0000
  H   H647      1.0  0.51867  0.53373  0.09583  1.0000
  Fe  Fe73      1.0  0.51299  0.65217  0.13893  1.0000
  H   H648      1.0  0.76994  0.61598  0.09087  1.0000
  C   C538      1.0  0.98845  0.37285  0.42130  1.0000
  C   C539      1.0  0.84450  0.41941  0.18350  1.0000
  H   H649      1.0  0.97845  0.64014  0.10925  1.0000
  H   H650      1.0  0.92849  0.57150  0.08553  1.0000
  C   C540      1.0  0.78688  0.46878  0.37597  1.0000
  H   H651      1.0  0.99143  0.51635  0.06341  1.0000
  S   S145      1.0  0.60350  0.63736  0.13613  1.0000
  C   C541      1.0  0.74376  0.59048  0.31992  1.0000
  C   C542      1.0  0.77845  0.43814  0.32647  1.0000
  H   H652      1.0  0.81192  0.49912  0.32252  1.0000
  H   H653      1.0  0.90920  0.54387  0.13693  1.0000
  S   S146      1.0  0.54174  0.65053  0.17854  1.0000
  H   H654      1.0  0.75555  0.62849  0.24843  1.0000
  H   H655      1.0  0.80487  0.63660  0.24831  1.0000
  C   C543      1.0  0.74359  0.46771  0.40224  1.0000
  H   H656      1.0  0.84474  0.44028  0.17859  1.0000
  N   N38       1.0  0.84011  0.33545  0.20777  1.0000
  H   H657      1.0  0.80739  0.51555  0.44213  1.0000
  H   H658      1.0  0.78939  0.43143  0.30761  1.0000
  H   H659      1.0  0.75038  0.55556  0.25189  1.0000
  C   C544      1.0  0.74684  0.61896  0.27190  1.0000
  H   H660      1.0  0.80161  0.34481  0.16994  1.0000
  H   H661      1.0  0.82920  0.49921  0.39996  1.0000
  C   C545      1.0  0.71309  0.59762  0.07302  1.0000
  H   H662      1.0  0.75656  0.55016  0.29329  1.0000
  C   C546      1.0  0.72117  0.59516  0.33207  1.0000
  H   H663      1.0  0.77773  0.60362  0.22595  1.0000
  C   C547      1.0  0.76760  0.56362  0.27142  1.0000
  N   N39       1.0  0.78086  0.59633  0.27700  1.0000
  S   S147      1.0  0.62695  0.44336  0.00219  1.0000
  H   H664      1.0  0.75283  0.49612  0.44388  1.0000
  H   H665      1.0  0.78486  0.55790  0.26391  1.0000
  H   H666      1.0  0.76457  0.62791  0.03830  1.0000
  H   H667      1.0  0.88347  0.39454  0.22643  1.0000
  H   H668      1.0  0.80364  0.39233  0.15745  1.0000
  H   H669      1.0  0.69379  0.61519  0.32384  1.0000
  H   H670      1.0  0.76694  0.44840  0.31320  1.0000
  H   H671      1.0  0.97521  0.57964  0.06286  1.0000
  H   H672      1.0  0.51170  0.65729  0.38861  1.0000
  C   C548      1.0  0.75313  0.64044  0.04617  1.0000
  S   S148      1.0  0.51938  0.34451  0.39254  1.0000
  H   H673      1.0  0.51648  0.58110  0.17962  1.0000
  C   C549      1.0  0.86465  0.33863  0.22926  1.0000
  N   N40       1.0  0.51396  0.55877  0.13477  1.0000
  H   H674      1.0  0.70030  0.64331  0.04320  1.0000
  C   C550      1.0  0.52929  0.54406  0.11943  1.0000
  C   C551      1.0  0.56472  0.36162  0.06941  1.0000
  C   C552      1.0  0.75938  0.62872  0.10070  1.0000
  H   H675      1.0  0.99000  0.39402  0.42761  1.0000
  C   C553      1.0  0.63672  0.63176  0.47153  1.0000
  H   H676      1.0  0.49773  0.33961  0.31250  1.0000
  H   H677      1.0  0.54176  0.34010  0.32331  1.0000
  H   H678      1.0  0.55040  0.33645  0.28190  1.0000
  C   C554      1.0  0.70527  0.65237  0.06749  1.0000
  H   H679      1.0  0.50221  0.33825  0.26955  1.0000
  Fe  Fe74      1.0  0.86419  0.33412  0.32001  1.0000
  H   H680      1.0  0.50747  0.59617  0.12377  1.0000
  S   S149      1.0  0.54716  0.66185  0.09999  1.0000
  H   H681      1.0  0.98627  0.66131  0.22663  1.0000
  H   H682      1.0  0.50957  0.57626  0.08868  1.0000
  H   H683      1.0  0.64471  0.61798  0.46032  1.0000
  C   C555      1.0  0.72754  0.65848  0.12063  1.0000
  C   C556      1.0  0.52257  0.37038  0.03589  1.0000
  H   H684      1.0  0.49674  0.66147  0.26197  1.0000
  H   H685      1.0  0.86194  0.33398  0.16413  1.0000
  H   H686      1.0  0.50779  0.37558  0.02231  1.0000
  C   C557      1.0  0.65173  0.66270  0.46657  1.0000
  Fe  Fe75      1.0  0.69858  0.54068  0.94967  1.0000
  H   H687      1.0  0.78449  0.46854  0.88001  1.0000
  S   S150      1.0  0.71029  0.54090  0.89566  1.0000
  Fe  Fe76      1.0  0.67186  0.56233  0.50760  1.0000
  S   S151      1.0  0.64809  0.51867  0.53412  1.0000
  S   S152      1.0  0.67012  0.60400  0.52619  1.0000
  Fe  Fe77      1.0  0.69050  0.51696  0.52848  1.0000
  S   S153      1.0  0.70478  0.49936  0.57157  1.0000
  H   H688      1.0  0.98274  0.64638  0.62330  1.0000
  H   H689      1.0  0.79026  0.64002  0.72528  1.0000
  H   H690      1.0  0.62199  0.57721  0.69940  1.0000
  S   S154      1.0  0.65034  0.52317  0.96445  1.0000
  C   C558      1.0  0.96699  0.51978  0.65601  1.0000
  H   H691      1.0  0.63879  0.62773  0.67691  1.0000
  H   H692      1.0  0.64089  0.49961  0.89649  1.0000
  S   S155      1.0  0.88102  0.39059  0.80771  1.0000
  Fe  Fe78      1.0  0.84056  0.54897  0.77480  1.0000
  S   S156      1.0  0.80492  0.51830  0.74015  1.0000
  S   S157      1.0  0.82891  0.55576  0.82689  1.0000
  Fe  Fe79      1.0  0.89218  0.56024  0.72548  1.0000
  S   S158      1.0  0.85868  0.52936  0.68863  1.0000
  S   S159      1.0  0.94284  0.57832  0.71842  1.0000
  Fe  Fe80      1.0  0.83232  0.55203  0.70184  1.0000
  S   S160      1.0  0.81494  0.57383  0.66652  1.0000
  Fe  Fe81      1.0  0.83486  0.49886  0.73082  1.0000
  S   S161      1.0  0.81378  0.44820  0.73301  1.0000
  S   S162      1.0  0.86692  0.58453  0.73714  1.0000
  S   S163      1.0  0.86945  0.52796  0.76706  1.0000
  H   H693      1.0  0.72909  0.62249  0.81582  1.0000
  C   C559      1.0  0.96465  0.61631  0.66419  1.0000
  C   C560      1.0  0.96990  0.60009  0.68805  1.0000
  C   C561      1.0  0.98499  0.42574  0.86930  1.0000
  H   H694      1.0  0.94343  0.61581  0.66366  1.0000
  C   C562      1.0  0.86140  0.40594  0.78753  1.0000
  C   C563      1.0  0.83091  0.38875  0.77998  1.0000
  C   C564      1.0  0.81646  0.40198  0.76349  1.0000
  C   C565      1.0  0.83226  0.43249  0.75475  1.0000
  C   C566      1.0  0.86255  0.44975  0.76285  1.0000
  C   C567      1.0  0.87702  0.43651  0.77915  1.0000
  H   H695      1.0  0.81844  0.36536  0.78698  1.0000
  H   H696      1.0  0.79296  0.38855  0.75746  1.0000
  H   H697      1.0  0.87506  0.47314  0.75590  1.0000
  H   H698      1.0  0.90058  0.44997  0.78495  1.0000
  C   C568      1.0  0.83395  0.42925  0.85467  1.0000
  C   C569      1.0  0.63807  0.58551  0.67978  1.0000
  H   H699      1.0  0.53797  0.44078  0.95548  1.0000
  C   C570      1.0  0.79755  0.37804  0.86911  1.0000
  S   S164      1.0  0.49816  0.38025  0.93668  1.0000
  C   C571      1.0  0.73674  0.52032  0.59623  1.0000
  C   C572      1.0  0.74246  0.50558  0.62156  1.0000
  C   C573      1.0  0.76672  0.52157  0.64285  1.0000
  C   C574      1.0  0.78524  0.55259  0.63923  1.0000
  C   C575      1.0  0.77948  0.56740  0.61399  1.0000
  C   C576      1.0  0.75554  0.55131  0.59233  1.0000
  H   H700      1.0  0.72802  0.48162  0.62473  1.0000
  H   H701      1.0  0.77089  0.50992  0.66219  1.0000
  H   H702      1.0  0.79385  0.59138  0.61092  1.0000
  H   H703      1.0  0.75168  0.56288  0.57267  1.0000
  C   C577      1.0  0.74279  0.54266  0.87774  1.0000
  C   C578      1.0  0.76934  0.55179  0.89508  1.0000
  C   C579      1.0  0.79515  0.55510  0.87925  1.0000
  C   C580      1.0  0.79481  0.54887  0.84599  1.0000
  C   C581      1.0  0.76786  0.53841  0.82897  1.0000
  C   C582      1.0  0.74225  0.53579  0.84461  1.0000
  H   H704      1.0  0.77029  0.55720  0.92053  1.0000
  H   H705      1.0  0.81571  0.56311  0.89286  1.0000
  H   H706      1.0  0.76679  0.53279  0.80365  1.0000
  H   H707      1.0  0.72196  0.52870  0.83082  1.0000
  C   C583      1.0  0.60835  0.61756  0.59817  1.0000
  C   C584      1.0  0.63282  0.64201  0.58341  1.0000
  C   C585      1.0  0.65141  0.63742  0.56172  1.0000
  C   C586      1.0  0.64592  0.60829  0.55425  1.0000
  C   C587      1.0  0.62157  0.58380  0.56918  1.0000
  C   C588      1.0  0.60313  0.58846  0.59107  1.0000
  H   H708      1.0  0.97562  0.37120  0.95693  1.0000
  C   C589      1.0  0.95867  0.34529  0.91293  1.0000
  H   H709      1.0  0.61686  0.56124  0.56384  1.0000
  H   H710      1.0  0.58460  0.56929  0.60258  1.0000
  C   C590      1.0  0.53466  0.39730  0.95316  1.0000
  C   C591      1.0  0.59203  0.42626  0.98200  1.0000
  H   H711      1.0  0.53992  0.34118  0.86471  1.0000
  H   H712      1.0  0.60081  0.59448  0.49618  1.0000
  H   H713      1.0  0.79555  0.35711  0.69005  1.0000
  C   C592      1.0  0.54914  0.42810  0.96045  1.0000
  C   C593      1.0  0.84259  0.36828  0.69376  1.0000
  H   H714      1.0  0.60822  0.47066  0.91589  1.0000
  H   H715      1.0  0.89140  0.38998  0.69358  1.0000
  C   C594      1.0  0.57778  0.39550  0.97426  1.0000
  H   H716      1.0  0.63375  0.40350  0.87191  1.0000
  C   C595      1.0  0.58773  0.37035  0.86766  1.0000
  H   H717      1.0  0.53840  0.35742  0.95382  1.0000
  H   H718      1.0  0.90034  0.44007  0.68006  1.0000
  S   S165      1.0  0.58503  0.62213  0.62727  1.0000
  N   N41       1.0  0.67792  0.55699  0.62506  1.0000
  C   C596      1.0  0.65135  0.52747  0.61707  1.0000
  C   C597      1.0  0.69528  0.56910  0.59472  1.0000
  C   C598      1.0  0.69696  0.55203  0.64830  1.0000
  C   C599      1.0  0.66837  0.57717  0.63972  1.0000
  C   C600      1.0  0.67842  0.60683  0.62825  1.0000
  C   C601      1.0  0.64853  0.56741  0.66654  1.0000
  H   H719      1.0  0.59133  0.66037  0.56404  1.0000
  H   H720      1.0  0.93715  0.34399  0.91452  1.0000
  H   H721      1.0  0.96444  0.41244  0.85572  1.0000
  H   H722      1.0  0.63539  0.53043  0.60139  1.0000
  H   H723      1.0  0.65777  0.51251  0.60400  1.0000
  H   H724      1.0  0.63899  0.51463  0.63880  1.0000
  H   H725      1.0  0.68237  0.57401  0.57650  1.0000
  H   H726      1.0  0.70062  0.55279  0.58319  1.0000
  H   H727      1.0  0.71713  0.58986  0.59901  1.0000
  H   H728      1.0  0.68500  0.54172  0.67122  1.0000
  H   H729      1.0  0.70422  0.53660  0.63809  1.0000
  H   H730      1.0  0.71756  0.57354  0.65437  1.0000
  H   H731      1.0  0.69342  0.61635  0.60793  1.0000
  H   H732      1.0  0.64049  0.54548  0.67713  1.0000
  H   H733      1.0  0.76342  0.60002  0.72327  1.0000
  H   H734      1.0  0.80607  0.40719  0.67596  1.0000
  C   C602      1.0  0.53442  0.33956  0.50238  1.0000
  H   H735      1.0  0.77703  0.45542  0.82257  1.0000
  H   H736      1.0  0.85499  0.51364  0.83812  1.0000
  C   C603      1.0  0.98727  0.53163  0.63034  1.0000
  H   H737      1.0  0.80740  0.45924  0.79830  1.0000
  H   H738      1.0  0.76401  0.42011  0.86387  1.0000
  H   H739      1.0  0.83846  0.65731  0.75766  1.0000
  H   H740      1.0  0.84402  0.39347  0.86040  1.0000
  C   C604      1.0  0.76206  0.61936  0.78649  1.0000
  H   H741      1.0  0.80425  0.57703  0.73139  1.0000
  C   C605      1.0  0.82680  0.39973  0.86154  1.0000
  Fe  Fe82      1.0  0.56902  0.65607  0.63914  1.0000
  S   S166      1.0  0.70460  0.50975  0.98290  1.0000
  C   C606      1.0  0.54923  0.38107  0.95966  1.0000
  H   H742      1.0  0.95829  0.57177  0.59444  1.0000
  H   H743      1.0  0.80684  0.49197  0.81245  1.0000
  H   H744      1.0  0.81522  0.50490  0.87223  1.0000
  C   C607      1.0  0.82448  0.40287  0.67927  1.0000
  C   C608      1.0  0.81177  0.43802  0.85564  1.0000
  H   H745      1.0  0.86464  0.49178  0.86387  1.0000
  H   H746      1.0  0.92354  0.55038  0.63899  1.0000
  N   N42       1.0  0.63093  0.45443  0.88525  1.0000
  C   C609      1.0  0.64945  0.46497  0.85554  1.0000
  C   C610      1.0  0.62132  0.47659  0.89300  1.0000
  C   C611      1.0  0.64996  0.45475  0.91242  1.0000
  C   C612      1.0  0.60563  0.42350  0.88016  1.0000
  C   C613      1.0  0.57511  0.41611  0.88143  1.0000
  C   C614      1.0  0.61118  0.39965  0.87313  1.0000
  C   C615      1.0  0.55188  0.38679  0.87560  1.0000
  H   H747      1.0  0.85787  0.44900  0.67141  1.0000
  C   C616      1.0  0.55812  0.36394  0.86885  1.0000
  H   H748      1.0  0.66822  0.48855  0.85823  1.0000
  H   H749      1.0  0.65990  0.45119  0.84962  1.0000
  H   H750      1.0  0.63576  0.46427  0.83433  1.0000
  H   H751      1.0  0.98129  0.57268  0.54645  1.0000
  C   C617      1.0  0.98069  0.36090  0.93696  1.0000
  H   H752      1.0  0.77157  0.56439  0.75600  1.0000
  H   H753      1.0  0.66108  0.44148  0.90727  1.0000
  H   H754      1.0  0.66818  0.47797  0.91823  1.0000
  H   H755      1.0  0.63648  0.44533  0.93473  1.0000
  H   H756      1.0  0.56841  0.43237  0.88737  1.0000
  H   H757      1.0  0.98402  0.52548  0.54967  1.0000
  C   C618      1.0  0.77523  0.38578  0.86993  1.0000
  Fe  Fe83      1.0  0.50906  0.65454  0.64987  1.0000
  N   N43       1.0  0.80084  0.61231  0.75551  1.0000
  H   H758      1.0  0.84356  0.63242  0.73105  1.0000
  C   C619      1.0  0.74903  0.62044  0.81578  1.0000
  C   C620      1.0  0.78784  0.61600  0.78591  1.0000
  C   C621      1.0  0.78673  0.61561  0.84538  1.0000
  H   H759      1.0  0.85882  0.48387  0.82088  1.0000
  H   H760      1.0  0.75125  0.62077  0.76471  1.0000
  C   C622      1.0  0.79581  0.58132  0.75428  1.0000
  C   C623      1.0  0.94401  0.52643  0.65893  1.0000
  C   C624      1.0  0.60234  0.63617  0.50786  1.0000
  H   H761      1.0  0.84608  0.62917  0.77348  1.0000
  C   C625      1.0  0.85376  0.42657  0.67671  1.0000
  C   C626      1.0  0.96141  0.55697  0.61050  1.0000
  N   N44       1.0  0.83747  0.33828  0.70334  1.0000
  C   C627      1.0  0.64768  0.61409  0.66736  1.0000
  H   H762      1.0  0.81996  0.48000  0.89909  1.0000
  C   C628      1.0  0.78755  0.61712  0.72573  1.0000
  C   C629      1.0  0.78213  0.41528  0.86328  1.0000
  H   H763      1.0  0.80750  0.57685  0.77426  1.0000
  S   S167      1.0  0.71572  0.56196  0.50387  1.0000
  H   H764      1.0  0.92886  0.51811  0.67940  1.0000
  H   H765      1.0  0.75244  0.36874  0.87560  1.0000
  H   H766      1.0  0.85695  0.44454  0.84820  1.0000
  C   C630      1.0  0.83358  0.63377  0.75449  1.0000
  H   H767      1.0  0.75058  0.61832  0.86779  1.0000
  N   N45       1.0  0.81841  0.46906  0.84859  1.0000
  C   C631      1.0  0.80165  0.46889  0.81931  1.0000
  C   C632      1.0  0.80908  0.48100  0.87619  1.0000
  C   C633      1.0  0.85066  0.49039  0.84266  1.0000
  H   H768      1.0  0.79846  0.61485  0.70341  1.0000
  H   H769      1.0  0.60769  0.47840  0.87316  1.0000
  C   C634      1.0  0.66823  0.62491  0.64211  1.0000
  H   H770      1.0  0.59245  0.35243  0.86253  1.0000
  H   H771      1.0  0.67543  0.64709  0.63236  1.0000
  H   H772      1.0  0.81878  0.61076  0.81794  1.0000
  Fe  Fe84      1.0  0.86383  0.34117  0.81848  1.0000
  H   H773      1.0  0.58361  0.62438  0.52407  1.0000
  S   S168      1.0  0.53480  0.65625  0.60528  1.0000
  H   H774      1.0  0.97673  0.46221  0.87729  1.0000
  C   C635      1.0  0.87218  0.39277  0.68990  1.0000
  S   S169      1.0  0.54112  0.65106  0.68367  1.0000
  H   H775      1.0  0.96939  0.50583  0.67410  1.0000
  C   C636      1.0  0.87758  0.42151  0.68183  1.0000
  C   C637      1.0  0.98533  0.55088  0.60696  1.0000
  C   C638      1.0  0.94105  0.54469  0.63605  1.0000
  H   H776      1.0  0.52876  0.38163  0.87696  1.0000
  H   H777      1.0  0.54202  0.34838  0.52728  1.0000
  C   C639      1.0  0.81879  0.37412  0.68771  1.0000
  H   H778      1.0  0.55079  0.33379  0.49205  1.0000
  C   C640      1.0  0.57777  0.44258  0.97462  1.0000
  H   H779      1.0  0.79219  0.35512  0.87408  1.0000
  C   C641      1.0  0.61190  0.61851  0.49179  1.0000
  S   S170      1.0  0.71466  0.57812  0.98641  1.0000
  H   H780      1.0  0.67022  0.65660  0.55060  1.0000
  C   C642      1.0  0.98708  0.63365  0.64123  1.0000
  H   H781      1.0  0.84857  0.35122  0.75314  1.0000
  H   H782      1.0  0.79587  0.61351  0.86827  1.0000
  H   H783      1.0  0.87918  0.35413  0.72998  1.0000
  C   C643      1.0  0.79981  0.61429  0.81631  1.0000
  H   H784      1.0  0.56328  0.65375  0.53366  1.0000
  C   C644      1.0  0.76120  0.61833  0.84514  1.0000
  C   C645      1.0  0.85456  0.34077  0.73322  1.0000
  H   H785      1.0  0.87223  0.34026  0.67257  1.0000
  H   H786      1.0  0.58838  0.46618  0.98074  1.0000
  H   H787      1.0  0.58870  0.38274  0.97997  1.0000
  C   C646      1.0  0.99275  0.33310  0.88606  1.0000
  C   C647      1.0  0.99197  0.45377  0.88157  1.0000
  H   H788      1.0  0.53616  0.35844  0.48740  1.0000
  Fe  Fe85      1.0  0.57149  0.89092  0.41914  1.0000
  S   S171      1.0  0.52734  0.86344  0.44406  1.0000
  S   S172      1.0  0.60451  0.94090  0.43163  1.0000
  Fe  Fe86      1.0  0.55447  0.84061  0.36624  1.0000
  H   H789      1.0  0.59237  0.78111  0.44546  1.0000
  S   S173      1.0  0.57141  0.82814  0.31996  1.0000
  H   H790      1.0  0.67608  0.67083  0.06158  1.0000
  Fe  Fe87      1.0  0.53358  0.82357  0.43600  1.0000
  C   C648      1.0  0.54525  0.76639  0.40463  1.0000
  S   S174      1.0  0.55056  0.88266  0.36925  1.0000
  S   S175      1.0  0.57955  0.85141  0.41404  1.0000
  Fe  Fe88      1.0  0.56437  0.71048  0.11205  1.0000
  S   S176      1.0  0.59620  0.71253  0.15114  1.0000
  S   S177      1.0  0.58382  0.74564  0.07220  1.0000
  H   H791      1.0  0.53581  0.76827  0.38112  1.0000
  Fe  Fe89      1.0  0.55753  0.70004  0.18566  1.0000
  S   S178      1.0  0.55226  0.71277  0.23826  1.0000
  C   C649      1.0  0.57228  0.73223  0.35063  1.0000
  H   H792      1.0  0.58726  0.79233  0.35971  1.0000
  S   S179      1.0  0.52714  0.70088  0.14686  1.0000
  C   C650      1.0  0.52877  0.67825  0.37812  1.0000
  C   C651      1.0  0.56363  0.79575  0.29599  1.0000
  C   C652      1.0  0.58045  0.79964  0.26769  1.0000
  C   C653      1.0  0.57637  0.77478  0.24888  1.0000
  C   C654      1.0  0.55569  0.74539  0.25837  1.0000
  C   C655      1.0  0.53858  0.74153  0.28641  1.0000
  C   C656      1.0  0.54217  0.76640  0.30477  1.0000
  H   H793      1.0  0.59708  0.82212  0.26040  1.0000
  H   H794      1.0  0.58997  0.77838  0.22763  1.0000
  H   H795      1.0  0.52239  0.71906  0.29411  1.0000
  H   H796      1.0  0.52844  0.76275  0.32583  1.0000
  H   H797      1.0  0.57176  0.87597  0.01995  1.0000
  C   C657      1.0  0.51705  0.75764  0.03544  1.0000
  C   C658      1.0  0.53277  0.74746  0.05475  1.0000
  C   C659      1.0  0.56211  0.75523  0.04681  1.0000
  C   C660      1.0  0.57525  0.77256  0.01890  1.0000
  H   H798      1.0  0.71524  0.68170  0.15555  1.0000
  C   C661      1.0  0.60914  0.85460  0.04151  1.0000
  H   H799      1.0  0.52242  0.73418  0.07615  1.0000
  H   H800      1.0  0.59789  0.77854  0.01253  1.0000
  H   H801      1.0  0.55994  0.96988  0.44989  1.0000
  C   C662      1.0  0.69449  0.67830  0.10955  1.0000
  C   C663      1.0  0.60500  0.81855  0.09556  1.0000
  C   C664      1.0  0.53877  0.70527  0.39490  1.0000
  H   H802      1.0  0.58852  0.75225  0.33809  1.0000
  S   S180      1.0  0.50901  0.81144  0.38817  1.0000
  H   H803      1.0  0.56725  0.84532  0.99448  1.0000
  H   H804      1.0  0.52676  0.74825  0.41883  1.0000
  H   H805      1.0  0.56069  0.83473  0.04988  1.0000
  H   H806      1.0  0.67118  0.67286  0.45094  1.0000
  C   C665      1.0  0.63464  0.85421  0.05397  1.0000
  H   H807      1.0  0.55821  0.80443  0.09574  1.0000
  C   C666      1.0  0.59940  0.95053  0.99491  1.0000
  H   H808      1.0  0.65639  0.86742  0.04301  1.0000
  C   C667      1.0  0.62742  0.99583  0.46274  1.0000
  C   C668      1.0  0.54041  0.67818  0.34774  1.0000
  H   H809      1.0  0.63435  0.92023  0.00009  1.0000
  H   H810      1.0  0.62135  0.91228  0.04119  1.0000
  C   C669      1.0  0.58248  0.75932  0.43222  1.0000
  H   H811      1.0  0.59380  0.96547  0.04197  1.0000
  C   C670      1.0  0.58282  0.86912  0.00145  1.0000
  H   H812      1.0  0.65189  0.83525  0.08877  1.0000
  C   C671      1.0  0.63244  0.83619  0.08041  1.0000
  H   H813      1.0  0.52878  0.70430  0.41819  1.0000
  C   C672      1.0  0.57970  0.81899  0.08451  1.0000
  C   C673      1.0  0.60744  0.97166  0.02038  1.0000
  H   H814      1.0  0.60308  0.80368  0.11522  1.0000
  C   C674      1.0  0.68162  0.97240  0.45580  1.0000
  H   H815      1.0  0.61527  0.78641  0.37944  1.0000
  H   H816      1.0  0.56454  0.74274  0.44831  1.0000
  N   N46       1.0  0.57092  0.76139  0.39994  1.0000
  H   H817      1.0  0.57972  0.92854  0.99708  1.0000
  C   C675      1.0  0.61290  0.96436  0.46676  1.0000
  C   C676      1.0  0.56090  0.73312  0.38171  1.0000
  C   C677      1.0  0.71286  0.67376  0.13083  1.0000
  C   C678      1.0  0.59498  0.78836  0.38342  1.0000
  C   C679      1.0  0.64221  0.68059  0.48225  1.0000
  C   C680      1.0  0.56208  0.70509  0.33405  1.0000
  H   H818      1.0  0.65405  0.91081  0.02905  1.0000
  N   N47       1.0  0.61196  0.87334  0.01300  1.0000
  Fe  Fe90      1.0  0.50669  0.85378  0.39427  1.0000
  C   C681      1.0  0.58152  0.83659  0.05785  1.0000
  C   C682      1.0  0.63130  0.90553  0.02128  1.0000
  H   H819      1.0  0.60013  0.75302  0.42996  1.0000
  C   C683      1.0  0.69470  0.99341  0.43108  1.0000
  H   H820      1.0  0.57057  0.70510  0.30998  1.0000
  H   H821      1.0  0.55199  0.78743  0.41826  1.0000
  S   S181      1.0  0.51567  0.78387  0.47099  1.0000
  H   H822      1.0  0.68240  0.68933  0.11773  1.0000
  H   H823      1.0  0.60214  0.80923  0.39773  1.0000
  H   H824      1.0  0.64931  0.87214  0.99034  1.0000
  C   C684      1.0  0.53031  0.77526  0.00779  1.0000
  H   H825      1.0  0.69224  0.98571  0.40624  1.0000
  H   H826      1.0  0.57783  0.68347  0.48335  1.0000
  C   C685      1.0  0.69097  0.66790  0.07787  1.0000
  H   H827      1.0  0.65456  0.70446  0.47762  1.0000
  C   C686      1.0  0.55929  0.78222  0.99925  1.0000
  H   H828      1.0  0.66870  0.94862  0.45012  1.0000
  H   H829      1.0  0.77029  0.66469  0.04786  1.0000
  H   H830      1.0  0.51778  0.92297  0.47101  1.0000
  H   H831      1.0  0.61475  0.71550  0.47929  1.0000
  C   C687      1.0  0.55002  0.97018  0.47296  1.0000
  H   H832      1.0  0.49551  0.68288  0.20894  1.0000
  C   C688      1.0  0.52628  0.94362  0.48488  1.0000
  Fe  Fe91      1.0  0.56981  0.88484  0.92051  1.0000
  S   S182      1.0  0.52717  0.86399  0.94869  1.0000
  S   S183      1.0  0.60993  0.93111  0.93522  1.0000
  Fe  Fe92      1.0  0.54320  0.83175  0.87009  1.0000
  H   H833      1.0  0.51115  0.70503  0.72223  1.0000
  S   S184      1.0  0.54427  0.81237  0.81955  1.0000
  C   C689      1.0  0.61715  0.95772  0.96705  1.0000
  Fe  Fe93      1.0  0.52669  0.82033  0.94198  1.0000
  H   H834      1.0  0.49624  0.95953  0.97416  1.0000
  S   S185      1.0  0.54600  0.87735  0.87239  1.0000
  S   S186      1.0  0.57102  0.84126  0.91595  1.0000
  Fe  Fe94      1.0  0.55994  0.70654  0.61222  1.0000
  S   S187      1.0  0.59489  0.70646  0.64536  1.0000
  S   S188      1.0  0.58070  0.74029  0.57070  1.0000
  C   C690      1.0  0.57065  0.99278  0.95922  1.0000
  Fe  Fe95      1.0  0.56348  0.70181  0.68636  1.0000
  S   S189      1.0  0.57457  0.72355  0.73740  1.0000
  C   C691      1.0  0.50094  0.72544  0.83715  1.0000
  C   C692      1.0  0.51981  0.97640  0.97496  1.0000
  S   S190      1.0  0.53060  0.70507  0.65332  1.0000
  C   C693      1.0  0.53435  0.77306  0.49941  1.0000
  C   C694      1.0  0.55366  0.78810  0.79716  1.0000
  C   C695      1.0  0.54532  0.78216  0.76426  1.0000
  C   C696      1.0  0.55169  0.76289  0.74558  1.0000
  C   C697      1.0  0.56649  0.74895  0.75948  1.0000
  C   C698      1.0  0.57514  0.75516  0.79228  1.0000
  C   C699      1.0  0.56883  0.77451  0.81095  1.0000
  H   H835      1.0  0.53387  0.79266  0.75306  1.0000
  H   H836      1.0  0.54540  0.75913  0.72032  1.0000
  H   H837      1.0  0.58674  0.74482  0.80345  1.0000
  H   H838      1.0  0.57560  0.77879  0.83605  1.0000
  H   H839      1.0  0.50758  0.74038  0.85788  1.0000
  C   C700      1.0  0.51720  0.74772  0.51893  1.0000
  C   C701      1.0  0.53098  0.73777  0.54138  1.0000
  C   C702      1.0  0.56215  0.75288  0.54421  1.0000
  C   C703      1.0  0.57935  0.77805  0.52443  1.0000
  C   C704      1.0  0.56553  0.78833  0.50239  1.0000
  C   C705      1.0  0.63445  0.71201  0.53839  1.0000
  H   H840      1.0  0.51748  0.71836  0.55639  1.0000
  H   H841      1.0  0.60349  0.79000  0.52664  1.0000
  H   H842      1.0  0.58658  0.98869  0.94632  1.0000
  C   C706      1.0  0.59728  0.70114  0.49706  1.0000
  H   H843      1.0  0.58562  0.88301  0.97971  1.0000
  C   C707      1.0  0.61703  0.97265  0.52528  1.0000
  H   H844      1.0  0.65643  0.99271  0.94354  1.0000
  H   H845      1.0  0.61331  0.96339  0.54947  1.0000
  H   H846      1.0  0.53281  0.95068  0.94471  1.0000
  H   H847      1.0  0.51743  0.66580  0.74891  1.0000
  H   H848      1.0  0.52779  0.70609  0.85093  1.0000
  H   H849      1.0  0.67326  0.96555  0.50680  1.0000
  C   C708      1.0  0.51236  0.70615  0.83311  1.0000
  H   H850      1.0  0.56928  0.79496  0.97751  1.0000
  H   H851      1.0  0.50081  0.90037  0.83252  1.0000
  H   H852      1.0  0.64513  0.70282  0.55464  1.0000
  S   S191      1.0  0.49886  0.80850  0.89647  1.0000
  H   H853      1.0  0.62622  0.87831  0.96306  1.0000
  H   H854      1.0  0.59618  0.92887  0.50206  1.0000
  H   H855      1.0  0.62766  0.72550  0.55371  1.0000
  C   C709      1.0  0.52507  0.97008  0.53283  1.0000
  Fe  Fe96      1.0  0.50326  0.85411  0.90084  1.0000
  C   C710      1.0  0.58446  0.67115  0.54507  1.0000
  C   C711      1.0  0.50520  0.68806  0.80550  1.0000
  N   N48       1.0  0.60849  0.68751  0.52093  1.0000
  C   C712      1.0  0.61758  0.66795  0.50391  1.0000
  C   C713      1.0  0.64245  0.98674  0.96485  1.0000
  H   H856      1.0  0.57880  0.68661  0.55793  1.0000
  C   C714      1.0  0.54034  0.97135  0.95828  1.0000
  H   H857      1.0  0.51574  0.67451  0.80345  1.0000
  S   S192      1.0  0.51020  0.78891  0.98543  1.0000
  C   C715      1.0  0.60723  0.95292  0.49835  1.0000
  H   H858      1.0  0.51468  0.96887  0.55587  1.0000
  H   H859      1.0  0.58979  0.71568  0.50920  1.0000
  H   H860      1.0  0.65193  0.72831  0.52183  1.0000
  H   H861      1.0  0.57892  0.80812  0.48787  1.0000
  C   C716      1.0  0.51371  0.94359  0.51469  1.0000
  H   H862      1.0  0.61303  0.84156  0.97992  1.0000
  C   C717      1.0  0.62575  0.86600  0.98554  1.0000
  H   H863      1.0  0.63798  0.66450  0.58962  1.0000
  C   C718      1.0  0.56163  0.99679  0.49090  1.0000
  C   C719      1.0  0.54965  0.99747  0.52169  1.0000
  C   C720      1.0  0.68415  0.98200  0.48773  1.0000
  H   H864      1.0  0.49527  0.92278  0.52386  1.0000
