data_image0
_chemical_formula_structural       SHFeSHS3FeSFeS2FeSFeS3FeSHFeS2HSFeSHSC6H4C6H4C6HCH3C3H2C2H2C2HCHC2HC2HCFeC3HNC8H8C3H4CNCH5C2HNCHNH3CHNH4C3H2C2H4C2H3CHC3H2CFeH2CSC2H3CHCH4C2HC2HCHCH4FeH3SCFeCSC3FeSHCFeSFeS2FeSFeS3FeS2FeS2HSFeSHSC6H4C6H4C6NH2CH2C2H2CFeH4SHCNHNC9H16C4H2CHC2H2SH2CH5FeNC2H4CH2CHC3HSHCHCH4C2SHC2HCSCNH2CH4C4H2CSHFeS2HCSFeHFeS3FeSFeS2FeSFeS3CHC2SHFeSHSNCHCSC9H4CH4FeH3C6H4C6H4NCHCH6CH3CH4CHCH6NC5SH8SH3NH2CH9CHCHCNC9HCH3C2SC2H2CFeS2HFeSFeSFeHS2FeSFeS2FeSFeS3HSC2SCFeSCSC2NHCH2SC6H4CH3CHC2HC6H4C6H3CHFeH12SHCHCHC2H2C3H4C2N2C8NH11FeH2CH4C2H2CHCHC2NHC2HC3FeH2C2H3CH3SHCH3C5H3CH2CH4CH2FeH2CHCHCHCHCHCS2H2CHSFeSH2S2FeS2FeS2FeSFeS4C6H4C6H4C6H6C5H3C2HNH4CHC7H3CH2SH3CSHCH8SC2HC2H8C3HCHNHCHSHNC6HC2H11CH2CHFeC4H4CHC2H2C5HNC6HCH2CH5SHFeHC6HNH2SHFeH2SH2NH2CHC4H2CHFeC2SC3HC2HSHS2CSFeSHCS2FeS2FeS2FeSFeS4C6H4C6H4C6H4C5H3CHCH2CH5C8H4N2CH6CSH4C2H2CHSH2C3H6NC9H12NCHCHCHCH3C2NCHC3H5C2H5CH3NCFeHSC4HC2S2CH2C3H2CHCH4C4H3CSCHSCHCHCFeCSFeS2FeSFeHS2CSHCSHFe2CS2H5CSHC6H5CH3C3H2SCH2CNCH2C4NH3C3FeCH6C2FeH4C2H2C3SCH3CSH2C2HCHC2H3CH4CH4C3FeH2FeS2FeHFeS5HCSHSFeCSCHCH2FeH3C6H5CH7C2H3C3H2NH2CHFeHC2HCHC2SC3FeCH2CNC2SH3CH3SCH4C2HCHSC2H4SNSFe2SHSCSCSFeHFeSC8H7CFeC3H3C2H5CHCH4C2NH3C5H2CH2CH2C2HNHCHC2HCH3CH5CHFeHCH8C2SHSNFeSHSHSFeSC2FeS2HC6H5C3H6CHCHFeH5CH3CH2Fe2H2NC4HCSH2C2HC2FeNCFeH2CHSH5C2H2CHC2H2CH2FeS2FeS2FeSFeS3CSHSFeSHSHCNCSC5HCH3C2HCHC3H3C4HSH2C7H4C6H3C5H5CH7C3H3CH3CHCHFeCFeH3C3H4CH2C3HC2NCH2CHNC2H3CHNCHC2H3C2H3C2H3C2H2CHC2H2CH2CH2SH3C2NC3H3NH6CHC2H2SH2SH3C2FeSFeHCHCSC3H2FeS2FeS2FeSFeS3FeSHSFeSHSCH3SC5H3C5H2C2H2CHCH3CHC2HC6H4C6H4NC5H10NHFeC3H3CHCHC3H3C2HCHNSHNHSHCHNC4H2CH5NH2C2HCH8CH3C2H2CHCSC3HC2H4C3HC2H3CNHCH4CSHCFeC2H7CHC3H2CSFeS2FeSFeS3FeS2HSFeSFeS3Fe2S2FeHFeCS2HFeC2HCNC2SHC6H4CH3C9H4C6H4SC3H2CH2C2SC2H3CHCH2CHC3H2C2SNC9H14SHC2H2C2HCNCH2SH5C2H2C2H5CH2NC2H2CH2CNHCH2C2H8C4H2CH6CH5SFeS2FeSFeS3FeS2HCFeSFeS3Fe2S2FeHFeS3C2H2CHCHC2HC6H4S2CHCHC7H4C6H4CFeHCNC6H12C3HC2H3C2H2CH10C2H3C3H3CHC2H3CH2CH3NH2CS2NC3H2FeC3H2CH2C4H2CH3CFeS2FeSFeSHSFeS2HCSFeSFeNS2HCHC3SHC2HNC7H4C6H4C5H14C2HC3HSH6C5H3CH3C4NC6HC3H6CH3C2HCHC2HCH3SHFeCNH2C2H2SCSC2H5CHCHNC3H2C4H2CH6CHCHCHCHNHSFeS2FeSFeS3FeS2H2SFeSFeS3H3C2SHC3SH2C6H4C6H4CH3CH2CHCHCHCHCHC2HCH4CH2C2HCHC2NCHC3HC2H3FeH5CH5NC4FeH2C2HCH3C2HC2HCH2NC8H8C2H3C2HC2H2SCH2C4HCHC3HCHCH3C2H3
_chemical_formula_sum              "S288 H1296 Fe144 C1080 N72"
_cell_length_a       57.2443
_cell_length_b       57.1493
_cell_length_c       48.8672
_cell_angle_alpha    89.8281
_cell_angle_beta     90.1565
_cell_angle_gamma    119.826

_space_group_name_H-M_alt    "P 1"
_space_group_IT_number       1

loop_
  _space_group_symop_operation_xyz
  'x, y, z'

loop_
  _atom_site_type_symbol
  _atom_site_label
  _atom_site_symmetry_multiplicity
  _atom_site_fract_x
  _atom_site_fract_y
  _atom_site_fract_z
  _atom_site_occupancy
  S   S1        1.0  0.23758  0.13797  0.41171  1.0000
  H   H1        1.0  0.23732  0.20155  0.97705  1.0000
  Fe  Fe1       1.0  0.24273  0.11066  0.44169  1.0000
  S   S2        1.0  0.21284  0.06558  0.43495  1.0000
  H   H2        1.0  0.22979  0.33782  0.33973  1.0000
  S   S3        1.0  0.23023  0.19588  0.44563  1.0000
  S   S4        1.0  0.08377  0.46494  0.34049  1.0000
  S   S5        1.0  0.02585  0.48072  0.34921  1.0000
  Fe  Fe2       1.0  0.23084  0.40746  0.28550  1.0000
  S   S6        1.0  0.20583  0.36399  0.27302  1.0000
  Fe  Fe3       1.0  0.18288  0.41645  0.27508  1.0000
  S   S7        1.0  0.15504  0.37346  0.26187  1.0000
  S   S8        1.0  0.17090  0.44919  0.27263  1.0000
  Fe  Fe4       1.0  0.17273  0.36302  0.29813  1.0000
  S   S9        1.0  0.14971  0.32513  0.32417  1.0000
  Fe  Fe5       1.0  0.19017  0.37721  0.23740  1.0000
  S   S10       1.0  0.19212  0.35854  0.19594  1.0000
  S   S11       1.0  0.19831  0.40559  0.31297  1.0000
  S   S12       1.0  0.21742  0.42113  0.24828  1.0000
  Fe  Fe6       1.0  0.14757  0.25176  0.00507  1.0000
  S   S13       1.0  0.16108  0.29522  0.01585  1.0000
  H   H3        1.0  0.21757  0.36959  0.42243  1.0000
  Fe  Fe7       1.0  0.08802  0.23706  0.00365  1.0000
  S   S14       1.0  0.09803  0.27928  0.01402  1.0000
  S   S15       1.0  0.04449  0.20166  0.00167  1.0000
  H   H4        1.0  0.19851  0.04287  0.34338  1.0000
  S   S16       1.0  0.15182  0.33412  0.45438  1.0000
  Fe  Fe8       1.0  0.12682  0.27940  0.04588  1.0000
  S   S17       1.0  0.12441  0.29698  0.08797  1.0000
  H   H5        1.0  0.23147  0.36838  0.32910  1.0000
  S   S18       1.0  0.11489  0.23601  0.03733  1.0000
  C   C1        1.0  0.17281  0.34164  0.16605  1.0000
  C   C2        1.0  0.18507  0.33459  0.14509  1.0000
  C   C3        1.0  0.17077  0.32106  0.12114  1.0000
  C   C4        1.0  0.14381  0.31423  0.11772  1.0000
  C   C5        1.0  0.13160  0.32144  0.13859  1.0000
  C   C6        1.0  0.14591  0.33501  0.16252  1.0000
  H   H6        1.0  0.20585  0.33959  0.14741  1.0000
  H   H7        1.0  0.18059  0.31576  0.10542  1.0000
  H   H8        1.0  0.11083  0.31644  0.13626  1.0000
  H   H9        1.0  0.13610  0.34038  0.17815  1.0000
  C   C7        1.0  0.14995  0.32759  0.36039  1.0000
  C   C8        1.0  0.14104  0.30426  0.37655  1.0000
  C   C9        1.0  0.14170  0.30583  0.40539  1.0000
  C   C10       1.0  0.15117  0.33078  0.41828  1.0000
  C   C11       1.0  0.15984  0.35400  0.40210  1.0000
  C   C12       1.0  0.15926  0.35244  0.37335  1.0000
  H   H10       1.0  0.13388  0.28494  0.36672  1.0000
  H   H11       1.0  0.13505  0.28779  0.41758  1.0000
  H   H12       1.0  0.16695  0.37336  0.41188  1.0000
  H   H13       1.0  0.16583  0.37050  0.36122  1.0000
  C   C13       1.0  0.10791  0.46087  0.32105  1.0000
  C   C14       1.0  0.12270  0.47837  0.29972  1.0000
  C   C15       1.0  0.14179  0.47443  0.28516  1.0000
  C   C16       1.0  0.14631  0.45294  0.29159  1.0000
  C   C17       1.0  0.13142  0.43538  0.31284  1.0000
  C   C18       1.0  0.11242  0.43938  0.32746  1.0000
  H   H14       1.0  0.12203  0.35638  0.03691  1.0000
  C   C19       1.0  0.18372  0.43039  0.08218  1.0000
  H   H15       1.0  0.13464  0.41880  0.31810  1.0000
  H   H16       1.0  0.10115  0.42573  0.34391  1.0000
  H   H17       1.0  0.24969  0.13320  0.33054  1.0000
  C   C20       1.0  0.01571  0.19689  0.98283  1.0000
  C   C21       1.0  0.21192  0.33375  0.44100  1.0000
  C   C22       1.0  0.07274  0.31983  0.46163  1.0000
  H   H18       1.0  0.18288  0.24570  0.46702  1.0000
  H   H19       1.0  0.20517  0.38354  0.02191  1.0000
  C   C23       1.0  0.18425  0.41702  0.10587  1.0000
  C   C24       1.0  0.01877  0.27160  0.45878  1.0000
  H   H20       1.0  0.09504  0.33304  0.46340  1.0000
  H   H21       1.0  0.15316  0.48815  0.26880  1.0000
  C   C25       1.0  0.19410  0.08641  0.36528  1.0000
  C   C26       1.0  0.23268  0.32418  0.39347  1.0000
  H   H22       1.0  0.24181  0.06090  0.01175  1.0000
  C   C27       1.0  0.20520  0.03696  0.45587  1.0000
  H   H23       1.0  0.18817  0.45115  0.08348  1.0000
  C   C28       1.0  0.13728  0.35085  0.03051  1.0000
  C   C29       1.0  0.23097  0.34812  0.39494  1.0000
  H   H24       1.0  0.07841  0.30135  0.39732  1.0000
  C   C30       1.0  0.19228  0.12717  0.35620  1.0000
  C   C31       1.0  0.17143  0.38987  0.05473  1.0000
  H   H25       1.0  0.17563  0.00906  0.42746  1.0000
  C   C32       1.0  0.20754  0.20184  0.46544  1.0000
  Fe  Fe9       1.0  0.24716  0.16682  0.44670  1.0000
  C   C33       1.0  0.20359  0.22352  0.45816  1.0000
  C   C34       1.0  0.18572  0.22906  0.47296  1.0000
  C   C35       1.0  0.01797  0.21044  0.45974  1.0000
  H   H26       1.0  0.21131  0.04951  0.37810  1.0000
  N   N1        1.0  0.13567  0.28549  0.23717  1.0000
  C   C36       1.0  0.16384  0.29652  0.24685  1.0000
  C   C37       1.0  0.12885  0.30723  0.23981  1.0000
  C   C38       1.0  0.13138  0.27576  0.20851  1.0000
  C   C39       1.0  0.15247  0.27747  0.19176  1.0000
  C   C40       1.0  0.10539  0.26436  0.19642  1.0000
  C   C41       1.0  0.14761  0.26812  0.16476  1.0000
  C   C42       1.0  0.10086  0.25537  0.16930  1.0000
  C   C43       1.0  0.12192  0.25722  0.15352  1.0000
  H   H27       1.0  0.17811  0.31437  0.23450  1.0000
  H   H28       1.0  0.10752  0.30040  0.23469  1.0000
  H   H29       1.0  0.13209  0.31516  0.26113  1.0000
  H   H30       1.0  0.14156  0.32441  0.22591  1.0000
  H   H31       1.0  0.17308  0.28664  0.19867  1.0000
  H   H32       1.0  0.16407  0.27026  0.15206  1.0000
  H   H33       1.0  0.08106  0.24741  0.16018  1.0000
  H   H34       1.0  0.11854  0.25100  0.13222  1.0000
  C   C44       1.0  0.18572  0.01110  0.44678  1.0000
  C   C45       1.0  0.18430  0.36610  0.02259  1.0000
  C   C46       1.0  0.21134  0.02980  0.03698  1.0000
  H   H35       1.0  0.03329  0.14138  0.45296  1.0000
  H   H36       1.0  0.18388  0.35168  0.03817  1.0000
  H   H37       1.0  0.17735  0.42867  0.03941  1.0000
  H   H38       1.0  0.16630  0.30356  0.26849  1.0000
  C   C47       1.0  0.21378  0.31046  0.43883  1.0000
  N   N2        1.0  0.06531  0.29981  0.43920  1.0000
  C   C48       1.0  0.16432  0.39114  0.00468  1.0000
  H   H39       1.0  0.14901  0.39756  0.00718  1.0000
  H   H40       1.0  0.09635  0.25539  0.25184  1.0000
  H   H41       1.0  0.13651  0.33582  0.04550  1.0000
  H   H42       1.0  0.08846  0.26277  0.20769  1.0000
  H   H43       1.0  0.12184  0.24583  0.25367  1.0000
  C   C49       1.0  0.03570  0.28385  0.43579  1.0000
  C   C50       1.0  0.23009  0.12320  0.34010  1.0000
  H   H44       1.0  0.18448  0.40915  0.00126  1.0000
  N   N3        1.0  0.24060  0.36759  0.37188  1.0000
  C   C51       1.0  0.17743  0.41714  0.05689  1.0000
  H   H45       1.0  0.16239  0.09343  0.37909  1.0000
  N   N4        1.0  0.16449  0.37499  0.02849  1.0000
  H   H46       1.0  0.03422  0.28593  0.39093  1.0000
  H   H47       1.0  0.21445  0.23610  0.44090  1.0000
  H   H48       1.0  0.13058  0.34001  0.01064  1.0000
  C   C52       1.0  0.07533  0.28116  0.44625  1.0000
  H   H49       1.0  0.18905  0.42727  0.12547  1.0000
  N   N5        1.0  0.23392  0.08178  0.34919  1.0000
  H   H50       1.0  0.03841  0.21860  0.45263  1.0000
  H   H51       1.0  0.12159  0.26960  0.27768  1.0000
  H   H52       1.0  0.21538  0.38513  0.37900  1.0000
  H   H53       1.0  0.22817  0.04146  0.35283  1.0000
  C   C53       1.0  0.01216  0.43392  0.00017  1.0000
  C   C54       1.0  0.01945  0.14183  0.46763  1.0000
  C   C55       1.0  0.11807  0.26306  0.25583  1.0000
  H   H54       1.0  0.06656  0.27027  0.46579  1.0000
  H   H55       1.0  0.07011  0.26567  0.43007  1.0000
  C   C56       1.0  0.17223  0.37696  0.07928  1.0000
  C   C57       1.0  0.00943  0.45574  0.99181  1.0000
  H   H56       1.0  0.09758  0.29215  0.44870  1.0000
  H   H57       1.0  0.17027  0.28109  0.24603  1.0000
  H   H58       1.0  0.24424  0.40538  0.35842  1.0000
  H   H59       1.0  0.22550  0.28743  0.41353  1.0000
  C   C58       1.0  0.23698  0.39132  0.37629  1.0000
  C   C59       1.0  0.23438  0.04108  0.02081  1.0000
  H   H60       1.0  0.23009  0.23855  0.99381  1.0000
  H   H61       1.0  0.20108  0.04113  0.04070  1.0000
  H   H62       1.0  0.17892  0.38000  0.12288  1.0000
  C   C60       1.0  0.16510  0.19190  0.98036  1.0000
  H   H63       1.0  0.24852  0.40330  0.39439  1.0000
  C   C61       1.0  0.21712  0.05266  0.35606  1.0000
  C   C62       1.0  0.24470  0.08364  0.32112  1.0000
  C   C63       1.0  0.07965  0.31499  0.41417  1.0000
  H   H64       1.0  0.20369  0.34474  0.34949  1.0000
  H   H65       1.0  0.16780  0.35624  0.07922  1.0000
  C   C64       1.0  0.22412  0.30565  0.41510  1.0000
  Fe  Fe10      1.0  0.13174  0.29229  0.98345  1.0000
  H   H66       1.0  0.24933  0.09251  0.38996  1.0000
  H   H67       1.0  0.11954  0.49498  0.29448  1.0000
  C   C65       1.0  0.17854  0.39038  0.10440  1.0000
  S   S19       1.0  0.18318  0.24388  0.00079  1.0000
  C   C66       1.0  0.02301  0.27815  0.40966  1.0000
  C   C67       1.0  0.22019  0.35232  0.41942  1.0000
  H   H68       1.0  0.10158  0.32842  0.41798  1.0000
  H   H69       1.0  0.15907  0.37926  0.98532  1.0000
  H   H70       1.0  0.24067  0.31961  0.37555  1.0000
  C   C68       1.0  0.21300  0.21964  0.98746  1.0000
  H   H71       1.0  0.20362  0.33729  0.45945  1.0000
  C   C69       1.0  0.22579  0.35399  0.34653  1.0000
  H   H72       1.0  0.20711  0.29609  0.45559  1.0000
  H   H73       1.0  0.07170  0.32815  0.40682  1.0000
  H   H74       1.0  0.06383  0.33302  0.45818  1.0000
  H   H75       1.0  0.18018  0.35548  0.00254  1.0000
  C   C70       1.0  0.24725  0.02640  0.01524  1.0000
  C   C71       1.0  0.21717  0.19864  0.97802  1.0000
  H   H76       1.0  0.07261  0.18045  0.46115  1.0000
  C   C72       1.0  0.21684  0.13806  0.34258  1.0000
  C   C73       1.0  0.18097  0.10144  0.36756  1.0000
  H   H77       1.0  0.14496  0.18906  0.98120  1.0000
  C   C74       1.0  0.18697  0.21647  0.98872  1.0000
  H   H78       1.0  0.22620  0.15853  0.33476  1.0000
  C   C75       1.0  0.21895  0.09671  0.35100  1.0000
  H   H79       1.0  0.18246  0.13907  0.35879  1.0000
  H   H80       1.0  0.03262  0.41152  0.99364  1.0000
  H   H81       1.0  0.02038  0.46183  0.23859  1.0000
  H   H82       1.0  0.18485  0.06721  0.37574  1.0000
  Fe  Fe11      1.0  0.06890  0.49533  0.33672  1.0000
  H   H83       1.0  0.22855  0.07776  0.30549  1.0000
  H   H84       1.0  0.02433  0.25825  0.03857  1.0000
  H   H85       1.0  0.25365  0.07039  0.31851  1.0000
  S   S20       1.0  0.25079  0.12234  0.97970  1.0000
  C   C76       1.0  0.03075  0.42868  0.98721  1.0000
  Fe  Fe12      1.0  0.02521  0.50497  0.31309  1.0000
  C   C77       1.0  0.25674  0.09387  0.36866  1.0000
  S   S21       1.0  0.23457  0.11620  0.91417  1.0000
  C   C78       1.0  0.06569  0.14482  0.50017  1.0000
  C   C79       1.0  0.16925  0.17085  0.97105  1.0000
  C   C80       1.0  0.01624  0.21677  0.96561  1.0000
  Fe  Fe13      1.0  0.23651  0.14265  0.94953  1.0000
  S   S22       1.0  0.19927  0.14727  0.95615  1.0000
  H   H86       1.0  0.02754  0.48841  0.91633  1.0000
  C   C81       1.0  0.17145  0.21290  0.49528  1.0000
  Fe  Fe14      1.0  0.22661  0.43358  0.78411  1.0000
  S   S23       1.0  0.21414  0.39032  0.77586  1.0000
  Fe  Fe15      1.0  0.16916  0.42353  0.77492  1.0000
  S   S24       1.0  0.15297  0.37933  0.76554  1.0000
  S   S25       1.0  0.14292  0.44306  0.76782  1.0000
  Fe  Fe16      1.0  0.17789  0.38021  0.80189  1.0000
  S   S26       1.0  0.16255  0.34204  0.82793  1.0000
  Fe  Fe17      1.0  0.19011  0.39218  0.73995  1.0000
  S   S27       1.0  0.19709  0.37518  0.69964  1.0000
  S   S28       1.0  0.19188  0.42364  0.81281  1.0000
  S   S29       1.0  0.20478  0.43627  0.74682  1.0000
  Fe  Fe18      1.0  0.13810  0.25263  0.51217  1.0000
  S   S30       1.0  0.16363  0.29771  0.51924  1.0000
  S   S31       1.0  0.14814  0.21850  0.51438  1.0000
  Fe  Fe19      1.0  0.08537  0.25426  0.50962  1.0000
  S   S32       1.0  0.10697  0.29902  0.51614  1.0000
  S   S33       1.0  0.03936  0.22979  0.51159  1.0000
  H   H87       1.0  0.06602  0.21249  0.78955  1.0000
  S   S34       1.0  0.14327  0.32973  0.95728  1.0000
  Fe  Fe20      1.0  0.13150  0.29348  0.54914  1.0000
  S   S35       1.0  0.13189  0.31373  0.59042  1.0000
  H   H88       1.0  0.02695  0.27352  0.47915  1.0000
  S   S36       1.0  0.10783  0.24834  0.54421  1.0000
  C   C82       1.0  0.17862  0.35856  0.66920  1.0000
  C   C83       1.0  0.19032  0.34890  0.65018  1.0000
  C   C84       1.0  0.17652  0.33528  0.62606  1.0000
  C   C85       1.0  0.15064  0.33096  0.62050  1.0000
  C   C86       1.0  0.13893  0.34055  0.63960  1.0000
  C   C87       1.0  0.15277  0.35431  0.66364  1.0000
  H   H89       1.0  0.21025  0.35197  0.65407  1.0000
  H   H90       1.0  0.18591  0.32811  0.61172  1.0000
  H   H91       1.0  0.11903  0.33755  0.63557  1.0000
  H   H92       1.0  0.14349  0.36188  0.67762  1.0000
  C   C88       1.0  0.15768  0.33923  0.86398  1.0000
  C   C89       1.0  0.14941  0.31418  0.87670  1.0000
  C   C90       1.0  0.14507  0.31093  0.90521  1.0000
  C   C91       1.0  0.14884  0.33273  0.92133  1.0000
  C   C92       1.0  0.15713  0.35779  0.90862  1.0000
  C   C93       1.0  0.16159  0.36107  0.88012  1.0000
  H   H93       1.0  0.14630  0.29715  0.86443  1.0000
  H   H94       1.0  0.13867  0.29154  0.91468  1.0000
  H   H95       1.0  0.16006  0.37478  0.92085  1.0000
  H   H96       1.0  0.16789  0.38043  0.87064  1.0000
  C   C94       1.0  0.10609  0.48010  0.82571  1.0000
  C   C95       1.0  0.10008  0.47705  0.79774  1.0000
  C   C96       1.0  0.11117  0.46526  0.78054  1.0000
  C   C97       1.0  0.12851  0.45648  0.79095  1.0000
  C   C98       1.0  0.13451  0.45954  0.81894  1.0000
  C   C99       1.0  0.12331  0.47122  0.83618  1.0000
  N   N6        1.0  0.05710  0.16536  0.50171  1.0000
  H   H97       1.0  0.10632  0.46295  0.75895  1.0000
  H   H98       1.0  0.14786  0.45301  0.82727  1.0000
  C   C100      1.0  0.02832  0.15322  0.49404  1.0000
  H   H99       1.0  0.06682  0.20272  0.48222  1.0000
  H   H100      1.0  0.17708  0.14696  0.86467  1.0000
  C   C101      1.0  0.22760  0.17908  0.84500  1.0000
  C   C102      1.0  0.01303  0.21302  0.48727  1.0000
  H   H101      1.0  0.05320  0.12738  0.51381  1.0000
  H   H102      1.0  0.08223  0.49737  0.57688  1.0000
  C   C103      1.0  0.19445  0.15211  0.87847  1.0000
  Fe  Fe21      1.0  0.25186  0.09832  0.94369  1.0000
  H   H103      1.0  0.01342  0.16191  0.53195  1.0000
  H   H104      1.0  0.09591  0.48164  0.94047  1.0000
  H   H105      1.0  0.01341  0.47490  0.52349  1.0000
  H   H106      1.0  0.05206  0.16114  0.54557  1.0000
  S   S37       1.0  0.09263  0.49475  0.84846  1.0000
  H   H107      1.0  0.23296  0.05888  0.48833  1.0000
  C   C104      1.0  0.18952  0.22147  0.90479  1.0000
  N   N7        1.0  0.02599  0.47711  0.57788  1.0000
  H   H108      1.0  0.08669  0.48351  0.78937  1.0000
  N   N8        1.0  0.14104  0.30235  0.73796  1.0000
  C   C105      1.0  0.12761  0.31742  0.72869  1.0000
  C   C106      1.0  0.16425  0.32052  0.75555  1.0000
  C   C107      1.0  0.15213  0.29553  0.71370  1.0000
  C   C108      1.0  0.12103  0.27764  0.75239  1.0000
  C   C109      1.0  0.12068  0.27494  0.78139  1.0000
  C   C110      1.0  0.10001  0.25603  0.73762  1.0000
  C   C111      1.0  0.10110  0.25161  0.79447  1.0000
  C   C112      1.0  0.08057  0.23274  0.75091  1.0000
  C   C113      1.0  0.08119  0.23048  0.77927  1.0000
  H   H109      1.0  0.11792  0.32183  0.74614  1.0000
  H   H110      1.0  0.14222  0.33707  0.71927  1.0000
  H   H111      1.0  0.11173  0.30607  0.71314  1.0000
  H   H112      1.0  0.15812  0.32954  0.77219  1.0000
  H   H113      1.0  0.18002  0.33795  0.74389  1.0000
  H   H114      1.0  0.17405  0.30978  0.76485  1.0000
  H   H115      1.0  0.16901  0.31389  0.70415  1.0000
  H   H116      1.0  0.15994  0.28183  0.71941  1.0000
  H   H117      1.0  0.13714  0.28597  0.69699  1.0000
  H   H118      1.0  0.13510  0.29074  0.79457  1.0000
  H   H119      1.0  0.09818  0.25716  0.71570  1.0000
  H   H120      1.0  0.10126  0.25012  0.81661  1.0000
  H   H121      1.0  0.06476  0.21646  0.73916  1.0000
  H   H122      1.0  0.05831  0.19330  0.53208  1.0000
  H   H123      1.0  0.12811  0.47342  0.85777  1.0000
  H   H124      1.0  0.03481  0.23569  0.96310  1.0000
  C   C114      1.0  0.21343  0.02387  0.95619  1.0000
  C   C115      1.0  0.19527  0.17401  0.96985  1.0000
  C   C116      1.0  0.01300  0.49400  0.57819  1.0000
  C   C117      1.0  0.06324  0.17684  0.52979  1.0000
  H   H125      1.0  0.24468  0.41821  0.72777  1.0000
  H   H126      1.0  0.03131  0.46090  0.90407  1.0000
  C   C118      1.0  0.08179  0.47994  0.92391  1.0000
  H   H127      1.0  0.18704  0.14991  0.89986  1.0000
  C   C119      1.0  0.21796  0.03920  0.48099  1.0000
  C   C120      1.0  0.00859  0.15309  0.51178  1.0000
  H   H128      1.0  0.22128  0.01799  0.51610  1.0000
  H   H129      1.0  0.05483  0.50179  0.60871  1.0000
  S   S38       1.0  0.12007  0.24997  0.97084  1.0000
  H   H130      1.0  0.19603  0.16896  0.49366  1.0000
  H   H131      1.0  0.09538  0.19805  0.48827  1.0000
  C   C121      1.0  0.20812  0.19966  0.87566  1.0000
  H   H132      1.0  0.08511  0.18599  0.53477  1.0000
  H   H133      1.0  0.23430  0.16378  0.84373  1.0000
  H   H134      1.0  0.15213  0.15198  0.96464  1.0000
  H   H135      1.0  0.06624  0.31025  0.48209  1.0000
  H   H136      1.0  0.18536  0.25345  0.88653  1.0000
  Fe  Fe22      1.0  0.13730  0.30040  0.48608  1.0000
  N   N9        1.0  0.21715  0.17959  0.87268  1.0000
  C   C122      1.0  0.17532  0.19118  0.50252  1.0000
  C   C123      1.0  0.02534  0.47244  0.97058  1.0000
  H   H137      1.0  0.20049  0.13646  0.87601  1.0000
  H   H138      1.0  0.19560  0.18957  0.91815  1.0000
  H   H139      1.0  0.24683  0.17144  0.89035  1.0000
  H   H140      1.0  0.18180  0.22316  0.92456  1.0000
  C   C124      1.0  0.04463  0.46792  0.95703  1.0000
  H   H141      1.0  0.06043  0.43987  0.95648  1.0000
  H   H142      1.0  0.08720  0.15338  0.50644  1.0000
  C   C125      1.0  0.19157  0.23854  0.88342  1.0000
  H   H143      1.0  0.07282  0.45961  0.91433  1.0000
  C   C126      1.0  0.05158  0.49012  0.50451  1.0000
  C   C127      1.0  0.18940  0.02298  0.96357  1.0000
  C   C128      1.0  0.23909  0.18574  0.89250  1.0000
  H   H144      1.0  0.18832  0.04136  0.96344  1.0000
  S   S39       1.0  0.11402  0.25591  0.47721  1.0000
  H   H145      1.0  0.05412  0.49473  0.89312  1.0000
  C   C129      1.0  0.04260  0.48226  0.91100  1.0000
  H   H146      1.0  0.23241  0.18419  0.91409  1.0000
  C   C130      1.0  0.04674  0.44529  0.96585  1.0000
  H   H147      1.0  0.09419  0.49436  0.90749  1.0000
  H   H148      1.0  0.20327  0.24987  0.84163  1.0000
  H   H149      1.0  0.16443  0.17852  0.51973  1.0000
  H   H150      1.0  0.21771  0.21694  0.83424  1.0000
  C   C131      1.0  0.20169  0.23646  0.85817  1.0000
  C   C132      1.0  0.20992  0.21736  0.85420  1.0000
  S   S40       1.0  0.02495  0.49963  0.84738  1.0000
  H   H151      1.0  0.21192  0.17375  0.82898  1.0000
  C   C133      1.0  0.19755  0.20229  0.90097  1.0000
  C   C134      1.0  0.21125  0.01591  0.49674  1.0000
  H   H152      1.0  0.24567  0.19873  0.83986  1.0000
  C   C135      1.0  0.07366  0.18756  0.48246  1.0000
  S   S41       1.0  0.24304  0.05450  0.94704  1.0000
  C   C136      1.0  0.19328  0.18570  0.48778  1.0000
  N   N10       1.0  0.06075  0.48569  0.93419  1.0000
  H   H153      1.0  0.04333  0.48834  0.48408  1.0000
  H   H154      1.0  0.04878  0.46746  0.60654  1.0000
  C   C137      1.0  0.07904  0.49990  0.50800  1.0000
  H   H155      1.0  0.02218  0.48882  0.96464  1.0000
  H   H156      1.0  0.24825  0.42827  0.68085  1.0000
  H   H157      1.0  0.06416  0.13691  0.47911  1.0000
  H   H158      1.0  0.01382  0.43522  0.57229  1.0000
  C   C138      1.0  0.03458  0.48259  0.52723  1.0000
  C   C139      1.0  0.03936  0.48039  0.60485  1.0000
  C   C140      1.0  0.04459  0.48493  0.55428  1.0000
  C   C141      1.0  0.08959  0.50227  0.53426  1.0000
  H   H159      1.0  0.25639  0.20645  0.88943  1.0000
  H   H160      1.0  0.02471  0.47448  0.62210  1.0000
  C   C142      1.0  0.07274  0.49498  0.55717  1.0000
  S   S42       1.0  0.24946  0.13837  0.47769  1.0000
  H   H161      1.0  0.16340  0.50434  0.76028  1.0000
  Fe  Fe23      1.0  0.13920  0.86669  0.03353  1.0000
  S   S43       1.0  0.10939  0.88078  0.02522  1.0000
  S   S44       1.0  0.16217  0.87623  0.07492  1.0000
  H   H162      1.0  0.19609  0.89346  0.12293  1.0000
  C   C143      1.0  0.09969  0.68362  0.18323  1.0000
  S   S45       1.0  0.15448  0.83801  0.44902  1.0000
  Fe  Fe24      1.0  0.13364  0.90163  0.98768  1.0000
  H   H163      1.0  0.07221  0.80930  0.43967  1.0000
  Fe  Fe25      1.0  0.08664  0.84431  0.99819  1.0000
  S   S46       1.0  0.04068  0.81944  0.00342  1.0000
  S   S47       1.0  0.16485  0.88976  0.99708  1.0000
  S   S48       1.0  0.11475  0.82853  0.00916  1.0000
  Fe  Fe26      1.0  0.23130  0.83045  0.26411  1.0000
  S   S49       1.0  0.21293  0.85637  0.25355  1.0000
  Fe  Fe27      1.0  0.17607  0.78113  0.27679  1.0000
  S   S50       1.0  0.15501  0.80468  0.26734  1.0000
  S   S51       1.0  0.14420  0.73852  0.29020  1.0000
  Fe  Fe28      1.0  0.18138  0.82078  0.22986  1.0000
  S   S52       1.0  0.15982  0.81602  0.18807  1.0000
  Fe  Fe29      1.0  0.18801  0.83799  0.29164  1.0000
  S   S53       1.0  0.18214  0.86484  0.32226  1.0000
  S   S54       1.0  0.20098  0.79551  0.23822  1.0000
  S   S55       1.0  0.20786  0.81399  0.30333  1.0000
  C   C144      1.0  0.15784  0.74753  0.18576  1.0000
  H   H164      1.0  0.03855  0.77930  0.38089  1.0000
  C   C145      1.0  0.24670  0.87251  0.36724  1.0000
  C   C146      1.0  0.01270  0.80701  0.98046  1.0000
  S   S56       1.0  0.08493  0.53229  0.36305  1.0000
  H   H165      1.0  0.16061  0.73856  0.16673  1.0000
  Fe  Fe30      1.0  0.08313  0.55699  0.32521  1.0000
  S   S57       1.0  0.13240  0.62175  0.30465  1.0000
  H   H166      1.0  0.17499  0.94330  0.01832  1.0000
  S   S58       1.0  0.03849  0.54245  0.33781  1.0000
  N   N11       1.0  0.12918  0.73363  0.19426  1.0000
  C   C147      1.0  0.03527  0.83323  0.40670  1.0000
  H   H167      1.0  0.12105  0.76035  0.16985  1.0000
  C   C148      1.0  0.09155  0.65656  0.18866  1.0000
  S   S59       1.0  0.13084  0.89283  0.46508  1.0000
  C   C149      1.0  0.10331  0.64976  0.20998  1.0000
  C   C150      1.0  0.11372  0.73838  0.17261  1.0000
  C   C151      1.0  0.24356  0.85685  0.39043  1.0000
  C   C152      1.0  0.14173  0.70643  0.29408  1.0000
  C   C153      1.0  0.16384  0.70248  0.29135  1.0000
  C   C154      1.0  0.16053  0.67644  0.29474  1.0000
  C   C155      1.0  0.13515  0.65406  0.30073  1.0000
  C   C156      1.0  0.11303  0.65807  0.30318  1.0000
  C   C157      1.0  0.11637  0.68408  0.29998  1.0000
  H   H168      1.0  0.18349  0.71946  0.28680  1.0000
  H   H169      1.0  0.17780  0.67363  0.29267  1.0000
  H   H170      1.0  0.09325  0.64125  0.30716  1.0000
  H   H171      1.0  0.09910  0.68689  0.30190  1.0000
  C   C158      1.0  0.12332  0.66998  0.22590  1.0000
  H   H172      1.0  0.04650  0.85263  0.41660  1.0000
  H   H173      1.0  0.24767  0.98987  0.01983  1.0000
  H   H174      1.0  0.09398  0.56830  0.26582  1.0000
  H   H175      1.0  0.03419  0.86713  0.01447  1.0000
  Fe  Fe31      1.0  0.04182  0.51910  0.37334  1.0000
  H   H176      1.0  0.11242  0.63874  0.36224  1.0000
  H   H177      1.0  0.16395  0.96814  0.45525  1.0000
  H   H178      1.0  0.08633  0.85959  0.36975  1.0000
  C   C159      1.0  0.16211  0.84577  0.41382  1.0000
  C   C160      1.0  0.16466  0.82731  0.39686  1.0000
  C   C161      1.0  0.17043  0.83267  0.36874  1.0000
  C   C162      1.0  0.17382  0.85663  0.35730  1.0000
  C   C163      1.0  0.17123  0.87506  0.37426  1.0000
  C   C164      1.0  0.16540  0.86968  0.40236  1.0000
  H   H179      1.0  0.16210  0.80872  0.40547  1.0000
  H   H180      1.0  0.17239  0.81831  0.35595  1.0000
  H   H181      1.0  0.17396  0.89372  0.36565  1.0000
  H   H182      1.0  0.16372  0.88418  0.41517  1.0000
  C   C165      1.0  0.16116  0.85886  0.10609  1.0000
  C   C166      1.0  0.14153  0.83203  0.11126  1.0000
  C   C167      1.0  0.14151  0.81945  0.13633  1.0000
  C   C168      1.0  0.16112  0.83331  0.15673  1.0000
  C   C169      1.0  0.18080  0.86012  0.15151  1.0000
  C   C170      1.0  0.18075  0.87274  0.12649  1.0000
  H   H183      1.0  0.12624  0.82097  0.09601  1.0000
  H   H184      1.0  0.12604  0.79881  0.13993  1.0000
  H   H185      1.0  0.19605  0.87119  0.16679  1.0000
  H   H186      1.0  0.14164  0.74837  0.23545  1.0000
  N   N12       1.0  0.20142  0.96010  0.05268  1.0000
  C   C171      1.0  0.19924  0.95986  0.08295  1.0000
  H   H187      1.0  0.22378  0.84489  0.39950  1.0000
  C   C172      1.0  0.21705  0.94656  0.04561  1.0000
  H   H188      1.0  0.08661  0.93555  0.00128  1.0000
  H   H189      1.0  0.13245  0.66464  0.24247  1.0000
  H   H190      1.0  0.08056  0.79422  0.39568  1.0000
  H   H191      1.0  0.11446  0.86656  0.39144  1.0000
  H   H192      1.0  0.10635  0.73422  0.22906  1.0000
  H   H193      1.0  0.11052  0.82469  0.38837  1.0000
  C   C173      1.0  0.17902  0.98780  0.46253  1.0000
  H   H194      1.0  0.19112  0.93906  0.09144  1.0000
  H   H195      1.0  0.21926  0.97298  0.09253  1.0000
  H   H196      1.0  0.13933  0.57777  0.34314  1.0000
  C   C174      1.0  0.21347  0.98808  0.04214  1.0000
  H   H197      1.0  0.07531  0.59732  0.38423  1.0000
  H   H198      1.0  0.13998  0.60780  0.40966  1.0000
  H   H199      1.0  0.20747  0.92563  0.05400  1.0000
  H   H200      1.0  0.08892  0.87244  0.40395  1.0000
  C   C175      1.0  0.01029  0.51135  0.20850  1.0000
  H   H201      1.0  0.16563  0.76940  0.18179  1.0000
  C   C176      1.0  0.11995  0.70475  0.19928  1.0000
  H   H202      1.0  0.10513  0.83811  0.43473  1.0000
  H   H203      1.0  0.07601  0.64070  0.17628  1.0000
  H   H204      1.0  0.09198  0.72876  0.17794  1.0000
  H   H205      1.0  0.11600  0.73097  0.15233  1.0000
  H   H206      1.0  0.14715  0.71199  0.23372  1.0000
  H   H207      1.0  0.16032  0.95138  0.04632  1.0000
  N   N13       1.0  0.07739  0.83008  0.40146  1.0000
  C   C177      1.0  0.08326  0.83004  0.43098  1.0000
  C   C178      1.0  0.08817  0.81469  0.38682  1.0000
  C   C179      1.0  0.09227  0.85831  0.39118  1.0000
  C   C180      1.0  0.04798  0.81863  0.39792  1.0000
  C   C181      1.0  0.03093  0.79226  0.38738  1.0000
  S   S60       1.0  0.06690  0.51691  0.29921  1.0000
  H   H208      1.0  0.24354  0.91350  0.34093  1.0000
  H   H209      1.0  0.06336  0.89605  0.02632  1.0000
  H   H210      1.0  0.23780  0.95758  0.05417  1.0000
  H   H211      1.0  0.08319  0.81290  0.36460  1.0000
  H   H212      1.0  0.08977  0.68744  0.16643  1.0000
  H   H213      1.0  0.07709  0.84258  0.44302  1.0000
  H   H214      1.0  0.06675  0.58769  0.28884  1.0000
  H   H215      1.0  0.18534  0.96689  0.09001  1.0000
  S   S61       1.0  0.02923  0.52809  0.41529  1.0000
  H   H216      1.0  0.02895  0.52322  0.19749  1.0000
  H   H217      1.0  0.03155  0.89541  0.02666  1.0000
  H   H218      1.0  0.21810  0.94451  0.02305  1.0000
  N   N14       1.0  0.04960  0.90144  0.98675  1.0000
  H   H219      1.0  0.14504  0.64232  0.35892  1.0000
  H   H220      1.0  0.12819  0.57707  0.39102  1.0000
  C   C182      1.0  0.23706  0.00027  0.02563  1.0000
  H   H221      1.0  0.15481  0.60852  0.37740  1.0000
  H   H222      1.0  0.13249  0.64370  0.39218  1.0000
  H   H223      1.0  0.17112  0.74638  0.20170  1.0000
  H   H224      1.0  0.12956  0.56273  0.29356  1.0000
  H   H225      1.0  0.05822  0.94075  0.00069  1.0000
  H   H226      1.0  0.16428  0.92240  0.04842  1.0000
  H   H227      1.0  0.18277  0.99571  0.05952  1.0000
  H   H228      1.0  0.09694  0.62879  0.21419  1.0000
  H   H229      1.0  0.07588  0.60332  0.33879  1.0000
  C   C183      1.0  0.17408  0.94363  0.04101  1.0000
  H   H230      1.0  0.13029  0.76702  0.21628  1.0000
  C   C184      1.0  0.13159  0.69706  0.22069  1.0000
  H   H231      1.0  0.08129  0.57088  0.39509  1.0000
  C   C185      1.0  0.12669  0.74624  0.21978  1.0000
  N   N15       1.0  0.11508  0.60375  0.37470  1.0000
  C   C186      1.0  0.09090  0.59306  0.39246  1.0000
  C   C187      1.0  0.13536  0.59898  0.38874  1.0000
  C   C188      1.0  0.12668  0.63335  0.37202  1.0000
  C   C189      1.0  0.10771  0.59132  0.34724  1.0000
  C   C190      1.0  0.12333  0.57926  0.33307  1.0000
  C   C191      1.0  0.08654  0.59388  0.33039  1.0000
  C   C192      1.0  0.11778  0.57031  0.30354  1.0000
  C   C193      1.0  0.08112  0.58485  0.30078  1.0000
  C   C194      1.0  0.09698  0.57354  0.28732  1.0000
  H   H232      1.0  0.09594  0.60200  0.41332  1.0000
  C   C195      1.0  0.04434  0.88954  0.01470  1.0000
  H   H233      1.0  0.23586  0.87644  0.31244  1.0000
  H   H234      1.0  0.22888  0.87188  0.35895  1.0000
  H   H235      1.0  0.02992  0.51781  0.24790  1.0000
  C   C196      1.0  0.01089  0.50831  0.23711  1.0000
  C   C197      1.0  0.06804  0.93098  0.98961  1.0000
  S   S62       1.0  0.13816  0.94337  0.98056  1.0000
  C   C198      1.0  0.00893  0.50922  0.44397  1.0000
  C   C199      1.0  0.20101  0.00375  0.04758  1.0000
  H   H236      1.0  0.08377  0.89614  0.98004  1.0000
  H   H237      1.0  0.01327  0.54473  0.46403  1.0000
  C   C200      1.0  0.02144  0.80708  0.47485  1.0000
  Fe  Fe32      1.0  0.13342  0.86547  0.53886  1.0000
  S   S63       1.0  0.11928  0.89529  0.53059  1.0000
  S   S64       1.0  0.13038  0.84838  0.58262  1.0000
  H   H238      1.0  0.11626  0.82584  0.63689  1.0000
  Fe  Fe33      1.0  0.14347  0.86271  0.47722  1.0000
  S   S65       1.0  0.15582  0.83303  0.94430  1.0000
  Fe  Fe34      1.0  0.15463  0.91633  0.50201  1.0000
  S   S66       1.0  0.18416  0.96143  0.50857  1.0000
  Fe  Fe35      1.0  0.09629  0.86959  0.49444  1.0000
  H   H239      1.0  0.20960  0.94502  0.62625  1.0000
  S   S67       1.0  0.16997  0.88762  0.51208  1.0000
  S   S68       1.0  0.10770  0.83827  0.50454  1.0000
  Fe  Fe36      1.0  0.22917  0.81442  0.77145  1.0000
  S   S69       1.0  0.21978  0.84696  0.75983  1.0000
  Fe  Fe37      1.0  0.17026  0.76906  0.76324  1.0000
  S   S70       1.0  0.15710  0.79900  0.75096  1.0000
  S   S71       1.0  0.13582  0.72491  0.76433  1.0000
  Fe  Fe38      1.0  0.19454  0.81968  0.72512  1.0000
  S   S72       1.0  0.19969  0.83692  0.68094  1.0000
  Fe  Fe39      1.0  0.18291  0.82379  0.78618  1.0000
  S   S73       1.0  0.16825  0.84523  0.81465  1.0000
  S   S74       1.0  0.20640  0.78818  0.73521  1.0000
  S   S75       1.0  0.19364  0.79290  0.80002  1.0000
  H   H240      1.0  0.18169  0.78703  0.64100  1.0000
  S   S76       1.0  0.06974  0.54000  0.80102  1.0000
  C   C201      1.0  0.19175  0.99005  0.48766  1.0000
  C   C202      1.0  0.16763  0.97409  0.97137  1.0000
  S   S77       1.0  0.08086  0.55184  0.86648  1.0000
  C   C203      1.0  0.14906  0.78185  0.61503  1.0000
  Fe  Fe40      1.0  0.07868  0.57446  0.82968  1.0000
  S   S78       1.0  0.11603  0.61649  0.82449  1.0000
  C   C204      1.0  0.01402  0.51011  0.73120  1.0000
  S   S79       1.0  0.03523  0.56147  0.83835  1.0000
  C   C205      1.0  0.17555  0.78846  0.62029  1.0000
  C   C206      1.0  0.16827  0.82698  0.53074  1.0000
  N   N16       1.0  0.15249  0.79811  0.53853  1.0000
  H   H241      1.0  0.19283  0.95665  0.96430  1.0000
  C   C207      1.0  0.12351  0.78961  0.53537  1.0000
  H   H242      1.0  0.07817  0.91718  0.58250  1.0000
  H   H243      1.0  0.13386  0.72730  0.85458  1.0000
  S   S80       1.0  0.02710  0.53937  0.91919  1.0000
  C   C208      1.0  0.13079  0.69518  0.78165  1.0000
  C   C209      1.0  0.15091  0.69452  0.79742  1.0000
  C   C210      1.0  0.14592  0.67036  0.81048  1.0000
  C   C211      1.0  0.12074  0.64658  0.80821  1.0000
  C   C212      1.0  0.10051  0.64736  0.79277  1.0000
  C   C213      1.0  0.10557  0.67146  0.77955  1.0000
  H   H244      1.0  0.17043  0.71250  0.79923  1.0000
  H   H245      1.0  0.16175  0.67006  0.82233  1.0000
  H   H246      1.0  0.08108  0.62930  0.79072  1.0000
  H   H247      1.0  0.08984  0.67165  0.76739  1.0000
  C   C214      1.0  0.10148  0.73888  0.88731  1.0000
  H   H248      1.0  0.22309  0.97625  0.59154  1.0000
  H   H249      1.0  0.03562  0.82454  0.94378  1.0000
  H   H250      1.0  0.11780  0.80199  0.54836  1.0000
  C   C215      1.0  0.24144  0.85929  0.83065  1.0000
  H   H251      1.0  0.20222  0.80888  0.55725  1.0000
  C   C216      1.0  0.06388  0.89041  0.97081  1.0000
  C   C217      1.0  0.09908  0.92268  0.58530  1.0000
  H   H252      1.0  0.24782  0.84546  0.82165  1.0000
  C   C218      1.0  0.15831  0.83613  0.90819  1.0000
  C   C219      1.0  0.16744  0.82109  0.89352  1.0000
  C   C220      1.0  0.17052  0.82359  0.86488  1.0000
  C   C221      1.0  0.16455  0.84125  0.85065  1.0000
  C   C222      1.0  0.15522  0.85610  0.86529  1.0000
  C   C223      1.0  0.15205  0.85355  0.89392  1.0000
  H   H253      1.0  0.17210  0.80741  0.90442  1.0000
  H   H254      1.0  0.17751  0.81193  0.85384  1.0000
  H   H255      1.0  0.15055  0.86981  0.85443  1.0000
  H   H256      1.0  0.14509  0.86530  0.90496  1.0000
  C   C224      1.0  0.15047  0.84673  0.61011  1.0000
  C   C225      1.0  0.17832  0.85717  0.60798  1.0000
  C   C226      1.0  0.19296  0.85440  0.62999  1.0000
  C   C227      1.0  0.18016  0.84124  0.65456  1.0000
  C   C228      1.0  0.15239  0.83128  0.65684  1.0000
  C   C229      1.0  0.13774  0.83399  0.63481  1.0000
  H   H257      1.0  0.18861  0.86699  0.58929  1.0000
  H   H258      1.0  0.21437  0.86214  0.62784  1.0000
  H   H259      1.0  0.14211  0.82112  0.67545  1.0000
  C   C230      1.0  0.14124  0.78492  0.58873  1.0000
  H   H260      1.0  0.09431  0.71333  0.80847  1.0000
  Fe  Fe41      1.0  0.03671  0.53630  0.87359  1.0000
  H   H261      1.0  0.08764  0.52812  0.92639  1.0000
  H   H262      1.0  0.18162  0.94836  0.63797  1.0000
  H   H263      1.0  0.19028  0.83456  0.53033  1.0000
  H   H264      1.0  0.11851  0.79219  0.51391  1.0000
  H   H265      1.0  0.11427  0.95947  0.56226  1.0000
  H   H266      1.0  0.21907  0.84879  0.83018  1.0000
  H   H267      1.0  0.12286  0.75899  0.79503  1.0000
  H   H268      1.0  0.25108  0.91174  0.83736  1.0000
  H   H269      1.0  0.22593  0.86077  0.91008  1.0000
  H   H270      1.0  0.20774  0.88746  0.92859  1.0000
  H   H271      1.0  0.09725  0.80428  0.89305  1.0000
  H   H272      1.0  0.17736  0.91606  0.62825  1.0000
  S   S81       1.0  0.10896  0.86591  0.96005  1.0000
  H   H273      1.0  0.15396  0.76305  0.84922  1.0000
  C   C231      1.0  0.15384  0.93656  0.59161  1.0000
  H   H274      1.0  0.03321  0.51954  0.74170  1.0000
  C   C232      1.0  0.16665  0.99823  0.97103  1.0000
  H   H275      1.0  0.07100  0.72026  0.82639  1.0000
  C   C233      1.0  0.09801  0.78574  0.89125  1.0000
  C   C234      1.0  0.21768  0.89283  0.90880  1.0000
  H   H276      1.0  0.16476  0.83971  0.54549  1.0000
  H   H277      1.0  0.09379  0.73496  0.93079  1.0000
  C   C235      1.0  0.13712  0.74410  0.84073  1.0000
  C   C236      1.0  0.24024  0.88322  0.87132  1.0000
  C   C237      1.0  0.21460  0.55734  0.79297  1.0000
  H   H278      1.0  0.09977  0.76760  0.80968  1.0000
  H   H279      1.0  0.16103  0.97159  0.56656  1.0000
  H   H280      1.0  0.08644  0.70342  0.84334  1.0000
  H   H281      1.0  0.20778  0.92910  0.57704  1.0000
  C   C238      1.0  0.18677  0.80099  0.57278  1.0000
  C   C239      1.0  0.09007  0.71970  0.82856  1.0000
  N   N17       1.0  0.25174  0.86751  0.85897  1.0000
  N   N18       1.0  0.15916  0.57573  0.80182  1.0000
  C   C240      1.0  0.17623  0.60192  0.81581  1.0000
  C   C241      1.0  0.14690  0.58117  0.77755  1.0000
  C   C242      1.0  0.13738  0.55814  0.82096  1.0000
  C   C243      1.0  0.17405  0.56187  0.79344  1.0000
  C   C244      1.0  0.16073  0.53723  0.77870  1.0000
  C   C245      1.0  0.20154  0.57160  0.80034  1.0000
  C   C246      1.0  0.18677  0.92531  0.57570  1.0000
  C   C247      1.0  0.21439  0.99971  0.95661  1.0000
  N   N19       1.0  0.18218  0.94291  0.59443  1.0000
  H   H282      1.0  0.19300  0.61626  0.80244  1.0000
  H   H283      1.0  0.16444  0.61200  0.82128  1.0000
  H   H284      1.0  0.18453  0.59919  0.83541  1.0000
  H   H285      1.0  0.13628  0.89732  0.61211  1.0000
  H   H286      1.0  0.13122  0.56237  0.76766  1.0000
  H   H287      1.0  0.13658  0.59268  0.78316  1.0000
  H   H288      1.0  0.14538  0.55228  0.83891  1.0000
  H   H289      1.0  0.12644  0.56830  0.82878  1.0000
  H   H290      1.0  0.12211  0.53910  0.81109  1.0000
  H   H291      1.0  0.13967  0.52818  0.77331  1.0000
  H   H292      1.0  0.21334  0.58998  0.81170  1.0000
  Fe  Fe42      1.0  0.02628  0.52555  0.81156  1.0000
  H   H293      1.0  0.21512  0.80376  0.60367  1.0000
  H   H294      1.0  0.12065  0.78042  0.58650  1.0000
  C   C248      1.0  0.15991  0.79445  0.56666  1.0000
  H   H295      1.0  0.18044  0.78899  0.51785  1.0000
  H   H296      1.0  0.15242  0.78384  0.49763  1.0000
  H   H297      1.0  0.19831  0.98569  0.59974  1.0000
  H   H298      1.0  0.11036  0.76797  0.54073  1.0000
  C   C249      1.0  0.20200  0.97141  0.58756  1.0000
  C   C250      1.0  0.15859  0.78212  0.51889  1.0000
  H   H299      1.0  0.20999  0.92564  0.90251  1.0000
  H   H300      1.0  0.16243  0.59312  0.76190  1.0000
  C   C251      1.0  0.10350  0.77816  0.86595  1.0000
  H   H301      1.0  0.14788  0.76038  0.52465  1.0000
  C   C252      1.0  0.13250  0.91206  0.60223  1.0000
  H   H302      1.0  0.03425  0.93502  0.95883  1.0000
  C   C253      1.0  0.11944  0.94653  0.57398  1.0000
  C   C254      1.0  0.23093  0.92078  0.86843  1.0000
  N   N20       1.0  0.11255  0.74634  0.83712  1.0000
  H   H303      1.0  0.24883  0.87657  0.81625  1.0000
  C   C255      1.0  0.19439  0.79805  0.59923  1.0000
  C   C256      1.0  0.10559  0.90542  0.59927  1.0000
  H   H304      1.0  0.10258  0.72054  0.88681  1.0000
  C   C257      1.0  0.17405  0.52330  0.77128  1.0000
  C   C258      1.0  0.21880  0.91426  0.89409  1.0000
  C   C259      1.0  0.22820  0.87746  0.89773  1.0000
  Fe  Fe43      1.0  0.06917  0.51660  0.83852  1.0000
  H   H305      1.0  0.14406  0.73999  0.82100  1.0000
  H   H306      1.0  0.13475  0.77529  0.63177  1.0000
  C   C260      1.0  0.10574  0.75455  0.86329  1.0000
  C   C261      1.0  0.09478  0.77036  0.91455  1.0000
  H   H307      1.0  0.10672  0.79166  0.84904  1.0000
  H   H308      1.0  0.13503  0.78600  0.81904  1.0000
  H   H309      1.0  0.08970  0.88636  0.60716  1.0000
  C   C262      1.0  0.11775  0.76565  0.81437  1.0000
  H   H310      1.0  0.20146  0.97580  0.56539  1.0000
  H   H311      1.0  0.18305  0.92881  0.55411  1.0000
  H   H312      1.0  0.06759  0.89811  0.94940  1.0000
  S   S82       1.0  0.05415  0.86241  0.48387  1.0000
  H   H313      1.0  0.16271  0.83067  0.50993  1.0000
  C   C263      1.0  0.24175  0.90573  0.85726  1.0000
  H   H314      1.0  0.09154  0.77697  0.93427  1.0000
  H   H315      1.0  0.23167  0.93743  0.85699  1.0000
  H   H316      1.0  0.17302  0.90360  0.58019  1.0000
  C   C264      1.0  0.09628  0.74684  0.91255  1.0000
  C   C265      1.0  0.19173  0.97500  0.96427  1.0000
  C   C266      1.0  0.14643  0.95339  0.57682  1.0000
  C   C267      1.0  0.20085  0.53321  0.77856  1.0000
  C   C268      1.0  0.18783  0.93789  0.62293  1.0000
  H   H317      1.0  0.02824  0.51583  0.57934  1.0000
  H   H318      1.0  0.23544  0.56485  0.79870  1.0000
  H   H319      1.0  0.25291  0.83045  0.86386  1.0000
  C   C269      1.0  0.01567  0.81305  0.95244  1.0000
  H   H320      1.0  0.25440  0.84707  0.89515  1.0000
  H   H321      1.0  0.07544  0.94096  0.96938  1.0000
  C   C270      1.0  0.24516  0.84251  0.87440  1.0000
  H   H322      1.0  0.23287  0.00015  0.95098  1.0000
  H   H323      1.0  0.03903  0.80525  0.47887  1.0000
  H   H324      1.0  0.22300  0.82921  0.87647  1.0000
  H   H325      1.0  0.11099  0.50981  0.53685  1.0000
  C   C271      1.0  0.01940  0.91383  0.95919  1.0000
  H   H326      1.0  0.21082  0.52192  0.77324  1.0000
  H   H327      1.0  0.06021  0.52160  0.94772  1.0000
  Fe  Fe44      1.0  0.13846  0.85250  0.97227  1.0000
  H   H328      1.0  0.02746  0.55211  0.97624  1.0000
  H   H329      1.0  0.03124  0.51174  0.69149  1.0000
  C   C272      1.0  0.00956  0.53277  0.97299  1.0000
  H   H330      1.0  0.05238  0.86801  0.96991  1.0000
  C   C273      1.0  0.02395  0.89437  0.97273  1.0000
  H   H331      1.0  0.08720  0.51762  0.96136  1.0000
  C   C274      1.0  0.07455  0.51439  0.94290  1.0000
  H   H332      1.0  0.01060  0.56189  0.74065  1.0000
  C   C275      1.0  0.01283  0.50571  0.70269  1.0000
  H   H333      1.0  0.09214  0.50559  0.49030  1.0000
  C   C276      1.0  0.02321  0.83235  0.47662  1.0000
  H   H334      1.0  0.14816  0.99783  0.97648  1.0000
  C   C277      1.0  0.35561  0.49134  0.31465  1.0000
  S   S83       1.0  0.46624  0.08708  0.12569  1.0000
  S   S84       1.0  0.48125  0.03584  0.09511  1.0000
  H   H335      1.0  0.35103  0.21685  0.43319  1.0000
  H   H336      1.0  0.27384  0.21109  0.03900  1.0000
  C   C278      1.0  0.35511  0.12674  0.06400  1.0000
  H   H337      1.0  0.40114  0.18239  0.38329  1.0000
  S   S85       1.0  0.47856  0.44927  0.10693  1.0000
  Fe  Fe45      1.0  0.28197  0.15722  0.40352  1.0000
  S   S86       1.0  0.29821  0.17348  0.36012  1.0000
  H   H338      1.0  0.40421  0.48243  0.29294  1.0000
  H   H339      1.0  0.44714  0.42670  0.37525  1.0000
  S   S87       1.0  0.28674  0.12836  0.43137  1.0000
  S   S88       1.0  0.29143  0.18749  0.43706  1.0000
  Fe  Fe46      1.0  0.42104  0.19575  0.16888  1.0000
  S   S89       1.0  0.37949  0.16255  0.17957  1.0000
  S   S90       1.0  0.45676  0.19128  0.15460  1.0000
  Fe  Fe47      1.0  0.40547  0.23987  0.17558  1.0000
  S   S91       1.0  0.36260  0.20921  0.18689  1.0000
  S   S92       1.0  0.41408  0.28367  0.17498  1.0000
  Fe  Fe48      1.0  0.38004  0.18960  0.21378  1.0000
  S   S93       1.0  0.36666  0.17062  0.25699  1.0000
  Fe  Fe49      1.0  0.36527  0.18479  0.15224  1.0000
  S   S94       1.0  0.32989  0.16201  0.12323  1.0000
  S   S95       1.0  0.42302  0.22180  0.20464  1.0000
  S   S96       1.0  0.40667  0.21635  0.13927  1.0000
  S   S97       1.0  0.27216  0.41570  0.30120  1.0000
  C   C279      1.0  0.31624  0.17123  0.33123  1.0000
  C   C280      1.0  0.31948  0.18720  0.30795  1.0000
  C   C281      1.0  0.33427  0.18693  0.28489  1.0000
  C   C282      1.0  0.34619  0.17065  0.28473  1.0000
  C   C283      1.0  0.34255  0.15433  0.30787  1.0000
  C   C284      1.0  0.32772  0.15456  0.33092  1.0000
  H   H340      1.0  0.31071  0.20016  0.30782  1.0000
  H   H341      1.0  0.33679  0.19961  0.26740  1.0000
  H   H342      1.0  0.35171  0.14172  0.30811  1.0000
  H   H343      1.0  0.32558  0.14217  0.34852  1.0000
  C   C285      1.0  0.32837  0.17354  0.03008  1.0000
  C   C286      1.0  0.35222  0.18915  0.04500  1.0000
  C   C287      1.0  0.35303  0.18588  0.07351  1.0000
  C   C288      1.0  0.32996  0.16692  0.08738  1.0000
  C   C289      1.0  0.30609  0.15141  0.07251  1.0000
  C   C290      1.0  0.30523  0.15473  0.04400  1.0000
  H   H344      1.0  0.37021  0.20366  0.03434  1.0000
  H   H345      1.0  0.37149  0.19792  0.08467  1.0000
  H   H346      1.0  0.28812  0.13673  0.08308  1.0000
  H   H347      1.0  0.28677  0.14259  0.03278  1.0000
  C   C291      1.0  0.47469  0.35981  0.12694  1.0000
  C   C292      1.0  0.45699  0.36084  0.14596  1.0000
  C   C293      1.0  0.43872  0.33737  0.16045  1.0000
  C   C294      1.0  0.43788  0.31259  0.15624  1.0000
  C   C295      1.0  0.45545  0.31150  0.13710  1.0000
  C   C296      1.0  0.47373  0.33497  0.12259  1.0000
  H   H348      1.0  0.45741  0.37971  0.14956  1.0000
  H   H349      1.0  0.42522  0.33849  0.17516  1.0000
  H   H350      1.0  0.45507  0.29264  0.13356  1.0000
  H   H351      1.0  0.42910  0.05539  0.17016  1.0000
  H   H352      1.0  0.43324  0.00554  0.00606  1.0000
  H   H353      1.0  0.40739  0.21214  0.30183  1.0000
  C   C297      1.0  0.30811  0.47129  0.30109  1.0000
  C   C298      1.0  0.30379  0.44543  0.30675  1.0000
  C   C299      1.0  0.32548  0.44273  0.31666  1.0000
  C   C300      1.0  0.35118  0.46551  0.32071  1.0000
  C   C301      1.0  0.43719  0.01290  0.21304  1.0000
  H   H354      1.0  0.29168  0.47373  0.29345  1.0000
  H   H355      1.0  0.32244  0.42285  0.32101  1.0000
  H   H356      1.0  0.36752  0.46301  0.32842  1.0000
  C   C302      1.0  0.36086  0.48138  0.24255  1.0000
  C   C303      1.0  0.37295  0.14260  0.01042  1.0000
  H   H357      1.0  0.36192  0.16204  0.40940  1.0000
  N   N21       1.0  0.40332  0.15300  0.08188  1.0000
  H   H358      1.0  0.50751  0.47102  0.99390  1.0000
  H   H359      1.0  0.27848  0.18314  0.07490  1.0000
  H   H360      1.0  0.43324  0.01101  0.28328  1.0000
  H   H361      1.0  0.45202  0.45932  0.38524  1.0000
  C   C304      1.0  0.48558  0.49175  0.00203  1.0000
  H   H362      1.0  0.30456  0.26040  0.03839  1.0000
  C   C305      1.0  0.46460  0.11647  0.13443  1.0000
  C   C306      1.0  0.48621  0.14257  0.13048  1.0000
  C   C307      1.0  0.48353  0.16516  0.13715  1.0000
  C   C308      1.0  0.45937  0.16201  0.14804  1.0000
  C   C309      1.0  0.43788  0.13588  0.15235  1.0000
  C   C310      1.0  0.44044  0.11331  0.14536  1.0000
  C   C311      1.0  0.40099  0.21126  0.32290  1.0000
  H   H363      1.0  0.31977  0.40348  0.24915  1.0000
  H   H364      1.0  0.41927  0.13304  0.16099  1.0000
  H   H365      1.0  0.42355  0.09326  0.14847  1.0000
  C   C312      1.0  0.44556  0.02064  0.44079  1.0000
  H   H366      1.0  0.43513  0.14607  0.09588  1.0000
  H   H367      1.0  0.28145  0.38729  0.38654  1.0000
  S   S98       1.0  0.43825  0.49363  0.34718  1.0000
  H   H368      1.0  0.35481  0.39760  0.98942  1.0000
  H   H369      1.0  0.43485  0.48589  0.27902  1.0000
  H   H370      1.0  0.33108  0.12104  0.99911  1.0000
  C   C313      1.0  0.33142  0.42521  0.24688  1.0000
  S   S99       1.0  0.45642  0.50025  0.42481  1.0000
  H   H371      1.0  0.40626  0.11688  0.08209  1.0000
  C   C314      1.0  0.37515  0.46720  0.24684  1.0000
  H   H372      1.0  0.40516  0.45364  0.27982  1.0000
  H   H373      1.0  0.44903  0.43458  0.42264  1.0000
  H   H374      1.0  0.34407  0.17180  0.43225  1.0000
  H   H375      1.0  0.40389  0.02350  0.18394  1.0000
  H   H376      1.0  0.36886  0.42655  0.25268  1.0000
  H   H377      1.0  0.33546  0.16712  0.39643  1.0000
  H   H378      1.0  0.29627  0.42924  0.24142  1.0000
  H   H379      1.0  0.48724  0.33385  0.10791  1.0000
  S   S100      1.0  0.48912  0.49370  0.29776  1.0000
  C   C315      1.0  0.26976  0.37789  0.36754  1.0000
  C   C316      1.0  0.29186  0.20481  0.07489  1.0000
  H   H380      1.0  0.45925  0.45392  0.35112  1.0000
  C   C317      1.0  0.31811  0.43967  0.24239  1.0000
  C   C318      1.0  0.28927  0.22052  0.05462  1.0000
  H   H381      1.0  0.42339  0.05150  0.20627  1.0000
  H   H382      1.0  0.33940  0.21198  0.39867  1.0000
  H   H383      1.0  0.47133  0.06900  0.21216  1.0000
  H   H384      1.0  0.38154  0.23434  0.31477  1.0000
  H   H385      1.0  0.40644  0.15631  0.12596  1.0000
  H   H386      1.0  0.48685  0.05058  0.19948  1.0000
  H   H387      1.0  0.41059  0.19365  0.07875  1.0000
  H   H388      1.0  0.43541  0.18833  0.06181  1.0000
  C   C319      1.0  0.49236  0.49707  0.26176  1.0000
  C   C320      1.0  0.41928  0.13911  0.07978  1.0000
  C   C321      1.0  0.40627  0.19660  0.34230  1.0000
  H   H389      1.0  0.50030  0.18525  0.13376  1.0000
  C   C322      1.0  0.49736  0.48089  0.98495  1.0000
  H   H390      1.0  0.44492  0.04248  0.24508  1.0000
  N   N22       1.0  0.44466  0.03226  0.19001  1.0000
  H   H391      1.0  0.43571  0.19049  0.09793  1.0000
  C   C323      1.0  0.33390  0.49407  0.30490  1.0000
  H   H392      1.0  0.46757  0.06031  0.42350  1.0000
  S   S101      1.0  0.49844  0.38878  0.10821  1.0000
  H   H393      1.0  0.41708  0.18637  0.33621  1.0000
  N   N23       1.0  0.35194  0.25688  0.11578  1.0000
  C   C324      1.0  0.36982  0.24525  0.11244  1.0000
  C   C325      1.0  0.36895  0.28669  0.11375  1.0000
  C   C326      1.0  0.34026  0.25047  0.14374  1.0000
  C   C327      1.0  0.33017  0.24497  0.09505  1.0000
  C   C328      1.0  0.31194  0.21675  0.09483  1.0000
  C   C329      1.0  0.32690  0.26051  0.07414  1.0000
  H   H394      1.0  0.40965  0.47350  0.20683  1.0000
  C   C330      1.0  0.33279  0.46766  0.24021  1.0000
  C   C331      1.0  0.47234  0.50437  0.98981  1.0000
  H   H395      1.0  0.37730  0.24762  0.09104  1.0000
  H   H396      1.0  0.38769  0.25516  0.12617  1.0000
  H   H397      1.0  0.35938  0.22338  0.11749  1.0000
  H   H398      1.0  0.37987  0.29294  0.09389  1.0000
  H   H399      1.0  0.38478  0.29492  0.12998  1.0000
  H   H400      1.0  0.35680  0.29683  0.11639  1.0000
  H   H401      1.0  0.32953  0.22846  0.14814  1.0000
  H   H402      1.0  0.35617  0.25989  0.15979  1.0000
  H   H403      1.0  0.32572  0.25780  0.14672  1.0000
  H   H404      1.0  0.31338  0.20354  0.10980  1.0000
  H   H405      1.0  0.33983  0.28205  0.07246  1.0000
  C   C332      1.0  0.38322  0.14363  0.05944  1.0000
  H   H406      1.0  0.45271  0.03590  0.14655  1.0000
  H   H407      1.0  0.45532  0.42486  0.46938  1.0000
  C   C333      1.0  0.35951  0.43867  0.24902  1.0000
  H   H408      1.0  0.42976  0.14290  0.05977  1.0000
  Fe  Fe50      1.0  0.49939  0.07836  0.11120  1.0000
  C   C334      1.0  0.30667  0.24831  0.05431  1.0000
  C   C335      1.0  0.46047  0.44886  0.37294  1.0000
  C   C336      1.0  0.34555  0.12656  0.01567  1.0000
  C   C337      1.0  0.33670  0.11837  0.04233  1.0000
  H   H409      1.0  0.40089  0.41154  0.00571  1.0000
  H   H410      1.0  0.31528  0.10635  0.04635  1.0000
  H   H411      1.0  0.34665  0.12032  0.08419  1.0000
  H   H412      1.0  0.41263  0.16288  0.02663  1.0000
  C   C338      1.0  0.39778  0.41708  0.98534  1.0000
  H   H413      1.0  0.50329  0.49297  0.35583  1.0000
  C   C339      1.0  0.42435  0.04103  0.18754  1.0000
  C   C340      1.0  0.45965  0.04868  0.44214  1.0000
  H   H414      1.0  0.37963  0.14914  0.98962  1.0000
  H   H415      1.0  0.40889  0.44879  0.23016  1.0000
  C   C341      1.0  0.50561  0.02317  0.45289  1.0000
  C   C342      1.0  0.47143  0.05644  0.19496  1.0000
  C   C343      1.0  0.50470  0.48706  0.37725  1.0000
  C   C344      1.0  0.41578  0.47059  0.22765  1.0000
  C   C345      1.0  0.39096  0.14755  0.10954  1.0000
  H   H416      1.0  0.43817  0.48105  0.22809  1.0000
  N   N24       1.0  0.37190  0.20378  0.40582  1.0000
  C   C346      1.0  0.35256  0.17494  0.41118  1.0000
  C   C347      1.0  0.39450  0.21306  0.42562  1.0000
  C   C348      1.0  0.35787  0.21922  0.41149  1.0000
  C   C349      1.0  0.38206  0.20697  0.37740  1.0000
  C   C350      1.0  0.39161  0.15074  0.03186  1.0000
  C   C351      1.0  0.37685  0.22162  0.35700  1.0000
  H   H417      1.0  0.37898  0.12559  0.11404  1.0000
  C   C352      1.0  0.38640  0.22379  0.33025  1.0000
  H   H418      1.0  0.49745  0.49760  0.39100  1.0000
  H   H419      1.0  0.47859  0.07016  0.17687  1.0000
  C   C353      1.0  0.41257  0.47542  0.27635  1.0000
  H   H420      1.0  0.37777  0.15660  0.11190  1.0000
  H   H421      1.0  0.40445  0.20064  0.42494  1.0000
  H   H422      1.0  0.38739  0.21168  0.44715  1.0000
  H   H423      1.0  0.41007  0.23440  0.42158  1.0000
  H   H424      1.0  0.27802  0.39347  0.35110  1.0000
  S   S102      1.0  0.48663  0.49019  0.03854  1.0000
  H   H425      1.0  0.37123  0.24118  0.40782  1.0000
  Fe  Fe51      1.0  0.50699  0.43255  0.10888  1.0000
  H   H426      1.0  0.36472  0.23088  0.36085  1.0000
  C   C354      1.0  0.39701  0.19445  0.36916  1.0000
  C   C355      1.0  0.49645  0.50084  0.20407  1.0000
  C   C356      1.0  0.44605  0.02070  0.16327  1.0000
  C   C357      1.0  0.49117  0.45072  0.40995  1.0000
  C   C358      1.0  0.42196  0.18258  0.07988  1.0000
  C   C359      1.0  0.49797  0.48011  0.21774  1.0000
  H   H427      1.0  0.37077  0.50309  0.24146  1.0000
  N   N25       1.0  0.40489  0.48091  0.24908  1.0000
  H   H428      1.0  0.32218  0.47881  0.23754  1.0000
  H   H429      1.0  0.26879  0.08348  0.36820  1.0000
  S   S103      1.0  0.32868  0.17764  0.99408  1.0000
  H   H430      1.0  0.27405  0.36175  0.36123  1.0000
  Fe  Fe52      1.0  0.29334  0.15759  0.46559  1.0000
  H   H431      1.0  0.49607  0.44820  0.34043  1.0000
  H   H432      1.0  0.46073  0.01332  0.16394  1.0000
  S   S104      1.0  0.49834  0.50409  0.16803  1.0000
  H   H433      1.0  0.27060  0.11559  0.36423  1.0000
  H   H434      1.0  0.48801  0.42207  0.36550  1.0000
  N   N26       1.0  0.48861  0.45747  0.38119  1.0000
  H   H435      1.0  0.44282  0.01056  0.42127  1.0000
  H   H436      1.0  0.50034  0.46531  0.20616  1.0000
  C   C360      1.0  0.43832  0.02165  0.24043  1.0000
  H   H437      1.0  0.49686  0.46201  0.25693  1.0000
  C   C361      1.0  0.49761  0.43930  0.46519  1.0000
  C   C362      1.0  0.49594  0.47826  0.24650  1.0000
  C   C363      1.0  0.46900  0.43884  0.42834  1.0000
  C   C364      1.0  0.47768  0.50026  0.45190  1.0000
  H   H438      1.0  0.26459  0.03503  0.00174  1.0000
  H   H439      1.0  0.50490  0.14538  0.12208  1.0000
  C   C365      1.0  0.49961  0.02002  0.99096  1.0000
  H   H440      1.0  0.26127  0.10429  0.31606  1.0000
  Fe  Fe53      1.0  0.50495  0.47613  0.07267  1.0000
  C   C366      1.0  0.47230  0.43311  0.45546  1.0000
  C   C367      1.0  0.49880  0.44430  0.36229  1.0000
  S   S105      1.0  0.50630  0.04550  0.01588  1.0000
  C   C368      1.0  0.50718  0.01824  0.22614  1.0000
  C   C369      1.0  0.46423  0.06170  0.46741  1.0000
  C   C370      1.0  0.43600  0.00551  0.46469  1.0000
  H   H441      1.0  0.47572  0.08347  0.46741  1.0000
  C   C371      1.0  0.46571  0.48580  0.47613  1.0000
  C   C372      1.0  0.44064  0.01828  0.49011  1.0000
  H   H442      1.0  0.50106  0.09170  0.50702  1.0000
  S   S106      1.0  0.48679  0.04145  0.60071  1.0000
  H   H443      1.0  0.28972  0.47721  0.73349  1.0000
  S   S107      1.0  0.44828  0.48813  0.83632  1.0000
  S   S108      1.0  0.48941  0.37874  0.59692  1.0000
  C   C373      1.0  0.44387  0.00923  0.74252  1.0000
  S   S109      1.0  0.48769  0.44825  0.58945  1.0000
  Fe  Fe54      1.0  0.27741  0.14823  0.90452  1.0000
  S   S110      1.0  0.28824  0.16649  0.86061  1.0000
  H   H444      1.0  0.39645  0.44005  0.86274  1.0000
  C   C374      1.0  0.35213  0.46375  0.73666  1.0000
  S   S111      1.0  0.29475  0.12876  0.93184  1.0000
  S   S112      1.0  0.27816  0.17556  0.93848  1.0000
  Fe  Fe55      1.0  0.41920  0.18450  0.67381  1.0000
  S   S113      1.0  0.37480  0.15707  0.68134  1.0000
  S   S114      1.0  0.45110  0.17119  0.67571  1.0000
  Fe  Fe56      1.0  0.41381  0.23581  0.67780  1.0000
  S   S115      1.0  0.36919  0.21134  0.68560  1.0000
  S   S116      1.0  0.43317  0.28164  0.68330  1.0000
  Fe  Fe57      1.0  0.37778  0.18585  0.71471  1.0000
  S   S117      1.0  0.36347  0.17189  0.75938  1.0000
  Fe  Fe58      1.0  0.36955  0.18468  0.65176  1.0000
  S   S118      1.0  0.33443  0.17025  0.62173  1.0000
  S   S119      1.0  0.42257  0.21186  0.70865  1.0000
  S   S120      1.0  0.41384  0.21068  0.64229  1.0000
  S   S121      1.0  0.26962  0.46911  0.78861  1.0000
  C   C375      1.0  0.30839  0.16653  0.83231  1.0000
  C   C376      1.0  0.30867  0.17983  0.80780  1.0000
  C   C377      1.0  0.32491  0.18135  0.78524  1.0000
  C   C378      1.0  0.34138  0.16966  0.78674  1.0000
  C   C379      1.0  0.34097  0.15622  0.81119  1.0000
  C   C380      1.0  0.32462  0.15458  0.83371  1.0000
  H   H445      1.0  0.29631  0.18918  0.80629  1.0000
  H   H446      1.0  0.32469  0.19162  0.76672  1.0000
  H   H447      1.0  0.35347  0.14701  0.81277  1.0000
  H   H448      1.0  0.32478  0.14424  0.85223  1.0000
  C   C381      1.0  0.33218  0.17165  0.52735  1.0000
  C   C382      1.0  0.35676  0.18011  0.54109  1.0000
  C   C383      1.0  0.35783  0.17928  0.56993  1.0000
  C   C384      1.0  0.33428  0.17018  0.58535  1.0000
  C   C385      1.0  0.30977  0.16178  0.57159  1.0000
  C   C386      1.0  0.30868  0.16245  0.54279  1.0000
  H   H449      1.0  0.37505  0.18717  0.52935  1.0000
  H   H450      1.0  0.37682  0.18563  0.58018  1.0000
  H   H451      1.0  0.29144  0.15473  0.58329  1.0000
  H   H452      1.0  0.28964  0.15589  0.53256  1.0000
  C   C387      1.0  0.47373  0.35211  0.62135  1.0000
  C   C388      1.0  0.47032  0.35680  0.64876  1.0000
  C   C389      1.0  0.45801  0.33502  0.66738  1.0000
  C   C390      1.0  0.44880  0.30829  0.65889  1.0000
  C   C391      1.0  0.45241  0.30364  0.63154  1.0000
  C   C392      1.0  0.46475  0.32541  0.61293  1.0000
  H   H453      1.0  0.47710  0.37717  0.65561  1.0000
  H   H454      1.0  0.45547  0.33893  0.68849  1.0000
  H   H455      1.0  0.44593  0.28333  0.62475  1.0000
  H   H456      1.0  0.47716  0.06982  0.77430  1.0000
  C   C393      1.0  0.34877  0.47451  0.81873  1.0000
  C   C394      1.0  0.32456  0.44960  0.81894  1.0000
  C   C395      1.0  0.30010  0.44757  0.81016  1.0000
  C   C396      1.0  0.29954  0.47054  0.80112  1.0000
  C   C397      1.0  0.32378  0.49542  0.80078  1.0000
  H   H457      1.0  0.39599  0.25346  0.72979  1.0000
  H   H458      1.0  0.27272  0.43115  0.75036  1.0000
  H   H459      1.0  0.28170  0.42827  0.81043  1.0000
  C   C398      1.0  0.42022  0.28630  0.77260  1.0000
  H   H460      1.0  0.29477  0.48446  0.69759  1.0000
  C   C399      1.0  0.37092  0.25628  0.80686  1.0000
  H   H461      1.0  0.42222  0.44462  0.88601  1.0000
  H   H462      1.0  0.47174  0.47268  0.51595  1.0000
  C   C400      1.0  0.31076  0.44871  0.70966  1.0000
  H   H463      1.0  0.42618  0.03084  0.54068  1.0000
  H   H464      1.0  0.45668  0.02899  0.54509  1.0000
  H   H465      1.0  0.40742  0.29585  0.77265  1.0000
  H   H466      1.0  0.37627  0.22329  0.60828  1.0000
  H   H467      1.0  0.42850  0.07003  0.51411  1.0000
  C   C401      1.0  0.44212  0.01778  0.71612  1.0000
  C   C402      1.0  0.47727  0.12356  0.61908  1.0000
  C   C403      1.0  0.48963  0.13325  0.64449  1.0000
  C   C404      1.0  0.48116  0.14753  0.66153  1.0000
  C   C405      1.0  0.46029  0.15239  0.65348  1.0000
  C   C406      1.0  0.44776  0.14246  0.62819  1.0000
  C   C407      1.0  0.45627  0.12823  0.61111  1.0000
  C   C408      1.0  0.41600  0.43966  0.94224  1.0000
  H   H468      1.0  0.45272  0.09238  0.69396  1.0000
  H   H469      1.0  0.43171  0.14603  0.62168  1.0000
  H   H470      1.0  0.44660  0.12098  0.59148  1.0000
  H   H471      1.0  0.38514  0.46312  0.71644  1.0000
  N   N27       1.0  0.38685  0.44219  0.90510  1.0000
  N   N28       1.0  0.28267  0.44335  0.70798  1.0000
  C   C409      1.0  0.45046  0.08051  0.51872  1.0000
  H   H472      1.0  0.48127  0.07810  0.65047  1.0000
  H   H473      1.0  0.39147  0.47887  0.92231  1.0000
  H   H474      1.0  0.31698  0.46270  0.75194  1.0000
  H   H475      1.0  0.41229  0.22373  0.76688  1.0000
  H   H476      1.0  0.43666  0.04197  0.64133  1.0000
  H   H477      1.0  0.49867  0.06259  0.52364  1.0000
  C   C410      1.0  0.45486  0.04691  0.49222  1.0000
  S   S122      1.0  0.37884  0.47561  0.83032  1.0000
  H   H478      1.0  0.49289  0.08958  0.68441  1.0000
  H   H479      1.0  0.34192  0.25426  0.83632  1.0000
  H   H480      1.0  0.45500  0.49607  0.69185  1.0000
  H   H481      1.0  0.43873  0.08015  0.66127  1.0000
  C   C411      1.0  0.47607  0.50439  0.73047  1.0000
  C   C412      1.0  0.45645  0.02793  0.76339  1.0000
  H   H482      1.0  0.41990  0.06299  0.69144  1.0000
  H   H483      1.0  0.34580  0.22143  0.86625  1.0000
  C   C413      1.0  0.32570  0.45871  0.73427  1.0000
  H   H484      1.0  0.44404  0.47569  0.47824  1.0000
  S   S123      1.0  0.33186  0.17342  0.49102  1.0000
  H   H485      1.0  0.43276  0.29380  0.75370  1.0000
  H   H486      1.0  0.50468  0.32216  0.65945  1.0000
  C   C414      1.0  0.46707  0.05532  0.75806  1.0000
  C   C415      1.0  0.32407  0.44424  0.68744  1.0000
  C   C416      1.0  0.35830  0.43147  0.89679  1.0000
  H   H487      1.0  0.26675  0.40439  0.72712  1.0000
  H   H488      1.0  0.35669  0.43868  0.87600  1.0000
  H   H489      1.0  0.37128  0.25554  0.75027  1.0000
  H   H490      1.0  0.39211  0.41223  0.88377  1.0000
  H   H491      1.0  0.34546  0.22238  0.57189  1.0000
  H   H492      1.0  0.43395  0.29407  0.79059  1.0000
  N   N29       1.0  0.36717  0.25499  0.60060  1.0000
  C   C417      1.0  0.38594  0.24562  0.60929  1.0000
  C   C418      1.0  0.34320  0.24253  0.61878  1.0000
  C   C419      1.0  0.35767  0.24480  0.57245  1.0000
  C   C420      1.0  0.38128  0.28479  0.60261  1.0000
  C   C421      1.0  0.38812  0.29759  0.62858  1.0000
  C   C422      1.0  0.39036  0.30190  0.57920  1.0000
  C   C423      1.0  0.40239  0.32568  0.63096  1.0000
  C   C424      1.0  0.40499  0.33000  0.58185  1.0000
  C   C425      1.0  0.41094  0.34185  0.60765  1.0000
  H   H493      1.0  0.39294  0.25153  0.63076  1.0000
  H   H494      1.0  0.40416  0.25424  0.59606  1.0000
  H   H495      1.0  0.34860  0.24532  0.64084  1.0000
  H   H496      1.0  0.33117  0.22021  0.61600  1.0000
  H   H497      1.0  0.32966  0.25090  0.61459  1.0000
  H   H498      1.0  0.37467  0.25016  0.55812  1.0000
  H   H499      1.0  0.34458  0.25246  0.56421  1.0000
  H   H500      1.0  0.38342  0.28601  0.64731  1.0000
  H   H501      1.0  0.38685  0.29410  0.55861  1.0000
  H   H502      1.0  0.40781  0.33498  0.65100  1.0000
  H   H503      1.0  0.41231  0.34274  0.56383  1.0000
  H   H504      1.0  0.42294  0.36361  0.60959  1.0000
  N   N30       1.0  0.46073  0.06123  0.51877  1.0000
  C   C426      1.0  0.38998  0.43246  0.93225  1.0000
  H   H505      1.0  0.43793  0.25204  0.78592  1.0000
  C   C427      1.0  0.46526  0.06411  0.73180  1.0000
  H   H506      1.0  0.37628  0.20436  0.85373  1.0000
  C   C428      1.0  0.38879  0.24699  0.79904  1.0000
  H   H507      1.0  0.47431  0.08560  0.72857  1.0000
  C   C429      1.0  0.42316  0.24613  0.76886  1.0000
  H   H508      1.0  0.34722  0.40904  0.89596  1.0000
  H   H509      1.0  0.36294  0.47122  0.75586  1.0000
  H   H510      1.0  0.49116  0.15532  0.68094  1.0000
  C   C430      1.0  0.43700  0.03373  0.66194  1.0000
  C   C431      1.0  0.35588  0.24740  0.83100  1.0000
  N   N31       1.0  0.45243  0.05560  0.68202  1.0000
  C   C432      1.0  0.48047  0.07122  0.67198  1.0000
  H   H511      1.0  0.46738  0.32153  0.59184  1.0000
  C   C433      1.0  0.44042  0.07344  0.68229  1.0000
  C   C434      1.0  0.45270  0.04561  0.70998  1.0000
  C   C435      1.0  0.28214  0.46871  0.71280  1.0000
  H   H512      1.0  0.45362  0.09072  0.53896  1.0000
  H   H513      1.0  0.50620  0.13042  0.65071  1.0000
  H   H514      1.0  0.50021  0.43585  0.48655  1.0000
  H   H515      1.0  0.45855  0.02118  0.78356  1.0000
  H   H516      1.0  0.36801  0.27005  0.79406  1.0000
  C   C436      1.0  0.38515  0.24724  0.74971  1.0000
  C   C437      1.0  0.35063  0.44948  0.68998  1.0000
  H   H517      1.0  0.26820  0.41263  0.67671  1.0000
  H   H518      1.0  0.43497  0.25420  0.74964  1.0000
  H   H519      1.0  0.43374  0.45159  0.93002  1.0000
  H   H520      1.0  0.34733  0.41048  0.94433  1.0000
  H   H521      1.0  0.45288  0.05444  0.56215  1.0000
  C   C438      1.0  0.39995  0.43437  0.88360  1.0000
  H   H522      1.0  0.37246  0.22485  0.74957  1.0000
  H   H523      1.0  0.46086  0.09695  0.50350  1.0000
  H   H524      1.0  0.36048  0.44598  0.67282  1.0000
  N   N32       1.0  0.40415  0.25639  0.77312  1.0000
  C   C439      1.0  0.35815  0.22904  0.84801  1.0000
  Fe  Fe59      1.0  0.29237  0.15363  0.96632  1.0000
  H   H525      1.0  0.32469  0.43169  0.82595  1.0000
  S   S124      1.0  0.48752  0.10603  0.59629  1.0000
  C   C440      1.0  0.48141  0.48405  0.49765  1.0000
  C   C441      1.0  0.49656  0.02514  0.96333  1.0000
  C   C442      1.0  0.37540  0.21945  0.84093  1.0000
  C   C443      1.0  0.26613  0.42345  0.72925  1.0000
  H   H526      1.0  0.34764  0.43838  0.91077  1.0000
  C   C444      1.0  0.34826  0.49743  0.80949  1.0000
  C   C445      1.0  0.39040  0.22803  0.81675  1.0000
  S   S125      1.0  0.48683  0.48768  0.65218  1.0000
  S   S126      1.0  0.49493  0.00898  0.53571  1.0000
  C   C446      1.0  0.39996  0.47201  0.90573  1.0000
  H   H527      1.0  0.40235  0.21874  0.81201  1.0000
  H   H528      1.0  0.42206  0.48171  0.90923  1.0000
  C   C447      1.0  0.26946  0.43234  0.68116  1.0000
  C   C448      1.0  0.36460  0.45916  0.71454  1.0000
  C   C449      1.0  0.36788  0.41690  0.95000  1.0000
  H   H529      1.0  0.49866  0.04443  0.95772  1.0000
  H   H530      1.0  0.50520  0.47428  0.94327  1.0000
  C   C450      1.0  0.44847  0.04295  0.54261  1.0000
  H   H531      1.0  0.39708  0.48013  0.88606  1.0000
  C   C451      1.0  0.41979  0.43217  0.96840  1.0000
  H   H532      1.0  0.49037  0.05868  0.67265  1.0000
  H   H533      1.0  0.31443  0.43669  0.66790  1.0000
  H   H534      1.0  0.26128  0.46545  0.71162  1.0000
  H   H535      1.0  0.28010  0.44669  0.66414  1.0000
  C   C452      1.0  0.49601  0.48280  0.95618  1.0000
  C   C453      1.0  0.49175  0.49466  0.68767  1.0000
  C   C454      1.0  0.49024  0.07645  0.52323  1.0000
  C   C455      1.0  0.47262  0.49821  0.70234  1.0000
  H   H536      1.0  0.41570  0.02083  0.66847  1.0000
  H   H537      1.0  0.44633  0.02081  0.65890  1.0000
  H   H538      1.0  0.49546  0.08760  0.54300  1.0000
  C   C456      1.0  0.48306  0.49571  0.94401  1.0000
  S   S127      1.0  0.49061  0.00630  0.66475  1.0000
  C   C457      1.0  0.49562  0.00614  0.70044  1.0000
  H   H539      1.0  0.48845  0.00998  0.92179  1.0000
  S   S128      1.0  0.48212  0.49732  0.90749  1.0000
  C   C458      1.0  0.37188  0.40933  0.97611  1.0000
  H   H540      1.0  0.43360  0.00522  0.50779  1.0000
  C   C459      1.0  0.49344  0.00540  0.49929  1.0000
  H   H541      1.0  0.43998  0.43842  0.97572  1.0000
  C   C460      1.0  0.49055  0.00551  0.94285  1.0000
  Fe  Fe60      1.0  0.47637  0.91927  0.33872  1.0000
  C   C461      1.0  0.49475  0.86423  0.30695  1.0000
  S   S129      1.0  0.38793  0.52073  0.31809  1.0000
  Fe  Fe61      1.0  0.42153  0.91701  0.33728  1.0000
  S   S130      1.0  0.44032  0.96232  0.33887  1.0000
  S   S131      1.0  0.37582  0.88944  0.34171  1.0000
  Fe  Fe62      1.0  0.46917  0.96212  0.30776  1.0000
  S   S132      1.0  0.50662  0.61747  0.35165  1.0000
  Fe  Fe63      1.0  0.46788  0.96142  0.37148  1.0000
  H   H542      1.0  0.49960  0.99078  0.01879  1.0000
  S   S133      1.0  0.44906  0.91692  0.30399  1.0000
  S   S134      1.0  0.44754  0.91607  0.37203  1.0000
  C   C462      1.0  0.44351  0.62009  0.35471  1.0000
  S   S135      1.0  0.46336  0.54797  0.30812  1.0000
  H   H543      1.0  0.41332  0.94591  0.22784  1.0000
  C   C463      1.0  0.30270  0.91981  0.31917  1.0000
  S   S136      1.0  0.44704  0.54982  0.37245  1.0000
  H   H544      1.0  0.49028  0.91581  0.43268  1.0000
  Fe  Fe64      1.0  0.42702  0.52467  0.33514  1.0000
  Fe  Fe65      1.0  0.48405  0.57163  0.34603  1.0000
  C   C464      1.0  0.29103  0.87160  0.38988  1.0000
  S   S137      1.0  0.49777  0.96440  0.34015  1.0000
  S   S138      1.0  0.27711  0.85125  0.25782  1.0000
  H   H545      1.0  0.49977  0.91729  0.28067  1.0000
  H   H546      1.0  0.42610  0.00394  0.15673  1.0000
  H   H547      1.0  0.44056  0.52032  0.24735  1.0000
  H   H548      1.0  0.49865  0.94673  0.27020  1.0000
  H   H549      1.0  0.43062  0.59012  0.29231  1.0000
  C   C465      1.0  0.49325  0.51983  0.21938  1.0000
  S   S139      1.0  0.48719  0.99390  0.40510  1.0000
  H   H550      1.0  0.42582  0.98367  0.46356  1.0000
  C   C466      1.0  0.34890  0.87863  0.31767  1.0000
  C   C467      1.0  0.35286  0.88823  0.29073  1.0000
  C   C468      1.0  0.33071  0.87941  0.27271  1.0000
  C   C469      1.0  0.30430  0.86111  0.28136  1.0000
  C   C470      1.0  0.30036  0.85151  0.30831  1.0000
  C   C471      1.0  0.32253  0.86015  0.32624  1.0000
  H   H551      1.0  0.37297  0.90234  0.28375  1.0000
  H   H552      1.0  0.33405  0.88685  0.25188  1.0000
  H   H553      1.0  0.28030  0.83721  0.31528  1.0000
  H   H554      1.0  0.31923  0.85235  0.34691  1.0000
  H   H555      1.0  0.43474  0.57677  0.32407  1.0000
  C   C472      1.0  0.43961  0.59575  0.31314  1.0000
  H   H556      1.0  0.31049  0.90616  0.31316  1.0000
  H   H557      1.0  0.30389  0.93145  0.30040  1.0000
  H   H558      1.0  0.31663  0.93449  0.33452  1.0000
  C   C473      1.0  0.26568  0.85634  0.40169  1.0000
  C   C474      1.0  0.47845  0.96978  0.22609  1.0000
  C   C475      1.0  0.48042  0.96988  0.19732  1.0000
  H   H559      1.0  0.46633  0.95105  0.23695  1.0000
  H   H560      1.0  0.46983  0.95112  0.18614  1.0000
  S   S140      1.0  0.49651  0.99398  0.14674  1.0000
  C   C476      1.0  0.49722  0.99511  0.99773  1.0000
  H   H561      1.0  0.46564  0.63307  0.35214  1.0000
  H   H562      1.0  0.46251  0.95556  0.45103  1.0000
  C   C477      1.0  0.46066  0.65430  0.30354  1.0000
  N   N33       1.0  0.42922  0.61123  0.32811  1.0000
  C   C478      1.0  0.48936  0.99735  0.44152  1.0000
  H   H563      1.0  0.41710  0.96274  0.27506  1.0000
  H   H564      1.0  0.39131  0.60208  0.34658  1.0000
  C   C479      1.0  0.44521  0.68201  0.28135  1.0000
  C   C480      1.0  0.47524  0.97551  0.45929  1.0000
  C   C481      1.0  0.46606  0.67727  0.28847  1.0000
  C   C482      1.0  0.49552  0.99421  0.18291  1.0000
  N   N34       1.0  0.27473  0.90431  0.32981  1.0000
  H   H565      1.0  0.26084  0.89647  0.28780  1.0000
  H   H566      1.0  0.48438  0.83052  0.28002  1.0000
  H   H567      1.0  0.39246  0.62736  0.30967  1.0000
  C   C483      1.0  0.42763  0.98490  0.20908  1.0000
  C   C484      1.0  0.49097  0.97537  0.97728  1.0000
  C   C485      1.0  0.40030  0.59237  0.33400  1.0000
  Fe  Fe66      1.0  0.47595  0.51856  0.32278  1.0000
  C   C486      1.0  0.41327  0.64061  0.30425  1.0000
  H   H568      1.0  0.39739  0.57435  0.34578  1.0000
  H   H569      1.0  0.44060  0.60264  0.36747  1.0000
  H   H570      1.0  0.43098  0.92957  0.00738  1.0000
  H   H571      1.0  0.26786  0.93673  0.31764  1.0000
  H   H572      1.0  0.42626  0.97627  0.18913  1.0000
  H   H573      1.0  0.48660  0.69152  0.28234  1.0000
  C   C487      1.0  0.41889  0.66373  0.28920  1.0000
  C   C488      1.0  0.49125  0.51801  0.24808  1.0000
  Fe  Fe67      1.0  0.46164  0.52061  0.38262  1.0000
  H   H574      1.0  0.31456  0.89848  0.35854  1.0000
  H   H575      1.0  0.49225  0.53605  0.20894  1.0000
  H   H576      1.0  0.43639  0.63189  0.36665  1.0000
  H   H577      1.0  0.30820  0.87089  0.39839  1.0000
  C   C489      1.0  0.42008  0.96707  0.23127  1.0000
  C   C490      1.0  0.42717  0.94401  0.99671  1.0000
  H   H578      1.0  0.44953  0.69994  0.26976  1.0000
  H   H579      1.0  0.46187  0.60706  0.31097  1.0000
  C   C491      1.0  0.42212  0.97649  0.25789  1.0000
  C   C492      1.0  0.43413  0.63520  0.31189  1.0000
  C   C493      1.0  0.29441  0.88749  0.36678  1.0000
  S   S141      1.0  0.49001  0.99567  0.27654  1.0000
  C   C494      1.0  0.49165  0.99408  0.24055  1.0000
  H   H580      1.0  0.47752  0.65169  0.30871  1.0000
  H   H581      1.0  0.33702  0.51392  0.30016  1.0000
  H   H582      1.0  0.38843  0.58440  0.31479  1.0000
  C   C495      1.0  0.25767  0.88592  0.30780  1.0000
  S   S142      1.0  0.49997  0.54403  0.35869  1.0000
  H   H583      1.0  0.40275  0.66758  0.28362  1.0000
  H   H584      1.0  0.47567  0.86360  0.30430  1.0000
  C   C496      1.0  0.27220  0.88834  0.35468  1.0000
  C   C497      1.0  0.26536  0.92377  0.33570  1.0000
  H   H585      1.0  0.48957  0.94389  0.41709  1.0000
  C   C498      1.0  0.49995  0.93177  0.41687  1.0000
  H   H586      1.0  0.26314  0.84392  0.41947  1.0000
  C   C499      1.0  0.50558  0.93245  0.26390  1.0000
  C   C500      1.0  0.41825  0.51068  0.24583  1.0000
  H   H587      1.0  0.41382  0.51636  0.22546  1.0000
  H   H588      1.0  0.27669  0.93706  0.35319  1.0000
  H   H589      1.0  0.48899  0.53287  0.25962  1.0000
  C   C501      1.0  0.49970  0.84539  0.29329  1.0000
  H   H590      1.0  0.48859  0.95599  0.98293  1.0000
  H   H591      1.0  0.44003  0.97163  0.03063  1.0000
  H   H592      1.0  0.50694  0.89019  0.25076  1.0000
  H   H593      1.0  0.46306  0.51277  0.00278  1.0000
  C   C502      1.0  0.50579  0.51330  0.44972  1.0000
  H   H594      1.0  0.49406  0.92223  0.24507  1.0000
  H   H595      1.0  0.41192  0.51992  0.26219  1.0000
  H   H596      1.0  0.26208  0.86926  0.30475  1.0000
  H   H597      1.0  0.49566  0.92116  0.39683  1.0000
  C   C503      1.0  0.43122  0.00372  0.26247  1.0000
  C   C504      1.0  0.43228  0.96768  0.00987  1.0000
  C   C505      1.0  0.42841  0.98677  0.99596  1.0000
  Fe  Fe68      1.0  0.46577  0.90757  0.83360  1.0000
  H   H598      1.0  0.28987  0.89225  0.87870  1.0000
  H   H599      1.0  0.44643  0.84622  0.76915  1.0000
  Fe  Fe69      1.0  0.42268  0.92506  0.83570  1.0000
  S   S143      1.0  0.45313  0.96671  0.85043  1.0000
  S   S144      1.0  0.38019  0.91899  0.82984  1.0000
  Fe  Fe70      1.0  0.48063  0.96499  0.81875  1.0000
  H   H600      1.0  0.37407  0.81288  0.75461  1.0000
  Fe  Fe71      1.0  0.46892  0.94684  0.87891  1.0000
  S   S145      1.0  0.47738  0.95359  0.92531  1.0000
  S   S146      1.0  0.44942  0.92484  0.80212  1.0000
  S   S147      1.0  0.43661  0.90506  0.86619  1.0000
  S   S148      1.0  0.50003  0.54677  0.84535  1.0000
  S   S149      1.0  0.45185  0.54054  0.80355  1.0000
  H   H601      1.0  0.39384  0.92623  0.89211  1.0000
  C   C506      1.0  0.49810  0.65788  0.78717  1.0000
  S   S150      1.0  0.44231  0.53383  0.87116  1.0000
  H   H602      1.0  0.44014  0.90106  0.73970  1.0000
  S   S151      1.0  0.46793  0.86907  0.82597  1.0000
  Fe  Fe72      1.0  0.47284  0.56440  0.84153  1.0000
  C   C507      1.0  0.43996  0.86032  0.76086  1.0000
  S   S152      1.0  0.50592  0.00276  0.79338  1.0000
  C   C508      1.0  0.49541  0.57162  0.91695  1.0000
  H   H603      1.0  0.44346  0.97777  0.90878  1.0000
  C   C509      1.0  0.40060  0.92861  0.91388  1.0000
  H   H604      1.0  0.41486  0.86448  0.80610  1.0000
  H   H605      1.0  0.37917  0.97221  0.93125  1.0000
  Fe  Fe73      1.0  0.47765  0.52133  0.80919  1.0000
  H   H606      1.0  0.48057  0.56781  0.93347  1.0000
  H   H607      1.0  0.40338  0.80957  0.75692  1.0000
  H   H608      1.0  0.37517  0.91679  0.73088  1.0000
  C   C510      1.0  0.35041  0.89130  0.81604  1.0000
  C   C511      1.0  0.33014  0.89586  0.80531  1.0000
  C   C512      1.0  0.30554  0.87431  0.79560  1.0000
  C   C513      1.0  0.30068  0.84779  0.79700  1.0000
  C   C514      1.0  0.32101  0.84328  0.80763  1.0000
  C   C515      1.0  0.34573  0.86484  0.81701  1.0000
  H   H609      1.0  0.33351  0.91623  0.80444  1.0000
  H   H610      1.0  0.29031  0.87822  0.78717  1.0000
  H   H611      1.0  0.31749  0.82286  0.80884  1.0000
  H   H612      1.0  0.36093  0.86094  0.82549  1.0000
  H   H613      1.0  0.47221  0.82141  0.81904  1.0000
  C   C516      1.0  0.49173  0.63494  0.80332  1.0000
  H   H614      1.0  0.38320  0.83481  0.79936  1.0000
  H   H615      1.0  0.36916  0.94852  0.90383  1.0000
  H   H616      1.0  0.45230  0.87963  0.77200  1.0000
  H   H617      1.0  0.47582  0.61528  0.79702  1.0000
  H   H618      1.0  0.34351  0.87236  0.75091  1.0000
  H   H619      1.0  0.35919  0.84193  0.76603  1.0000
  H   H620      1.0  0.46923  0.96318  0.70320  1.0000
  C   C517      1.0  0.37769  0.95285  0.92496  1.0000
  C   C518      1.0  0.47109  0.50639  0.96105  1.0000
  H   H621      1.0  0.32363  0.51330  0.79369  1.0000
  H   H622      1.0  0.46111  0.50687  0.74154  1.0000
  H   H623      1.0  0.44557  0.86340  0.73883  1.0000
  C   C519      1.0  0.48197  0.98145  0.71447  1.0000
  C   C520      1.0  0.37380  0.86092  0.75700  1.0000
  C   C521      1.0  0.49100  0.83831  0.81213  1.0000
  H   H624      1.0  0.48715  0.65558  0.76835  1.0000
  H   H625      1.0  0.41295  0.83237  0.80343  1.0000
  N   N35       1.0  0.40412  0.95397  0.92609  1.0000
  H   H626      1.0  0.48410  0.58460  0.75600  1.0000
  H   H627      1.0  0.28801  0.90226  0.84428  1.0000
  C   C522      1.0  0.39606  0.82354  0.75044  1.0000
  H   H628      1.0  0.47434  0.96103  0.75345  1.0000
  Fe  Fe74      1.0  0.42323  0.50853  0.83333  1.0000
  H   H629      1.0  0.36665  0.51673  0.80916  1.0000
  C   C523      1.0  0.49638  0.57656  0.74657  1.0000
  C   C524      1.0  0.48479  0.98018  0.74294  1.0000
  H   H630      1.0  0.42327  0.93047  0.72529  1.0000
  C   C525      1.0  0.48717  0.98020  0.94975  1.0000
  H   H631      1.0  0.29107  0.87301  0.85027  1.0000
  C   C526      1.0  0.36456  0.87823  0.74836  1.0000
  C   C527      1.0  0.41889  0.89367  0.74243  1.0000
  S   S153      1.0  0.49739  0.60977  0.84990  1.0000
  C   C528      1.0  0.49465  0.86455  0.81337  1.0000
  C   C529      1.0  0.40944  0.91091  0.73400  1.0000
  C   C530      1.0  0.38238  0.90326  0.73709  1.0000
  Fe  Fe75      1.0  0.46869  0.51495  0.87239  1.0000
  C   C531      1.0  0.28145  0.88451  0.85801  1.0000
  H   H632      1.0  0.39880  0.82637  0.72788  1.0000
  H   H633      1.0  0.46617  0.96250  0.50141  1.0000
  C   C532      1.0  0.40132  0.86820  0.75462  1.0000
  N   N36       1.0  0.41066  0.84980  0.76486  1.0000
  C   C533      1.0  0.40506  0.84510  0.79462  1.0000
  C   C534      1.0  0.50133  0.00367  0.75766  1.0000
  S   S154      1.0  0.49888  0.94788  0.84818  1.0000
  H   H634      1.0  0.49418  0.55201  0.91228  1.0000
  H   H635      1.0  0.49109  0.57308  0.72450  1.0000
  H   H636      1.0  0.36290  0.93678  0.93875  1.0000
  C   C535      1.0  0.47725  0.97956  0.48793  1.0000
  H   H637      1.0  0.43306  0.00223  0.70077  1.0000
  H   H638      1.0  0.38525  0.91048  0.92507  1.0000
  H   H639      1.0  0.46081  0.51613  0.95218  1.0000
  S   S155      1.0  0.50545  0.51724  0.77888  1.0000
  C   C536      1.0  0.50541  0.63770  0.82792  1.0000
  H   H640      1.0  0.41647  0.97386  0.88689  1.0000
  H   H641      1.0  0.41993  0.92835  0.91382  1.0000
  H   H642      1.0  0.48973  0.55628  0.75556  1.0000
  H   H643      1.0  0.43621  0.98799  0.74671  1.0000
  C   C537      1.0  0.42343  0.97652  0.90856  1.0000
  C   C538      1.0  0.41397  0.95835  0.95475  1.0000
  H   H644      1.0  0.42654  0.99642  0.91516  1.0000
  C   C539      1.0  0.49896  0.50748  0.74407  1.0000
  H   H645      1.0  0.48874  0.57793  0.89832  1.0000
  S   S156      1.0  0.26971  0.81956  0.78617  1.0000
  C   C540      1.0  0.41832  0.93935  0.96951  1.0000
  C   C541      1.0  0.41915  0.98215  0.96892  1.0000
  H   H646      1.0  0.41646  0.99760  0.95911  1.0000
  H   H647      1.0  0.41575  0.92105  0.96036  1.0000
  H   H648      1.0  0.50719  0.61664  0.94211  1.0000
  H   H649      1.0  0.61994  0.47434  0.08577  1.0000
  S   S157      1.0  0.52810  0.07432  0.14010  1.0000
  N   N37       1.0  0.58408  0.42251  0.10210  1.0000
  S   S158      1.0  0.52951  0.09457  0.07680  1.0000
  Fe  Fe76      1.0  0.50786  0.48100  0.13607  1.0000
  Fe  Fe77      1.0  0.55716  0.08740  0.10448  1.0000
  S   S159      1.0  0.60216  0.11881  0.10119  1.0000
  H   H650      1.0  0.59324  0.11523  0.02501  1.0000
  S   S160      1.0  0.54221  0.04532  0.08853  1.0000
  C   C542      1.0  0.62822  0.42456  0.11522  1.0000
  S   S161      1.0  0.53447  0.46257  0.14055  1.0000
  C   C543      1.0  0.58250  0.07633  0.98570  1.0000
  S   S162      1.0  0.53168  0.45753  0.07273  1.0000
  Fe  Fe78      1.0  0.51319  0.05160  0.06258  1.0000
  H   H651      1.0  0.72514  0.19787  0.14612  1.0000
  Fe  Fe79      1.0  0.55724  0.48827  0.10452  1.0000
  S   S163      1.0  0.70576  0.14549  0.17414  1.0000
  C   C544      1.0  0.65628  0.43919  0.11805  1.0000
  C   C545      1.0  0.72468  0.25656  0.15421  1.0000
  C   C546      1.0  0.63066  0.12404  0.12089  1.0000
  C   C547      1.0  0.62817  0.11268  0.14686  1.0000
  C   C548      1.0  0.65139  0.11924  0.16258  1.0000
  C   C549      1.0  0.67741  0.13687  0.15248  1.0000
  C   C550      1.0  0.67989  0.14746  0.12607  1.0000
  C   C551      1.0  0.65667  0.14135  0.11059  1.0000
  H   H652      1.0  0.60837  0.09942  0.15517  1.0000
  H   H653      1.0  0.64916  0.11079  0.18289  1.0000
  H   H654      1.0  0.69963  0.16050  0.11761  1.0000
  H   H655      1.0  0.65887  0.15027  0.09054  1.0000
  H   H656      1.0  0.55215  0.42568  0.12164  1.0000
  H   H657      1.0  0.58137  0.09120  0.05235  1.0000
  H   H658      1.0  0.56029  0.06777  0.98344  1.0000
  C   C552      1.0  0.63038  0.17695  0.14766  1.0000
  Fe  Fe80      1.0  0.75181  0.17178  0.17078  1.0000
  C   C553      1.0  0.66965  0.19159  0.17654  1.0000
  C   C554      1.0  0.51668  0.45671  0.42057  1.0000
  C   C555      1.0  0.67404  0.21168  0.13178  1.0000
  H   H659      1.0  0.58123  0.45735  0.11395  1.0000
  H   H660      1.0  0.53457  0.46636  0.40807  1.0000
  H   H661      1.0  0.55246  0.41204  0.07226  1.0000
  C   C556      1.0  0.65775  0.10343  0.05107  1.0000
  C   C557      1.0  0.62939  0.46362  0.09432  1.0000
  H   H662      1.0  0.69699  0.11928  0.03307  1.0000
  H   H663      1.0  0.67738  0.18831  0.19547  1.0000
  H   H664      1.0  0.57741  0.38210  0.09742  1.0000
  H   H665      1.0  0.71514  0.23288  0.20391  1.0000
  H   H666      1.0  0.71326  0.26366  0.16680  1.0000
  C   C558      1.0  0.51976  0.45110  0.44780  1.0000
  H   H667      1.0  0.54841  0.38365  0.10848  1.0000
  C   C559      1.0  0.57451  0.43635  0.12071  1.0000
  H   H668      1.0  0.57472  0.39136  0.13232  1.0000
  H   H669      1.0  0.74659  0.27003  0.15853  1.0000
  H   H670      1.0  0.68569  0.22475  0.11516  1.0000
  H   H671      1.0  0.51773  0.03707  0.23723  1.0000
  C   C560      1.0  0.57597  0.04908  0.02539  1.0000
  C   C561      1.0  0.66596  0.10726  0.00246  1.0000
  N   N38       1.0  0.71601  0.22789  0.16025  1.0000
  H   H672      1.0  0.69245  0.47741  0.11211  1.0000
  H   H673      1.0  0.60911  0.16345  0.14388  1.0000
  H   H674      1.0  0.52642  0.49523  0.38167  1.0000
  C   C562      1.0  0.68653  0.21068  0.15658  1.0000
  C   C563      1.0  0.57489  0.42348  0.07387  1.0000
  C   C564      1.0  0.63019  0.09254  0.04626  1.0000
  C   C565      1.0  0.64638  0.19508  0.12751  1.0000
  C   C566      1.0  0.57079  0.39367  0.11044  1.0000
  H   H675      1.0  0.63732  0.19558  0.10816  1.0000
  H   H676      1.0  0.58102  0.44433  0.06709  1.0000
  C   C567      1.0  0.67079  0.46589  0.10926  1.0000
  H   H677      1.0  0.62963  0.16022  0.18720  1.0000
  H   H678      1.0  0.55372  0.03979  0.02319  1.0000
  C   C568      1.0  0.65738  0.47798  0.09721  1.0000
  H   H679      1.0  0.55947  0.08716  0.02495  1.0000
  H   H680      1.0  0.58005  0.04796  0.04745  1.0000
  C   C569      1.0  0.64200  0.17517  0.17207  1.0000
  C   C570      1.0  0.61387  0.43649  0.10337  1.0000
  H   H681      1.0  0.72209  0.26003  0.13233  1.0000
  N   N39       1.0  0.59030  0.07715  0.01487  1.0000
  H   H682      1.0  0.57835  0.50466  0.17451  1.0000
  C   C571      1.0  0.58076  0.09338  0.02987  1.0000
  H   H683      1.0  0.61720  0.08719  0.06399  1.0000
  C   C572      1.0  0.61962  0.08877  0.01927  1.0000
  C   C573      1.0  0.63838  0.09638  0.99739  1.0000
  H   H684      1.0  0.58210  0.43736  0.14191  1.0000
  C   C574      1.0  0.72533  0.22685  0.18841  1.0000
  H   H685      1.0  0.72418  0.21905  0.11951  1.0000
  H   H686      1.0  0.61826  0.40413  0.12286  1.0000
  H   H687      1.0  0.58219  0.03612  0.01423  1.0000
  C   C575      1.0  0.50919  0.01831  0.19749  1.0000
  H   H688      1.0  0.60891  0.49134  0.15073  1.0000
  H   H689      1.0  0.66686  0.42994  0.12753  1.0000
  H   H690      1.0  0.74884  0.02830  0.38927  1.0000
  H   H691      1.0  0.52068  0.45188  0.36493  1.0000
  H   H692      1.0  0.58305  0.41473  0.05892  1.0000
  C   C576      1.0  0.67561  0.11080  0.02922  1.0000
  H   H693      1.0  0.53951  0.45654  0.45576  1.0000
  Fe  Fe81      1.0  0.51138  0.03276  0.12227  1.0000
  H   H694      1.0  0.72177  0.20632  0.19357  1.0000
  C   C577      1.0  0.72993  0.21881  0.14119  1.0000
  H   H695      1.0  0.74745  0.24069  0.19076  1.0000
  H   H696      1.0  0.66525  0.10623  0.07194  1.0000
  H   H697      1.0  0.52135  0.03705  0.18669  1.0000
  H   H698      1.0  0.67999  0.11304  0.98553  1.0000
  H   H699      1.0  0.75218  0.23187  0.14244  1.0000
  H   H700      1.0  0.64969  0.49955  0.17667  1.0000
  H   H701      1.0  0.66870  0.49890  0.09075  1.0000
  H   H702      1.0  0.51662  0.04024  0.43940  1.0000
  C   C578      1.0  0.74613  0.01455  0.37284  1.0000
  C   C579      1.0  0.72935  0.25420  0.65922  1.0000
  S   S164      1.0  0.53847  0.08446  0.63787  1.0000
  H   H703      1.0  0.58485  0.04602  0.64011  1.0000
  S   S165      1.0  0.54132  0.08615  0.56964  1.0000
  N   N40       1.0  0.59374  0.05540  0.68300  1.0000
  Fe  Fe82      1.0  0.56429  0.08094  0.60487  1.0000
  S   S166      1.0  0.60966  0.09550  0.60485  1.0000
  H   H704      1.0  0.61429  0.41181  0.61971  1.0000
  S   S167      1.0  0.53973  0.03550  0.60253  1.0000
  H   H705      1.0  0.66239  0.49881  0.61054  1.0000
  S   S168      1.0  0.52923  0.44943  0.63832  1.0000
  Fe  Fe83      1.0  0.52432  0.47560  0.56438  1.0000
  S   S169      1.0  0.54329  0.45006  0.57340  1.0000
  C   C580      1.0  0.75518  0.25473  0.69801  1.0000
  C   C581      1.0  0.53802  0.36147  0.64974  1.0000
  Fe  Fe84      1.0  0.56328  0.47653  0.60995  1.0000
  S   S170      1.0  0.71708  0.17787  0.66979  1.0000
  S   S171      1.0  0.53042  0.49366  0.52075  1.0000
  H   H706      1.0  0.62854  0.07357  0.65649  1.0000
  C   C582      1.0  0.63920  0.11887  0.62311  1.0000
  C   C583      1.0  0.63907  0.13650  0.64288  1.0000
  C   C584      1.0  0.66301  0.15424  0.65700  1.0000
  C   C585      1.0  0.68740  0.15463  0.65165  1.0000
  C   C586      1.0  0.68746  0.13689  0.63204  1.0000
  C   C587      1.0  0.66355  0.11921  0.61788  1.0000
  H   H707      1.0  0.62065  0.13675  0.64704  1.0000
  H   H708      1.0  0.66269  0.16790  0.67207  1.0000
  H   H709      1.0  0.70598  0.13691  0.62760  1.0000
  H   H710      1.0  0.66399  0.10572  0.60264  1.0000
  H   H711      1.0  0.53331  0.30186  0.66821  1.0000
  C   C588      1.0  0.59241  0.04806  0.76051  1.0000
  C   C589      1.0  0.54250  0.32293  0.66236  1.0000
  C   C590      1.0  0.62279  0.06568  0.67777  1.0000
  H   H712      1.0  0.60392  0.37665  0.65043  1.0000
  H   H713      1.0  0.71907  0.26319  0.67088  1.0000
  H   H714      1.0  0.63609  0.08273  0.69140  1.0000
  H   H715      1.0  0.60169  0.09515  0.69511  1.0000
  H   H716      1.0  0.52040  0.04716  0.48975  1.0000
  H   H717      1.0  0.62799  0.04947  0.68058  1.0000
  C   C591      1.0  0.57036  0.33858  0.65973  1.0000
  H   H718      1.0  0.52227  0.04886  0.70462  1.0000
  C   C592      1.0  0.51498  0.02842  0.74362  1.0000
  H   H719      1.0  0.58009  0.44301  0.65410  1.0000
  Fe  Fe85      1.0  0.51353  0.08628  0.60265  1.0000
  H   H720      1.0  0.56720  0.07167  0.68677  1.0000
  H   H721      1.0  0.61782  0.42180  0.65544  1.0000
  H   H722      1.0  0.61557  0.07950  0.73221  1.0000
  H   H723      1.0  0.56930  0.39580  0.59604  1.0000
  H   H724      1.0  0.59193  0.08687  0.66031  1.0000
  C   C593      1.0  0.58843  0.07825  0.68132  1.0000
  H   H725      1.0  0.58281  0.32953  0.66361  1.0000
  H   H726      1.0  0.54461  0.40113  0.61294  1.0000
  H   H727      1.0  0.74716  0.26460  0.71169  1.0000
  C   C594      1.0  0.57183  0.02157  0.76429  1.0000
  H   H728      1.0  0.52781  0.04667  0.75491  1.0000
  H   H729      1.0  0.56559  0.01352  0.78479  1.0000
  Fe  Fe86      1.0  0.50823  0.42466  0.60114  1.0000
  Fe  Fe87      1.0  0.51305  0.03939  0.63343  1.0000
  H   H730      1.0  0.61577  0.44258  0.62945  1.0000
  H   H731      1.0  0.58177  0.50379  0.53857  1.0000
  N   N41       1.0  0.57796  0.40665  0.63855  1.0000
  C   C595      1.0  0.56652  0.40824  0.61177  1.0000
  C   C596      1.0  0.57116  0.42121  0.65931  1.0000
  C   C597      1.0  0.60776  0.42114  0.63571  1.0000
  C   C598      1.0  0.56630  0.37803  0.64679  1.0000
  H   H732      1.0  0.57875  0.41987  0.67992  1.0000
  C   C599      1.0  0.58225  0.36576  0.65209  1.0000
  S   S172      1.0  0.60740  0.48656  0.61344  1.0000
  H   H733      1.0  0.54908  0.41303  0.66110  1.0000
  H   H734      1.0  0.74165  0.23244  0.69967  1.0000
  C   C600      1.0  0.58641  0.04316  0.71062  1.0000
  C   C601      1.0  0.57836  0.03631  0.66062  1.0000
  H   H735      1.0  0.57611  0.42932  0.60396  1.0000
  C   C602      1.0  0.50945  0.49657  0.49518  1.0000
  C   C603      1.0  0.52637  0.33438  0.65741  1.0000
  Fe  Fe88      1.0  0.51529  0.04088  0.56961  1.0000
  N   N42       1.0  0.75726  0.26429  0.66934  1.0000
  C   C604      1.0  0.51448  0.49747  0.70136  1.0000
  Fe  Fe89      1.0  0.51081  0.47468  0.62535  1.0000
  H   H736      1.0  0.72898  0.25839  0.63702  1.0000
  H   H737      1.0  0.71683  0.23182  0.66143  1.0000
  C   C605      1.0  0.59972  0.05874  0.73411  1.0000
  H   H738      1.0  0.60244  0.06047  0.77820  1.0000
  S   S173      1.0  0.54634  0.50362  0.59961  1.0000
  H   H739      1.0  0.52465  0.36939  0.64600  1.0000
  H   H740      1.0  0.52937  0.49488  0.69028  1.0000
  H   H741      1.0  0.74707  0.30308  0.64465  1.0000
  H   H742      1.0  0.75191  0.04759  0.86416  1.0000
  H   H743      1.0  0.55636  0.02903  0.66219  1.0000
  C   C606      1.0  0.51208  0.02970  0.71510  1.0000
  C   C607      1.0  0.56557  0.01612  0.71522  1.0000
  H   H744      1.0  0.58156  0.01863  0.66053  1.0000
  H   H745      1.0  0.56036  0.02549  0.47791  1.0000
  C   C608      1.0  0.50768  0.02721  0.48152  1.0000
  H   H746      1.0  0.75096  0.01484  0.95801  1.0000
  C   C609      1.0  0.75253  0.00798  0.93777  1.0000
  C   C610      1.0  0.51813  0.50404  0.72939  1.0000
  H   H747      1.0  0.58756  0.06315  0.97332  1.0000
  H   H748      1.0  0.75728  0.22942  0.65272  1.0000
  C   C611      1.0  0.55866  0.00559  0.74171  1.0000
  H   H749      1.0  0.63230  0.09420  0.97621  1.0000
  H   H750      1.0  0.59227  0.09691  0.97658  1.0000
  Fe  Fe90      1.0  0.61492  0.81321  0.29592  1.0000
  S   S174      1.0  0.57105  0.78621  0.30633  1.0000
  S   S175      1.0  0.65087  0.82867  0.32508  1.0000
  Fe  Fe91      1.0  0.60480  0.81250  0.23344  1.0000
  S   S176      1.0  0.56028  0.78504  0.24009  1.0000
  S   S177      1.0  0.62057  0.83138  0.19057  1.0000
  Fe  Fe92      1.0  0.56362  0.81164  0.27575  1.0000
  S   S178      1.0  0.52941  0.82164  0.27811  1.0000
  Fe  Fe93      1.0  0.57096  0.76179  0.27016  1.0000
  S   S179      1.0  0.55185  0.71578  0.26669  1.0000
  S   S180      1.0  0.60761  0.84040  0.26776  1.0000
  S   S181      1.0  0.61533  0.78748  0.26119  1.0000
  C   C612      1.0  0.73203  0.91140  0.42114  1.0000
  S   S182      1.0  0.70096  0.81818  0.00902  1.0000
  H   H751      1.0  0.56220  0.98166  0.39929  1.0000
  S   S183      1.0  0.69205  0.87046  0.01433  1.0000
  Fe  Fe94      1.0  0.70278  0.84611  0.04272  1.0000
  S   S184      1.0  0.68535  0.82643  0.08482  1.0000
  H   H752      1.0  0.63666  0.86163  0.14025  1.0000
  S   S185      1.0  0.65133  0.82480  0.45574  1.0000
  H   H753      1.0  0.53352  0.98122  0.24314  1.0000
  C   C613      1.0  0.53408  0.96299  0.44807  1.0000
  N   N43       1.0  0.70956  0.91739  0.42151  1.0000
  C   C614      1.0  0.63327  0.56848  0.16745  1.0000
  S   S186      1.0  0.70617  0.53564  0.16898  1.0000
  C   C615      1.0  0.57456  0.55610  0.20460  1.0000
  C   C616      1.0  0.65048  0.88449  0.37124  1.0000
  C   C617      1.0  0.58263  0.79329  0.11571  1.0000
  C   C618      1.0  0.67768  0.53096  0.14984  1.0000
  C   C619      1.0  0.68013  0.54593  0.12625  1.0000
  H   H754      1.0  0.62781  0.57198  0.14730  1.0000
  C   C620      1.0  0.65109  0.55932  0.21750  1.0000
  H   H755      1.0  0.57035  0.97417  0.28244  1.0000
  H   H756      1.0  0.62871  0.87197  0.37157  1.0000
  H   H757      1.0  0.55404  0.89827  0.34118  1.0000
  C   C621      1.0  0.58362  0.92236  0.23861  1.0000
  C   C622      1.0  0.53937  0.68884  0.29081  1.0000
  H   H758      1.0  0.67504  0.77586  0.35151  1.0000
  C   C623      1.0  0.52757  0.67071  0.33705  1.0000
  H   H759      1.0  0.60503  0.93078  0.23525  1.0000
  C   C624      1.0  0.57764  0.54942  0.15667  1.0000
  C   C625      1.0  0.53710  0.69268  0.31872  1.0000
  C   C626      1.0  0.57015  0.51430  0.18830  1.0000
  H   H760      1.0  0.57200  0.80123  0.12732  1.0000
  H   H761      1.0  0.58740  0.96045  0.24777  1.0000
  H   H762      1.0  0.54225  0.71247  0.32611  1.0000
  C   C627      1.0  0.52426  0.84556  0.29660  1.0000
  C   C628      1.0  0.54386  0.86491  0.31385  1.0000
  C   C629      1.0  0.54010  0.56243  0.99949  1.0000
  C   C630      1.0  0.53880  0.88360  0.32773  1.0000
  H   H763      1.0  0.61011  0.77435  0.33590  1.0000
  S   S187      1.0  0.60279  0.51545  0.09971  1.0000
  H   H764      1.0  0.56285  0.86539  0.31654  1.0000
  H   H765      1.0  0.70218  0.91013  0.32615  1.0000
  C   C631      1.0  0.54209  0.93216  0.42080  1.0000
  C   C632      1.0  0.65032  0.82696  0.36140  1.0000
  C   C633      1.0  0.62640  0.81676  0.37636  1.0000
  C   C634      1.0  0.62705  0.81625  0.40521  1.0000
  C   C635      1.0  0.65154  0.82585  0.41940  1.0000
  C   C636      1.0  0.67542  0.83596  0.40443  1.0000
  C   C637      1.0  0.67480  0.83659  0.37561  1.0000
  H   H766      1.0  0.60743  0.80952  0.36577  1.0000
  H   H767      1.0  0.60846  0.80834  0.41661  1.0000
  H   H768      1.0  0.69426  0.84272  0.41505  1.0000
  H   H769      1.0  0.69339  0.84444  0.36423  1.0000
  C   C638      1.0  0.63994  0.83056  0.16207  1.0000
  C   C639      1.0  0.65037  0.81300  0.16082  1.0000
  C   C640      1.0  0.66453  0.81244  0.13730  1.0000
  C   C641      1.0  0.66869  0.82946  0.11465  1.0000
  C   C642      1.0  0.65876  0.84742  0.11615  1.0000
  C   C643      1.0  0.64443  0.84783  0.13957  1.0000
  H   H770      1.0  0.64723  0.79959  0.17782  1.0000
  H   H771      1.0  0.67211  0.79850  0.13657  1.0000
  H   H772      1.0  0.66199  0.86097  0.09930  1.0000
  C   C644      1.0  0.54535  0.92858  0.25066  1.0000
  C   C645      1.0  0.61757  0.74466  0.39009  1.0000
  C   C646      1.0  0.67332  0.77713  0.39460  1.0000
  C   C647      1.0  0.62957  0.75360  0.41576  1.0000
  C   C648      1.0  0.65738  0.76976  0.41801  1.0000
  H   H773      1.0  0.59592  0.73216  0.38946  1.0000
  H   H774      1.0  0.59021  0.74595  0.31416  1.0000
  H   H775      1.0  0.57650  0.55068  0.22601  1.0000
  H   H776      1.0  0.74261  0.91572  0.44124  1.0000
  H   H777      1.0  0.69052  0.57848  0.19922  1.0000
  C   C649      1.0  0.70658  0.91483  0.37005  1.0000
  H   H778      1.0  0.65912  0.55250  0.09298  1.0000
  H   H779      1.0  0.61167  0.75466  0.12476  1.0000
  H   H780      1.0  0.74792  0.92379  0.40608  1.0000
  H   H781      1.0  0.53273  0.65934  0.25986  1.0000
  H   H782      1.0  0.55274  0.54904  0.20142  1.0000
  H   H783      1.0  0.54009  0.97348  0.29246  1.0000
  H   H784      1.0  0.54310  0.55388  0.01814  1.0000
  C   C650      1.0  0.51952  0.64449  0.32767  1.0000
  C   C651      1.0  0.54833  0.96065  0.28485  1.0000
  C   C652      1.0  0.51424  0.88339  0.32438  1.0000
  H   H785      1.0  0.65316  0.88592  0.41430  1.0000
  H   H786      1.0  0.65810  0.55539  0.23668  1.0000
  H   H787      1.0  0.63390  0.79682  0.00987  1.0000
  C   C653      1.0  0.62376  0.55065  0.21364  1.0000
  H   H788      1.0  0.74944  0.63272  0.08011  1.0000
  H   H789      1.0  0.67495  0.58730  0.15531  1.0000
  H   H790      1.0  0.53625  0.95707  0.37790  1.0000
  C   C654      1.0  0.52128  0.64052  0.29969  1.0000
  H   H791      1.0  0.65260  0.88333  0.32739  1.0000
  C   C655      1.0  0.63105  0.52132  0.12001  1.0000
  H   H792      1.0  0.53312  0.91552  0.43604  1.0000
  Fe  Fe95      1.0  0.73643  0.89655  0.00563  1.0000
  C   C656      1.0  0.61392  0.55466  0.18835  1.0000
  Fe  Fe96      1.0  0.75031  0.56943  0.16775  1.0000
  H   H793      1.0  0.59221  0.79633  0.00559  1.0000
  H   H794      1.0  0.53015  0.98062  0.39584  1.0000
  H   H795      1.0  0.61714  0.76720  0.03074  1.0000
  C   C657      1.0  0.66945  0.57254  0.19652  1.0000
  C   C658      1.0  0.63315  0.75210  0.36572  1.0000
  C   C659      1.0  0.66152  0.76868  0.36876  1.0000
  H   H796      1.0  0.73289  0.95478  0.44322  1.0000
  H   H797      1.0  0.57415  0.76887  0.02918  1.0000
  H   H798      1.0  0.64764  0.79645  0.04251  1.0000
  H   H799      1.0  0.62455  0.76744  0.07758  1.0000
  C   C660      1.0  0.60009  0.75202  0.33461  1.0000
  H   H800      1.0  0.65376  0.74598  0.31628  1.0000
  H   H801      1.0  0.61934  0.70494  0.34169  1.0000
  C   C661      1.0  0.62831  0.78962  0.03140  1.0000
  C   C662      1.0  0.61220  0.77454  0.08699  1.0000
  C   C663      1.0  0.60492  0.76697  0.11427  1.0000
  H   H802      1.0  0.58317  0.81396  0.07937  1.0000
  C   C664      1.0  0.53536  0.58406  0.00072  1.0000
  C   C665      1.0  0.58735  0.79114  0.02765  1.0000
  N   N44       1.0  0.58467  0.54396  0.18435  1.0000
  C   C666      1.0  0.54005  0.96810  0.39766  1.0000
  H   H803      1.0  0.61719  0.84021  0.05073  1.0000
  H   H804      1.0  0.69374  0.95988  0.34277  1.0000
  C   C667      1.0  0.63879  0.75297  0.31525  1.0000
  H   H805      1.0  0.64964  0.77547  0.31431  1.0000
  N   N45       1.0  0.61209  0.80036  0.04432  1.0000
  C   C668      1.0  0.60466  0.79172  0.07314  1.0000
  C   C669      1.0  0.59035  0.77647  0.12864  1.0000
  H   H806      1.0  0.57536  0.80056  0.03422  1.0000
  H   H807      1.0  0.58585  0.77159  0.15016  1.0000
  H   H808      1.0  0.70599  0.91103  0.46530  1.0000
  C   C670      1.0  0.66494  0.89266  0.39578  1.0000
  H   H809      1.0  0.69989  0.56103  0.11927  1.0000
  N   N46       1.0  0.61984  0.74275  0.33875  1.0000
  C   C671      1.0  0.60537  0.71284  0.33773  1.0000
  H   H810      1.0  0.64695  0.83782  0.05527  1.0000
  C   C672      1.0  0.62819  0.83020  0.04290  1.0000
  C   C673      1.0  0.58943  0.80067  0.08833  1.0000
  H   H811      1.0  0.63413  0.83736  0.02147  1.0000
  H   H812      1.0  0.73486  0.95804  0.40674  1.0000
  H   H813      1.0  0.62804  0.74583  0.29531  1.0000
  C   C674      1.0  0.57329  0.93914  0.24582  1.0000
  C   C675      1.0  0.53126  0.66260  0.28144  1.0000
  H   H814      1.0  0.70332  0.99256  0.38013  1.0000
  H   H815      1.0  0.58889  0.70356  0.35307  1.0000
  H   H816      1.0  0.52592  0.67394  0.35861  1.0000
  C   C676      1.0  0.54103  0.96725  0.23743  1.0000
  C   C677      1.0  0.54709  0.99153  0.45071  1.0000
  H   H817      1.0  0.59568  0.70514  0.31740  1.0000
  H   H818      1.0  0.72452  0.88980  0.41636  1.0000
  H   H819      1.0  0.52648  0.61088  0.97929  1.0000
  C   C678      1.0  0.71973  0.99398  0.36783  1.0000
  C   C679      1.0  0.69340  0.90456  0.44648  1.0000
  H   H820      1.0  0.73095  0.96333  0.31419  1.0000
  H   H821      1.0  0.58371  0.74370  0.35002  1.0000
  C   C680      1.0  0.75327  0.64794  0.06473  1.0000
  H   H822      1.0  0.61027  0.54025  0.23043  1.0000
  C   C681      1.0  0.72105  0.94694  0.42395  1.0000
  C   C682      1.0  0.69359  0.90798  0.39593  1.0000
  H   H823      1.0  0.53953  0.92227  0.40047  1.0000
  H   H824      1.0  0.74440  0.72216  0.01611  1.0000
  C   C683      1.0  0.56647  0.89468  0.23587  1.0000
  H   H825      1.0  0.51552  0.52490  0.43158  1.0000
  H   H826      1.0  0.69493  0.79012  0.39650  1.0000
  C   C684      1.0  0.65694  0.54104  0.11141  1.0000
  H   H827      1.0  0.51513  0.62051  0.29212  1.0000
  H   H828      1.0  0.51484  0.92588  0.47223  1.0000
  S   S188      1.0  0.73088  0.86139  0.46773  1.0000
  H   H829      1.0  0.66654  0.77714  0.43791  1.0000
  H   H830      1.0  0.55553  0.54123  0.15439  1.0000
  H   H831      1.0  0.70488  0.95236  0.42416  1.0000
  C   C685      1.0  0.62857  0.50657  0.14380  1.0000
  C   C686      1.0  0.66061  0.57742  0.17172  1.0000
  N   N47       1.0  0.53508  0.94671  0.25902  1.0000
  C   C687      1.0  0.65177  0.51126  0.15847  1.0000
  C   C688      1.0  0.66391  0.89092  0.34627  1.0000
  C   C689      1.0  0.69190  0.90593  0.34567  1.0000
  H   H832      1.0  0.67757  0.91011  0.44983  1.0000
  H   H833      1.0  0.74447  0.67205  0.09168  1.0000
  H   H834      1.0  0.61726  0.74842  0.43404  1.0000
  N   N48       1.0  0.52928  0.94924  0.42128  1.0000
  H   H835      1.0  0.68373  0.88217  0.44554  1.0000
  H   H836      1.0  0.56405  0.94436  0.42512  1.0000
  H   H837      1.0  0.54516  0.94574  0.30125  1.0000
  H   H838      1.0  0.56293  0.98012  0.23356  1.0000
  H   H839      1.0  0.58738  0.57142  0.15242  1.0000
  H   H840      1.0  0.54308  0.52115  0.46883  1.0000
  C   C690      1.0  0.52146  0.51128  0.47108  1.0000
  H   H841      1.0  0.73804  0.68654  0.98023  1.0000
  C   C691      1.0  0.53895  0.88374  0.23998  1.0000
  C   C692      1.0  0.75066  0.67024  0.07122  1.0000
  H   H842      1.0  0.58349  0.53971  0.14039  1.0000
  H   H843      1.0  0.72821  0.92682  0.36845  1.0000
  S   S189      1.0  0.75560  0.94246  0.00967  1.0000
  H   H844      1.0  0.58570  0.57850  0.20299  1.0000
  H   H845      1.0  0.75461  0.70738  0.05833  1.0000
  S   S190      1.0  0.74711  0.87390  0.03633  1.0000
  H   H846      1.0  0.52577  0.86209  0.23811  1.0000
  H   H847      1.0  0.53126  0.95758  0.21768  1.0000
  H   H848      1.0  0.57446  0.88155  0.23074  1.0000
  C   C693      1.0  0.52839  0.90027  0.24734  1.0000
  C   C694      1.0  0.71429  0.97560  0.34677  1.0000
  Fe  Fe97      1.0  0.69269  0.84424  0.98022  1.0000
  S   S191      1.0  0.53240  0.50858  0.10190  1.0000
  Fe  Fe98      1.0  0.74476  0.84755  0.00089  1.0000
  H   H849      1.0  0.57157  0.50834  0.20962  1.0000
  C   C695      1.0  0.53044  0.59443  0.97676  1.0000
  H   H850      1.0  0.53499  0.59245  0.02048  1.0000
  C   C696      1.0  0.52520  0.94766  0.47262  1.0000
  S   S192      1.0  0.50884  0.90709  0.34295  1.0000
  C   C697      1.0  0.73527  0.97755  0.33072  1.0000
  C   C698      1.0  0.55099  0.00374  0.47637  1.0000
  C   C699      1.0  0.75669  0.69050  0.05178  1.0000
  H   H851      1.0  0.54826  0.50525  0.18385  1.0000
  H   H852      1.0  0.55379  0.00492  0.43327  1.0000
  Fe  Fe99      1.0  0.61271  0.80138  0.79539  1.0000
  S   S193      1.0  0.57005  0.78726  0.80841  1.0000
  S   S194      1.0  0.65029  0.81709  0.82226  1.0000
  Fe  Fe100     1.0  0.59962  0.79722  0.73316  1.0000
  S   S195      1.0  0.55603  0.78356  0.74239  1.0000
  S   S196      1.0  0.61234  0.79596  0.68835  1.0000
  Fe  Fe101     1.0  0.57053  0.81534  0.77541  1.0000
  S   S197      1.0  0.56332  0.85113  0.78191  1.0000
  Fe  Fe102     1.0  0.55865  0.75638  0.77467  1.0000
  S   S198      1.0  0.52553  0.71190  0.77376  1.0000
  S   S199      1.0  0.61401  0.83083  0.76394  1.0000
  S   S200      1.0  0.60140  0.76859  0.76394  1.0000
  Fe  Fe103     1.0  0.73796  0.83860  0.50185  1.0000
  S   S201      1.0  0.69453  0.81658  0.51604  1.0000
  H   H853      1.0  0.52230  0.90646  0.80523  1.0000
  S   S202      1.0  0.69590  0.87369  0.51326  1.0000
  Fe  Fe104     1.0  0.70552  0.85124  0.54507  1.0000
  S   S203      1.0  0.69825  0.85574  0.59111  1.0000
  H   H854      1.0  0.61396  0.78200  0.63200  1.0000
  S   S204      1.0  0.65515  0.82527  0.95297  1.0000
  C   C700      1.0  0.53058  0.59506  0.78109  1.0000
  H   H855      1.0  0.53591  0.50645  0.73975  1.0000
  H   H856      1.0  0.74239  0.59057  0.72497  1.0000
  H   H857      1.0  0.54325  0.53397  0.97349  1.0000
  S   S205      1.0  0.71573  0.57818  0.66987  1.0000
  C   C701      1.0  0.64857  0.56257  0.57514  1.0000
  C   C702      1.0  0.75116  0.63612  0.77439  1.0000
  C   C703      1.0  0.66115  0.55144  0.65912  1.0000
  C   C704      1.0  0.68587  0.55250  0.65394  1.0000
  C   C705      1.0  0.68608  0.53340  0.63624  1.0000
  H   H858      1.0  0.56311  0.60929  0.90908  1.0000
  H   H859      1.0  0.74088  0.58584  0.76110  1.0000
  H   H860      1.0  0.70487  0.53393  0.63196  1.0000
  C   C706      1.0  0.74947  0.60143  0.74481  1.0000
  C   C707      1.0  0.72731  0.93059  0.61240  1.0000
  C   C708      1.0  0.71175  0.60913  0.74607  1.0000
  C   C709      1.0  0.53480  0.56105  0.95028  1.0000
  C   C710      1.0  0.55176  0.67100  0.74530  1.0000
  H   H861      1.0  0.58529  0.53436  0.50460  1.0000
  H   H862      1.0  0.63682  0.88411  0.82366  1.0000
  C   C711      1.0  0.52892  0.96009  0.49812  1.0000
  C   C712      1.0  0.53252  0.68645  0.81943  1.0000
  H   H863      1.0  0.52095  0.60837  0.69818  1.0000
  H   H864      1.0  0.60653  0.88516  0.81994  1.0000
  C   C713      1.0  0.55674  0.88958  0.90182  1.0000
  H   H865      1.0  0.54821  0.70619  0.82583  1.0000
  C   C714      1.0  0.53598  0.85527  0.79326  1.0000
  H   H866      1.0  0.52134  0.94801  0.51654  1.0000
  H   H867      1.0  0.74468  0.62980  0.70408  1.0000
  H   H868      1.0  0.73761  0.95042  0.90422  1.0000
  C   C715      1.0  0.59530  0.55498  0.55480  1.0000
  H   H869      1.0  0.71086  0.93480  0.61762  1.0000
  C   C716      1.0  0.53329  0.62216  0.74014  1.0000
  C   C717      1.0  0.74518  0.97175  0.90749  1.0000
  H   H870      1.0  0.61220  0.56831  0.50360  1.0000
  C   C718      1.0  0.65117  0.81872  0.85865  1.0000
  C   C719      1.0  0.62768  0.80684  0.87443  1.0000
  C   C720      1.0  0.62929  0.80904  0.90322  1.0000
  C   C721      1.0  0.65435  0.82294  0.91663  1.0000
  C   C722      1.0  0.67784  0.83477  0.90084  1.0000
  C   C723      1.0  0.67622  0.83264  0.87204  1.0000
  H   H871      1.0  0.60827  0.79567  0.86452  1.0000
  H   H872      1.0  0.61099  0.79968  0.91521  1.0000
  H   H873      1.0  0.69726  0.84546  0.91083  1.0000
  H   H874      1.0  0.69454  0.84181  0.86009  1.0000
  C   C724      1.0  0.63596  0.81364  0.66132  1.0000
  C   C725      1.0  0.65916  0.83877  0.66515  1.0000
  C   C726      1.0  0.67781  0.85118  0.64352  1.0000
  C   C727      1.0  0.67355  0.83897  0.61752  1.0000
  C   C728      1.0  0.65024  0.81397  0.61363  1.0000
  C   C729      1.0  0.63174  0.80142  0.63537  1.0000
  H   H875      1.0  0.66289  0.84852  0.68486  1.0000
  H   H876      1.0  0.69577  0.87033  0.64708  1.0000
  H   H877      1.0  0.64650  0.80416  0.59392  1.0000
  H   H878      1.0  0.53989  0.57626  0.89598  1.0000
  N   N49       1.0  0.68636  0.80990  0.74429  1.0000
  C   C730      1.0  0.70681  0.82294  0.76627  1.0000
  C   C731      1.0  0.67010  0.82352  0.74334  1.0000
  C   C732      1.0  0.66864  0.78130  0.75235  1.0000
  C   C733      1.0  0.69801  0.81139  0.71687  1.0000
  C   C734      1.0  0.60249  0.51745  0.54633  1.0000
  H   H879      1.0  0.61601  0.51067  0.53747  1.0000
  H   H880      1.0  0.69717  0.82094  0.78665  1.0000
  H   H881      1.0  0.71970  0.81351  0.76828  1.0000
  H   H882      1.0  0.66184  0.82388  0.76383  1.0000
  H   H883      1.0  0.65257  0.81325  0.72930  1.0000
  H   H884      1.0  0.67979  0.76997  0.75199  1.0000
  H   H885      1.0  0.66033  0.77956  0.77337  1.0000
  H   H886      1.0  0.65088  0.77064  0.73864  1.0000
  H   H887      1.0  0.55229  0.60793  0.78612  1.0000
  H   H888      1.0  0.72658  0.81788  0.64256  1.0000
  N   N50       1.0  0.61193  0.54613  0.53958  1.0000
  H   H889      1.0  0.74331  0.93936  0.62833  1.0000
  Fe  Fe105     1.0  0.68842  0.84097  0.48329  1.0000
  C   C735      1.0  0.64054  0.56297  0.54769  1.0000
  C   C736      1.0  0.54014  0.55119  0.97429  1.0000
  C   C737      1.0  0.66108  0.58011  0.52905  1.0000
  H   H890      1.0  0.73780  0.97915  0.62022  1.0000
  H   H891      1.0  0.54796  0.64547  0.77832  1.0000
  H   H892      1.0  0.70486  0.62400  0.74934  1.0000
  C   C738      1.0  0.51912  0.88616  0.80443  1.0000
  H   H893      1.0  0.61818  0.53107  0.65118  1.0000
  C   C739      1.0  0.75264  0.64077  0.72378  1.0000
  H   H894      1.0  0.74083  0.83643  0.72755  1.0000
  C   C740      1.0  0.75044  0.98726  0.60241  1.0000
  C   C741      1.0  0.54475  0.64582  0.75657  1.0000
  C   C742      1.0  0.72618  0.82611  0.71162  1.0000
  H   H895      1.0  0.70158  0.59274  0.76140  1.0000
  H   H896      1.0  0.55844  0.89842  0.78769  1.0000
  H   H897      1.0  0.71595  0.60630  0.57101  1.0000
  C   C743      1.0  0.57880  0.89119  0.91572  1.0000
  C   C744      1.0  0.52587  0.66356  0.83580  1.0000
  H   H898      1.0  0.57358  0.54288  0.54904  1.0000
  C   C745      1.0  0.63717  0.51238  0.62935  1.0000
  H   H899      1.0  0.60197  0.57656  0.55061  1.0000
  N   N51       1.0  0.73851  0.94069  0.58468  1.0000
  S   S206      1.0  0.75447  0.80922  0.49839  1.0000
  H   H900      1.0  0.53332  0.55035  0.93156  1.0000
  N   N52       1.0  0.74154  0.62235  0.74769  1.0000
  H   H901      1.0  0.54394  0.99766  0.51969  1.0000
  S   S207      1.0  0.73650  0.87199  0.96966  1.0000
  H   H902      1.0  0.74396  0.62194  0.84333  1.0000
  C   C746      1.0  0.68794  0.59551  0.53750  1.0000
  H   H903      1.0  0.70411  0.59951  0.72567  1.0000
  N   N53       1.0  0.61118  0.87035  0.85932  1.0000
  C   C747      1.0  0.63423  0.87322  0.87599  1.0000
  C   C748      1.0  0.59596  0.84204  0.84981  1.0000
  C   C749      1.0  0.62239  0.88819  0.83505  1.0000
  C   C750      1.0  0.59285  0.87709  0.87435  1.0000
  H   H904      1.0  0.67758  0.79168  0.65059  1.0000
  H   H905      1.0  0.72750  0.59995  0.79908  1.0000
  C   C751      1.0  0.53006  0.58320  0.95069  1.0000
  H   H906      1.0  0.61848  0.54061  0.49721  1.0000
  H   H907      1.0  0.65921  0.78770  0.69628  1.0000
  H   H908      1.0  0.64754  0.86797  0.86399  1.0000
  H   H909      1.0  0.64707  0.89426  0.88331  1.0000
  H   H910      1.0  0.62728  0.85929  0.89392  1.0000
  N   N54       1.0  0.52292  0.59230  0.92519  1.0000
  H   H911      1.0  0.58661  0.82783  0.86727  1.0000
  H   H912      1.0  0.60923  0.83615  0.83872  1.0000
  C   C752      1.0  0.55238  0.88174  0.87449  1.0000
  C   C753      1.0  0.75087  0.63372  0.82466  1.0000
  H   H913      1.0  0.59633  0.55273  0.57730  1.0000
  C   C754      1.0  0.53628  0.65067  0.70100  1.0000
  H   H914      1.0  0.68227  0.84473  0.73610  1.0000
  H   H915      1.0  0.57953  0.83858  0.83531  1.0000
  H   H916      1.0  0.60151  0.51383  0.56871  1.0000
  H   H917      1.0  0.71975  0.84498  0.76262  1.0000
  H   H918      1.0  0.56581  0.86948  0.83984  1.0000
  H   H919      1.0  0.54290  0.89433  0.91223  1.0000
  H   H920      1.0  0.53798  0.60442  0.88397  1.0000
  H   H921      1.0  0.66069  0.56611  0.67271  1.0000
  C   C755      1.0  0.63697  0.53159  0.64688  1.0000
  H   H922      1.0  0.53658  0.66600  0.85480  1.0000
  H   H923      1.0  0.61318  0.88649  0.91437  1.0000
  H   H924      1.0  0.65700  0.58197  0.50782  1.0000
  C   C756      1.0  0.73629  0.82819  0.68510  1.0000
  C   C757      1.0  0.53959  0.88151  0.79445  1.0000
  H   H925      1.0  0.55206  0.69292  0.70940  1.0000
  H   H926      1.0  0.51927  0.62536  0.90817  1.0000
  C   C758      1.0  0.54186  0.59571  0.90275  1.0000
  H   H927      1.0  0.53510  0.88030  0.86367  1.0000
  C   C759      1.0  0.71580  0.92958  0.56501  1.0000
  S   S208      1.0  0.75355  0.93846  0.49689  1.0000
  C   C760      1.0  0.75654  0.92971  0.57795  1.0000
  C   C761      1.0  0.67545  0.57802  0.58332  1.0000
  C   C762      1.0  0.69120  0.80094  0.66774  1.0000
  H   H928      1.0  0.54319  0.63455  0.93556  1.0000
  C   C763      1.0  0.54728  0.67340  0.71770  1.0000
  C   C764      1.0  0.59666  0.88501  0.90233  1.0000
  H   H929      1.0  0.55377  0.00282  0.69882  1.0000
  H   H930      1.0  0.54222  0.98518  0.74488  1.0000
  H   H931      1.0  0.70336  0.60840  0.52298  1.0000
  H   H932      1.0  0.70419  0.90708  0.56580  1.0000
  C   C765      1.0  0.74210  0.98056  0.93306  1.0000
  C   C766      1.0  0.57012  0.87559  0.86096  1.0000
  C   C767      1.0  0.52948  0.62542  0.71194  1.0000
  H   H933      1.0  0.70157  0.93704  0.56934  1.0000
  C   C768      1.0  0.68088  0.79875  0.69409  1.0000
  C   C769      1.0  0.66188  0.51346  0.62413  1.0000
  H   H934      1.0  0.55997  0.68875  0.75825  1.0000
  H   H935      1.0  0.53565  0.58016  0.71501  1.0000
  H   H936      1.0  0.63410  0.55015  0.59051  1.0000
  C   C770      1.0  0.69511  0.59441  0.56454  1.0000
  N   N55       1.0  0.52554  0.59510  0.75123  1.0000
  H   H937      1.0  0.68111  0.57723  0.60437  1.0000
  C   C771      1.0  0.60698  0.54754  0.50991  1.0000
  H   H938      1.0  0.74729  0.65698  0.72440  1.0000
  H   H939      1.0  0.75177  0.80198  0.95596  1.0000
  H   H940      1.0  0.56304  0.59842  0.73853  1.0000
  H   H941      1.0  0.52458  0.57443  0.78871  1.0000
  C   C772      1.0  0.54178  0.98808  0.49998  1.0000
  S   S209      1.0  0.74943  0.87210  0.53283  1.0000
  H   H942      1.0  0.72286  0.93536  0.54359  1.0000
  C   C773      1.0  0.51845  0.68379  0.79512  1.0000
  Fe  Fe106     1.0  0.73909  0.89317  0.49972  1.0000
  C   C774      1.0  0.74167  0.62134  0.79920  1.0000
  C   C775      1.0  0.52328  0.61838  0.92810  1.0000
  H   H943      1.0  0.63295  0.90981  0.84107  1.0000
  H   H944      1.0  0.53700  0.56462  0.74601  1.0000
  H   H945      1.0  0.73239  0.96622  0.94959  1.0000
  H   H946      1.0  0.51868  0.60201  0.79316  1.0000
  H   H947      1.0  0.71792  0.90824  0.61380  1.0000
  H   H948      1.0  0.58200  0.89719  0.93704  1.0000
  H   H949      1.0  0.53277  0.65263  0.67951  1.0000
  C   C776      1.0  0.54099  0.58422  0.73705  1.0000
  H   H950      1.0  0.74675  0.90762  0.58204  1.0000
  C   C777      1.0  0.51153  0.83367  0.80225  1.0000
  C   C778      1.0  0.71881  0.81579  0.66320  1.0000
  C   C779      1.0  0.75317  0.97054  0.58263  1.0000
  H   H951      1.0  0.50845  0.81340  0.80167  1.0000
  H   H952      1.0  0.89532  0.21323  0.97814  1.0000
  C   C780      1.0  0.96323  0.25201  0.02399  1.0000
  S   S210      1.0  0.82485  0.15527  0.99266  1.0000
  Fe  Fe107     1.0  0.84576  0.13105  0.39613  1.0000
  S   S211      1.0  0.87373  0.11448  0.40227  1.0000
  S   S212      1.0  0.82704  0.12401  0.35265  1.0000
  Fe  Fe108     1.0  0.84776  0.09064  0.43776  1.0000
  S   S213      1.0  0.83776  0.04650  0.43488  1.0000
  Fe  Fe109     1.0  0.89719  0.14806  0.43209  1.0000
  S   S214      1.0  0.94296  0.17045  0.42577  1.0000
  S   S215      1.0  0.81877  0.10585  0.43079  1.0000
  S   S216      1.0  0.87103  0.16660  0.42368  1.0000
  Fe  Fe110     1.0  0.79877  0.22993  0.16609  1.0000
  S   S217      1.0  0.82968  0.21790  0.17617  1.0000
  S   S218      1.0  0.80268  0.27179  0.16210  1.0000
  H   H953      1.0  0.95340  0.12461  0.47035  1.0000
  S   S219      1.0  0.77937  0.15531  0.18143  1.0000
  Fe  Fe111     1.0  0.80173  0.19097  0.20938  1.0000
  S   S220      1.0  0.82097  0.19411  0.25197  1.0000
  Fe  Fe112     1.0  0.80605  0.18271  0.14779  1.0000
  S   S221      1.0  0.82992  0.16786  0.12288  1.0000
  S   S222      1.0  0.77237  0.20558  0.20126  1.0000
  S   S223      1.0  0.77688  0.19657  0.13508  1.0000
  Fe  Fe113     1.0  0.89719  0.47408  0.10774  1.0000
  Fe  Fe114     1.0  0.90804  0.42610  0.10924  1.0000
  S   S224      1.0  0.95151  0.45345  0.09760  1.0000
  S   S225      1.0  0.89880  0.38228  0.11400  1.0000
  Fe  Fe115     1.0  0.95060  0.48215  0.12850  1.0000
  H   H954      1.0  0.83449  0.04296  0.37231  1.0000
  Fe  Fe116     1.0  0.93750  0.47267  0.06617  1.0000
  C   C781      1.0  0.98810  0.22094  0.03043  1.0000
  S   S226      1.0  0.90797  0.45405  0.14178  1.0000
  S   S227      1.0  0.89390  0.44360  0.07618  1.0000
  H   H955      1.0  0.98586  0.25678  0.38687  1.0000
  Fe  Fe117     1.0  0.84600  0.13999  0.45884  1.0000
  C   C782      1.0  0.96022  0.41398  0.21068  1.0000
  C   C783      1.0  0.93681  0.48219  0.41661  1.0000
  H   H956      1.0  0.82059  0.07344  0.38623  1.0000
  C   C784      1.0  0.92895  0.47832  0.35511  1.0000
  N   N56       1.0  0.91877  0.21137  0.01194  1.0000
  C   C785      1.0  0.97914  0.24995  0.43000  1.0000
  C   C786      1.0  0.96181  0.48382  0.20851  1.0000
  S   S228      1.0  0.87346  0.12312  0.46837  1.0000
  H   H957      1.0  0.86800  0.49299  0.04245  1.0000
  C   C787      1.0  0.82988  0.30244  0.14911  1.0000
  C   C788      1.0  0.82796  0.32608  0.14966  1.0000
  C   C789      1.0  0.84879  0.35073  0.13916  1.0000
  C   C790      1.0  0.87181  0.35199  0.12784  1.0000
  C   C791      1.0  0.87385  0.32842  0.12755  1.0000
  C   C792      1.0  0.85307  0.30381  0.13811  1.0000
  H   H958      1.0  0.81015  0.32531  0.15813  1.0000
  H   H959      1.0  0.84689  0.36863  0.13955  1.0000
  H   H960      1.0  0.89152  0.32911  0.11881  1.0000
  H   H961      1.0  0.85487  0.28585  0.13748  1.0000
  C   C793      1.0  0.96942  0.18628  0.45011  1.0000
  H   H962      1.0  0.95930  0.44085  0.36416  1.0000
  H   H963      1.0  0.95543  0.39323  0.27757  1.0000
  H   H964      1.0  0.79293  0.04678  0.40369  1.0000
  C   C794      1.0  0.96240  0.48066  0.23712  1.0000
  C   C795      1.0  0.99514  0.26140  0.40697  1.0000
  C   C796      1.0  0.91809  0.43008  0.43660  1.0000
  C   C797      1.0  0.82472  0.14398  0.32545  1.0000
  C   C798      1.0  0.81006  0.13094  0.30163  1.0000
  C   C799      1.0  0.80819  0.14572  0.27923  1.0000
  C   C800      1.0  0.82115  0.17394  0.28017  1.0000
  C   C801      1.0  0.83569  0.18695  0.30404  1.0000
  C   C802      1.0  0.83743  0.17216  0.32651  1.0000
  H   H965      1.0  0.80005  0.10919  0.30045  1.0000
  H   H966      1.0  0.79677  0.13526  0.26125  1.0000
  H   H967      1.0  0.84579  0.20873  0.30515  1.0000
  H   H968      1.0  0.84876  0.18262  0.34455  1.0000
  C   C803      1.0  0.82619  0.15789  0.02895  1.0000
  C   C804      1.0  0.84014  0.14858  0.04511  1.0000
  C   C805      1.0  0.84116  0.15185  0.07380  1.0000
  C   C806      1.0  0.82797  0.16408  0.08669  1.0000
  C   C807      1.0  0.81398  0.17327  0.07051  1.0000
  C   C808      1.0  0.81322  0.17029  0.04183  1.0000
  H   H969      1.0  0.84992  0.13868  0.03559  1.0000
  H   H970      1.0  0.85193  0.14455  0.08613  1.0000
  H   H971      1.0  0.80381  0.18278  0.08007  1.0000
  H   H972      1.0  0.80241  0.17759  0.02955  1.0000
  S   S229      1.0  0.94710  0.47545  0.01962  1.0000
  C   C809      1.0  0.99627  0.19724  0.44128  1.0000
  C   C810      1.0  0.79920  0.05749  0.38366  1.0000
  C   C811      1.0  0.94955  0.39829  0.23479  1.0000
  H   H973      1.0  0.92538  0.43012  0.35215  1.0000
  H   H974      1.0  0.91073  0.23868  0.03552  1.0000
  C   C812      1.0  0.81400  0.01668  0.45221  1.0000
  H   H975      1.0  0.90675  0.40112  0.16978  1.0000
  H   H976      1.0  0.80718  0.04398  0.31804  1.0000
  C   C813      1.0  0.95852  0.42441  0.16167  1.0000
  C   C814      1.0  0.96943  0.49392  0.99192  1.0000
  S   S230      1.0  0.98629  0.50319  0.15785  1.0000
  C   C815      1.0  0.80649  0.05563  0.33582  1.0000
  C   C816      1.0  0.99270  0.13153  0.45933  1.0000
  H   H977      1.0  0.94633  0.41762  0.14261  1.0000
  H   H978      1.0  0.89634  0.49263  0.05684  1.0000
  H   H979      1.0  0.92577  0.41987  0.39744  1.0000
  C   C817      1.0  0.98631  0.43713  0.21273  1.0000
  H   H980      1.0  0.94281  0.47471  0.19771  1.0000
  C   C818      1.0  0.94748  0.22370  0.01997  1.0000
  H   H981      1.0  0.92518  0.36286  0.19178  1.0000
  H   H982      1.0  0.92754  0.37242  0.15687  1.0000
  C   C819      1.0  0.91862  0.40580  0.18911  1.0000
  H   H983      1.0  0.99800  0.20902  0.03263  1.0000
  C   C820      1.0  0.81339  0.02708  0.36754  1.0000
  C   C821      1.0  0.79521  0.01641  0.47059  1.0000
  C   C822      1.0  0.90532  0.18170  0.00837  1.0000
  H   H984      1.0  0.98650  0.12369  0.43879  1.0000
  H   H985      1.0  0.78790  0.06837  0.37966  1.0000
  C   C823      1.0  0.93649  0.46256  0.39860  1.0000
  C   C824      1.0  0.91658  0.22298  0.98549  1.0000
  S   S231      1.0  0.98680  0.48795  0.28759  1.0000
  N   N57       1.0  0.86114  0.16131  0.20543  1.0000
  C   C825      1.0  0.86948  0.18961  0.19792  1.0000
  C   C826      1.0  0.87441  0.15176  0.18592  1.0000
  C   C827      1.0  0.83161  0.14504  0.20156  1.0000
  C   C828      1.0  0.86794  0.15818  0.23400  1.0000
  C   C829      1.0  0.87908  0.17984  0.25305  1.0000
  C   C830      1.0  0.86245  0.13252  0.24384  1.0000
  C   C831      1.0  0.88445  0.17590  0.28010  1.0000
  C   C832      1.0  0.86774  0.12880  0.27099  1.0000
  C   C833      1.0  0.87866  0.15045  0.28910  1.0000
  H   H986      1.0  0.89156  0.20311  0.20032  1.0000
  H   H987      1.0  0.86438  0.19130  0.17621  1.0000
  H   H988      1.0  0.85886  0.19762  0.21057  1.0000
  H   H989      1.0  0.89661  0.16264  0.18908  1.0000
  H   H990      1.0  0.87045  0.15505  0.16425  1.0000
  H   H991      1.0  0.86695  0.12981  0.18784  1.0000
  H   H992      1.0  0.82094  0.15169  0.21589  1.0000
  H   H993      1.0  0.82565  0.14697  0.18029  1.0000
  H   H994      1.0  0.82370  0.12320  0.20522  1.0000
  H   H995      1.0  0.88290  0.19984  0.24796  1.0000
  H   H996      1.0  0.85337  0.11499  0.23077  1.0000
  H   H997      1.0  0.89208  0.19248  0.29453  1.0000
  H   H998      1.0  0.86282  0.10895  0.27827  1.0000
  H   H999      1.0  0.88189  0.14738  0.31040  1.0000
  S   S232      1.0  0.94006  0.50399  0.09619  1.0000
  H   H1000     1.0  0.98744  0.48768  0.38244  1.0000
  C   C834      1.0  0.99091  0.25528  0.45585  1.0000
  C   C835      1.0  0.99744  0.48119  0.44625  1.0000
  H   H1001     1.0  0.90534  0.39036  0.20421  1.0000
  H   H1002     1.0  0.92981  0.38050  0.23480  1.0000
  C   C836      1.0  0.92670  0.43615  0.40941  1.0000
  C   C837      1.0  0.00302  0.24876  0.03378  1.0000
  H   H1003     1.0  0.95393  0.45405  0.33317  1.0000
  C   C838      1.0  0.99125  0.17246  0.98591  1.0000
  N   N58       1.0  0.94616  0.46993  0.37006  1.0000
  C   C839      1.0  0.90353  0.21682  0.03310  1.0000
  H   H1004     1.0  0.82737  0.07281  0.33880  1.0000
  H   H1005     1.0  0.95722  0.37756  0.17470  1.0000
  S   S233      1.0  0.86311  0.48436  0.10653  1.0000
  H   H1006     1.0  0.91301  0.44532  0.47504  1.0000
  H   H1007     1.0  0.94413  0.50272  0.40998  1.0000
  H   H1008     1.0  0.95075  0.18688  0.02070  1.0000
  H   H1009     1.0  0.90508  0.20880  0.05341  1.0000
  H   H1010     1.0  0.88385  0.17316  0.00217  1.0000
  C   C840      1.0  0.92828  0.47590  0.44377  1.0000
  C   C841      1.0  0.93838  0.37855  0.17684  1.0000
  H   H1011     1.0  0.88737  0.48277  0.02191  1.0000
  H   H1012     1.0  0.90751  0.46192  0.35516  1.0000
  C   C842      1.0  0.96077  0.20845  0.02355  1.0000
  C   C843      1.0  0.98694  0.49284  0.25159  1.0000
  H   H1013     1.0  0.99058  0.15696  0.99919  1.0000
  H   H1014     1.0  0.91116  0.40999  0.44468  1.0000
  H   H1015     1.0  0.90522  0.17133  0.02772  1.0000
  H   H1016     1.0  0.99968  0.42098  0.01660  1.0000
  H   H1017     1.0  0.99595  0.45075  0.19578  1.0000
  C   C844      1.0  0.88880  0.49734  0.03784  1.0000
  H   H1018     1.0  0.91522  0.17619  0.99201  1.0000
  H   H1019     1.0  0.96240  0.44521  0.16568  1.0000
  N   N59       1.0  0.79616  0.03899  0.36099  1.0000
  C   C845      1.0  0.94607  0.44763  0.35437  1.0000
  C   C846      1.0  0.91893  0.44991  0.45374  1.0000
  H   H1020     1.0  0.94375  0.46872  0.24810  1.0000
  H   H1021     1.0  0.79383  0.06471  0.33014  1.0000
  C   C847      1.0  0.96404  0.40537  0.25937  1.0000
  H   H1022     1.0  0.95766  0.23628  0.42777  1.0000
  H   H1023     1.0  0.99472  0.45966  0.00170  1.0000
  C   C848      1.0  0.98197  0.46742  0.46956  1.0000
  N   N60       1.0  0.94440  0.40601  0.18496  1.0000
  H   H1024     1.0  0.82028  0.49677  0.10443  1.0000
  C   C849      1.0  0.97421  0.49276  0.37010  1.0000
  H   H1025     1.0  0.98257  0.49801  0.34899  1.0000
  H   H1026     1.0  0.92979  0.49650  0.36426  1.0000
  C   C850      1.0  0.98579  0.49909  0.19400  1.0000
  C   C851      1.0  0.76800  0.01725  0.35668  1.0000
  H   H1027     1.0  0.81460  0.01498  0.35046  1.0000
  H   H1028     1.0  0.97793  0.42527  0.15695  1.0000
  H   H1029     1.0  0.80581  0.01388  0.38600  1.0000
  H   H1030     1.0  0.92954  0.49141  0.45744  1.0000
  H   H1031     1.0  0.88166  0.20711  0.02794  1.0000
  H   H1032     1.0  0.93541  0.48345  0.33333  1.0000
  H   H1033     1.0  0.92227  0.42577  0.19638  1.0000
  H   H1034     1.0  0.80770  0.03976  0.99059  1.0000
  C   C852      1.0  0.00069  0.44386  0.23735  1.0000
  C   C853      1.0  0.99059  0.26428  0.03071  1.0000
  C   C854      1.0  0.85149  0.00732  0.00802  1.0000
  C   C855      1.0  0.98954  0.42815  0.26065  1.0000
  H   H1035     1.0  0.84885  0.02221  0.01920  1.0000
  H   H1036     1.0  0.00027  0.19554  0.41998  1.0000
  C   C856      1.0  0.80227  0.01990  0.98306  1.0000
  H   H1037     1.0  0.95453  0.26489  0.02163  1.0000
  H   H1038     1.0  0.97848  0.24575  0.47366  1.0000
  H   H1039     1.0  0.92379  0.24491  0.98690  1.0000
  H   H1040     1.0  0.97334  0.44578  0.47100  1.0000
  H   H1041     1.0  0.00065  0.43391  0.27977  1.0000
  H   H1042     1.0  0.00061  0.47009  0.43019  1.0000
  C   C857      1.0  0.86684  0.01491  0.98422  1.0000
  H   H1043     1.0  0.00233  0.28595  0.03334  1.0000
  H   H1044     1.0  0.79497  0.03488  0.47475  1.0000
  H   H1045     1.0  0.87613  0.03561  0.97705  1.0000
  H   H1046     1.0  0.90640  0.24802  0.78470  1.0000
  H   H1047     1.0  0.77952  0.07180  0.88469  1.0000
  S   S234      1.0  0.82747  0.15708  0.48857  1.0000
  Fe  Fe118     1.0  0.84525  0.12946  0.90073  1.0000
  S   S235      1.0  0.87502  0.11523  0.90786  1.0000
  S   S236      1.0  0.83131  0.12444  0.85560  1.0000
  Fe  Fe119     1.0  0.84809  0.09002  0.94241  1.0000
  S   S237      1.0  0.83753  0.04580  0.93979  1.0000
  Fe  Fe120     1.0  0.89564  0.14857  0.93859  1.0000
  S   S238      1.0  0.93938  0.18284  0.93602  1.0000
  S   S239      1.0  0.81751  0.10302  0.93425  1.0000
  S   S240      1.0  0.86748  0.16445  0.92942  1.0000
  Fe  Fe121     1.0  0.81829  0.23190  0.66413  1.0000
  S   S241      1.0  0.83548  0.20542  0.67624  1.0000
  S   S242      1.0  0.84956  0.27681  0.65839  1.0000
  H   H1048     1.0  0.82154  0.49473  0.65949  1.0000
  C   C858      1.0  0.89360  0.17744  0.80706  1.0000
  Fe  Fe122     1.0  0.80392  0.18734  0.70916  1.0000
  S   S243      1.0  0.81582  0.18872  0.75484  1.0000
  Fe  Fe123     1.0  0.80463  0.17501  0.64737  1.0000
  S   S244      1.0  0.81944  0.15309  0.61935  1.0000
  S   S245      1.0  0.78844  0.21566  0.69860  1.0000
  S   S246      1.0  0.78929  0.20252  0.63327  1.0000
  Fe  Fe124     1.0  0.91089  0.48785  0.59921  1.0000
  Fe  Fe125     1.0  0.89735  0.42858  0.60322  1.0000
  S   S247      1.0  0.94011  0.43929  0.59509  1.0000
  S   S248      1.0  0.86179  0.38517  0.60551  1.0000
  Fe  Fe126     1.0  0.95132  0.47389  0.62417  1.0000
  H   H1049     1.0  0.81655  0.06463  0.89617  1.0000
  Fe  Fe127     1.0  0.94046  0.46672  0.56143  1.0000
  S   S249      1.0  0.95760  0.46247  0.51986  1.0000
  S   S250      1.0  0.90847  0.46151  0.63481  1.0000
  S   S251      1.0  0.89675  0.45428  0.56809  1.0000
  C   C859      1.0  0.97735  0.48126  0.49086  1.0000
  C   C860      1.0  0.98181  0.14238  0.50336  1.0000
  H   H1050     1.0  0.79097  0.04943  0.57477  1.0000
  H   H1051     1.0  0.77483  0.25875  0.70650  1.0000
  C   C861      1.0  0.78330  0.01184  0.55703  1.0000
  H   H1052     1.0  0.78322  0.07222  0.84892  1.0000
  C   C862      1.0  0.90865  0.19963  0.82489  1.0000
  H   H1053     1.0  0.99094  0.44489  0.55777  1.0000
  C   C863      1.0  0.96445  0.48593  0.70342  1.0000
  C   C864      1.0  0.76930  0.01850  0.89052  1.0000
  H   H1054     1.0  0.94525  0.47635  0.69300  1.0000
  C   C865      1.0  0.85324  0.30640  0.64193  1.0000
  C   C866      1.0  0.87611  0.33145  0.64785  1.0000
  C   C867      1.0  0.87954  0.35565  0.63625  1.0000
  C   C868      1.0  0.86001  0.35512  0.61857  1.0000
  C   C869      1.0  0.83748  0.32998  0.61207  1.0000
  C   C870      1.0  0.83422  0.30577  0.62343  1.0000
  H   H1055     1.0  0.89110  0.33226  0.66196  1.0000
  H   H1056     1.0  0.89694  0.37476  0.64155  1.0000
  H   H1057     1.0  0.82226  0.32930  0.59840  1.0000
  H   H1058     1.0  0.81688  0.28676  0.61806  1.0000
  S   S252      1.0  0.87145  0.12232  0.97404  1.0000
  S   S253      1.0  0.95467  0.50200  0.59010  1.0000
  C   C871      1.0  0.98619  0.20196  0.49612  1.0000
  H   H1059     1.0  0.91120  0.22627  0.87183  1.0000
  C   C872      1.0  0.99041  0.50257  0.74600  1.0000
  H   H1060     1.0  0.98214  0.20376  0.51739  1.0000
  C   C873      1.0  0.99271  0.21212  0.95155  1.0000
  C   C874      1.0  0.82649  0.14263  0.82819  1.0000
  C   C875      1.0  0.81751  0.12991  0.80256  1.0000
  C   C876      1.0  0.81379  0.14342  0.78006  1.0000
  C   C877      1.0  0.81907  0.17002  0.78276  1.0000
  C   C878      1.0  0.82792  0.18266  0.80845  1.0000
  C   C879      1.0  0.83159  0.16915  0.83097  1.0000
  H   H1061     1.0  0.81350  0.10946  0.79998  1.0000
  H   H1062     1.0  0.80703  0.13333  0.76055  1.0000
  H   H1063     1.0  0.83211  0.20320  0.81089  1.0000
  H   H1064     1.0  0.83832  0.17930  0.85042  1.0000
  C   C880      1.0  0.82536  0.15541  0.52494  1.0000
  C   C881      1.0  0.83694  0.14332  0.54068  1.0000
  C   C882      1.0  0.83495  0.14281  0.56950  1.0000
  C   C883      1.0  0.82153  0.15448  0.58295  1.0000
  C   C884      1.0  0.81009  0.16672  0.56722  1.0000
  C   C885      1.0  0.81194  0.16708  0.53842  1.0000
  H   H1065     1.0  0.84741  0.13435  0.53065  1.0000
  H   H1066     1.0  0.84389  0.13332  0.58146  1.0000
  H   H1067     1.0  0.79947  0.17554  0.57719  1.0000
  H   H1068     1.0  0.80286  0.17642  0.52644  1.0000
  C   C886      1.0  0.81318  0.05390  0.87643  1.0000
  Fe  Fe128     1.0  0.84248  0.13696  0.96361  1.0000
  H   H1069     1.0  0.77801  0.35120  0.64059  1.0000
  C   C887      1.0  0.90323  0.22841  0.79088  1.0000
  N   N61       1.0  0.86944  0.24839  0.58589  1.0000
  C   C888      1.0  0.86226  0.22969  0.60949  1.0000
  C   C889      1.0  0.89314  0.27458  0.59346  1.0000
  C   C890      1.0  0.84641  0.25306  0.58120  1.0000
  C   C891      1.0  0.87602  0.23702  0.56183  1.0000
  C   C892      1.0  0.89627  0.22960  0.56369  1.0000
  C   C893      1.0  0.86288  0.23306  0.53611  1.0000
  H   H1070     1.0  0.85662  0.23746  0.62764  1.0000
  H   H1071     1.0  0.84495  0.20951  0.60445  1.0000
  H   H1072     1.0  0.87902  0.22657  0.61631  1.0000
  H   H1073     1.0  0.89956  0.28911  0.57608  1.0000
  H   H1074     1.0  0.91067  0.27238  0.59957  1.0000
  H   H1075     1.0  0.88866  0.28400  0.61120  1.0000
  H   H1076     1.0  0.85092  0.26838  0.56492  1.0000
  H   H1077     1.0  0.82781  0.23396  0.57568  1.0000
  H   H1078     1.0  0.84156  0.26089  0.59992  1.0000
  H   H1079     1.0  0.90736  0.23231  0.58244  1.0000
  H   H1080     1.0  0.84713  0.23786  0.53258  1.0000
  H   H1081     1.0  0.92157  0.16134  0.84293  1.0000
  C   C894      1.0  0.96358  0.48283  0.96535  1.0000
  C   C895      1.0  0.88388  0.18090  0.78196  1.0000
  C   C896      1.0  0.78052  0.02763  0.57696  1.0000
  H   H1082     1.0  0.82158  0.04013  0.87899  1.0000
  C   C897      1.0  0.88843  0.20624  0.77401  1.0000
  C   C898      1.0  0.91334  0.22528  0.81588  1.0000
  H   H1083     1.0  0.79243  0.04289  0.82557  1.0000
  H   H1084     1.0  0.87178  0.16363  0.76900  1.0000
  H   H1085     1.0  0.88830  0.15702  0.81230  1.0000
  C   C899      1.0  0.77417  0.05826  0.86666  1.0000
  C   C900      1.0  0.96565  0.49045  0.73191  1.0000
  H   H1086     1.0  0.87981  0.20851  0.75505  1.0000
  H   H1087     1.0  0.95469  0.23604  0.85205  1.0000
  C   C901      1.0  0.76407  0.01538  0.59954  1.0000
  H   H1088     1.0  0.91292  0.20268  0.89448  1.0000
  H   H1089     1.0  0.76178  0.02782  0.61484  1.0000
  H   H1090     1.0  0.79008  0.25736  0.65944  1.0000
  H   H1091     1.0  0.95841  0.20951  0.83682  1.0000
  H   H1092     1.0  0.82378  0.37188  0.66022  1.0000
  H   H1093     1.0  0.92440  0.24306  0.82836  1.0000
  H   H1094     1.0  0.94577  0.46340  0.96213  1.0000
  H   H1095     1.0  0.00044  0.49101  0.55972  1.0000
  H   H1096     1.0  0.99936  0.48914  0.59606  1.0000
  H   H1097     1.0  0.89024  0.15458  0.85877  1.0000
  C   C902      1.0  0.88852  0.21382  0.51687  1.0000
  C   C903      1.0  0.90219  0.21796  0.54157  1.0000
  H   H1098     1.0  0.79189  0.01438  0.84079  1.0000
  H   H1099     1.0  0.96724  0.14317  0.51690  1.0000
  H   H1100     1.0  0.91786  0.49945  0.68793  1.0000
  C   C904      1.0  0.81818  0.33458  0.67688  1.0000
  C   C905      1.0  0.77452  0.29401  0.66798  1.0000
  C   C906      1.0  0.81346  0.01730  0.95866  1.0000
  H   H1101     1.0  0.99187  0.44103  0.59386  1.0000
  H   H1102     1.0  0.77111  0.25826  0.63060  1.0000
  H   H1103     1.0  0.95645  0.21165  0.87342  1.0000
  C   C907      1.0  0.91237  0.16872  0.85819  1.0000
  H   H1104     1.0  0.88370  0.19226  0.87300  1.0000
  C   C908      1.0  0.90608  0.20488  0.87373  1.0000
  C   C909      1.0  0.98059  0.49644  0.94283  1.0000
  H   H1105     1.0  0.80906  0.29523  0.68876  1.0000
  H   H1106     1.0  0.92029  0.16728  0.87863  1.0000
  H   H1107     1.0  0.91709  0.21162  0.54371  1.0000
  C   C910      1.0  0.86920  0.22168  0.51406  1.0000
  H   H1108     1.0  0.99350  0.22763  0.93821  1.0000
  H   H1109     1.0  0.85817  0.21773  0.49494  1.0000
  C   C911      1.0  0.94829  0.21427  0.85356  1.0000
  H   H1110     1.0  0.85491  0.48673  0.63487  1.0000
  H   H1111     1.0  0.79592  0.02140  0.53930  1.0000
  H   H1112     1.0  0.94729  0.48462  0.74313  1.0000
  N   N62       1.0  0.91861  0.19672  0.85200  1.0000
  H   H1113     1.0  0.81409  0.49509  0.58300  1.0000
  H   H1114     1.0  0.89241  0.20395  0.49998  1.0000
  C   C912      1.0  0.96449  0.18861  0.47770  1.0000
  S   S254      1.0  0.77370  0.15470  0.68116  1.0000
  S   S255      1.0  0.98781  0.48921  0.65254  1.0000
  N   N63       1.0  0.78428  0.03886  0.86900  1.0000
  C   C913      1.0  0.96832  0.18766  0.95458  1.0000
  C   C914      1.0  0.96770  0.16786  0.97194  1.0000
  C   C915      1.0  0.80095  0.30676  0.67917  1.0000
  H   H1115     1.0  0.82543  0.06950  0.86087  1.0000
  H   H1116     1.0  0.94920  0.14889  0.97444  1.0000
  Fe  Fe129     1.0  0.76008  0.18417  0.66863  1.0000
  C   C916      1.0  0.80987  0.35049  0.66301  1.0000
  C   C917      1.0  0.78205  0.02697  0.84146  1.0000
  C   C918      1.0  0.98808  0.49367  0.68862  1.0000
  H   H1117     1.0  0.83857  0.34370  0.68479  1.0000
  H   H1118     1.0  0.97573  0.48739  0.92270  1.0000
  C   C919      1.0  0.78410  0.33870  0.65179  1.0000
  H   H1119     1.0  0.77489  0.04777  0.92213  1.0000
  H   H1120     1.0  0.94398  0.18028  0.48479  1.0000
  C   C920      1.0  0.76654  0.31089  0.65421  1.0000
  C   C921      1.0  0.76616  0.02672  0.91699  1.0000
  C   C922      1.0  0.76949  0.25181  0.65233  1.0000
  C   C923      1.0  0.00481  0.44836  0.57528  1.0000
  H   H1121     1.0  0.92866  0.22009  0.96934  1.0000
  H   H1122     1.0  0.76061  0.01460  0.83507  1.0000
  C   C924      1.0  0.97395  0.13189  0.47713  1.0000
  H   H1123     1.0  0.94204  0.52199  0.03701  1.0000
  H   H1124     1.0  0.80738  0.58264  0.25427  1.0000
  H   H1125     1.0  0.81391  0.73357  0.02005  1.0000
  C   C925      1.0  0.84085  0.96033  0.00199  1.0000
  Fe  Fe130     1.0  0.80927  0.58150  0.16911  1.0000
  S   S256      1.0  0.82480  0.62538  0.17936  1.0000
  S   S257      1.0  0.84167  0.56897  0.17254  1.0000
  Fe  Fe131     1.0  0.79083  0.61116  0.20938  1.0000
  S   S258      1.0  0.79071  0.62535  0.25352  1.0000
  Fe  Fe132     1.0  0.79547  0.62367  0.14763  1.0000
  S   S259      1.0  0.80656  0.66173  0.12300  1.0000
  H   H1126     1.0  0.89345  0.52375  0.14993  1.0000
  S   S260      1.0  0.78209  0.58079  0.13489  1.0000
  Fe  Fe133     1.0  0.85927  0.72067  0.39253  1.0000
  S   S261      1.0  0.88802  0.76382  0.40528  1.0000
  S   S262      1.0  0.86197  0.71007  0.34728  1.0000
  H   H1127     1.0  0.86614  0.74258  0.22471  1.0000
  C   C926      1.0  0.76175  0.99797  0.33560  1.0000
  S   S263      1.0  0.83647  0.67227  0.99619  1.0000
  Fe  Fe134     1.0  0.85470  0.76007  0.43323  1.0000
  S   S264      1.0  0.84665  0.79552  0.43847  1.0000
  Fe  Fe135     1.0  0.90067  0.74666  0.44006  1.0000
  N   N64       1.0  0.90682  0.52573  0.02948  1.0000
  S   S265      1.0  0.82519  0.71843  0.41797  1.0000
  S   S266      1.0  0.87353  0.70368  0.42620  1.0000
  H   H1128     1.0  0.79626  0.70441  0.29680  1.0000
  C   C927      1.0  0.93278  0.52823  0.02055  1.0000
  H   H1129     1.0  0.78468  0.68539  0.25130  1.0000
  C   C928      1.0  0.84716  0.54528  0.15383  1.0000
  C   C929      1.0  0.80527  0.91568  0.99041  1.0000
  C   C930      1.0  0.76191  0.64577  0.03876  1.0000
  S   S267      1.0  0.76215  0.61208  0.17834  1.0000
  H   H1130     1.0  0.91466  0.58927  0.11479  1.0000
  C   C931      1.0  0.82922  0.52836  0.13380  1.0000
  C   C932      1.0  0.81945  0.79831  0.45291  1.0000
  H   H1131     1.0  0.85721  0.70407  0.20016  1.0000
  N   N65       1.0  0.77357  0.71059  0.00441  1.0000
  C   C933      1.0  0.80985  0.81499  0.98782  1.0000
  C   C934      1.0  0.84175  0.68586  0.32185  1.0000
  C   C935      1.0  0.81448  0.66707  0.32578  1.0000
  C   C936      1.0  0.79935  0.64884  0.30466  1.0000
  C   C937      1.0  0.81118  0.64893  0.27935  1.0000
  C   C938      1.0  0.83853  0.66758  0.27552  1.0000
  C   C939      1.0  0.85359  0.68589  0.29656  1.0000
  H   H1132     1.0  0.80499  0.66673  0.34500  1.0000
  H   H1133     1.0  0.77827  0.63455  0.30801  1.0000
  H   H1134     1.0  0.84818  0.66806  0.25645  1.0000
  H   H1135     1.0  0.87464  0.70030  0.29324  1.0000
  C   C940      1.0  0.81639  0.66503  0.08814  1.0000
  C   C941      1.0  0.81517  0.64340  0.07365  1.0000
  C   C942      1.0  0.82195  0.64627  0.04568  1.0000
  C   C943      1.0  0.83010  0.67075  0.03187  1.0000
  C   C944      1.0  0.83199  0.69263  0.04652  1.0000
  C   C945      1.0  0.82496  0.68970  0.07449  1.0000
  H   H1136     1.0  0.80868  0.62433  0.08387  1.0000
  H   H1137     1.0  0.82055  0.62927  0.03456  1.0000
  H   H1138     1.0  0.83878  0.71172  0.03631  1.0000
  H   H1139     1.0  0.82608  0.70658  0.08556  1.0000
  C   C946      1.0  0.93446  0.55996  0.06641  1.0000
  C   C947      1.0  0.80312  0.72435  0.00061  1.0000
  C   C948      1.0  0.93616  0.57625  0.08852  1.0000
  C   C949      1.0  0.76025  0.69899  0.97780  1.0000
  C   C950      1.0  0.85628  0.74458  0.26619  1.0000
  H   H1140     1.0  0.98385  0.78705  0.01276  1.0000
  H   H1141     1.0  0.81973  0.61609  0.34163  1.0000
  H   H1142     1.0  0.99576  0.76470  0.46608  1.0000
  H   H1143     1.0  0.81555  0.55943  0.27133  1.0000
  H   H1144     1.0  0.88954  0.60121  0.25768  1.0000
  H   H1145     1.0  0.95274  0.55998  0.06101  1.0000
  H   H1146     1.0  0.85382  0.60706  0.21651  1.0000
  H   H1147     1.0  0.86709  0.53227  0.05366  1.0000
  H   H1148     1.0  0.83611  0.89981  0.01840  1.0000
  H   H1149     1.0  0.00101  0.85356  0.47282  1.0000
  H   H1150     1.0  0.81983  0.56465  0.23511  1.0000
  H   H1151     1.0  0.79476  0.75645  0.46357  1.0000
  H   H1152     1.0  0.87643  0.76053  0.27124  1.0000
  H   H1153     1.0  0.99821  0.83396  0.41129  1.0000
  C   C951      1.0  0.91346  0.57707  0.09731  1.0000
  C   C952      1.0  0.83657  0.62016  0.32847  1.0000
  H   H1154     1.0  0.80996  0.71019  0.99370  1.0000
  C   C953      1.0  0.87552  0.52485  0.14539  1.0000
  C   C954      1.0  0.97523  0.81110  0.46442  1.0000
  C   C955      1.0  0.79547  0.96816  0.46024  1.0000
  H   H1155     1.0  0.80551  0.90532  0.04434  1.0000
  S   S268      1.0  0.77670  0.56741  0.20104  1.0000
  H   H1156     1.0  0.82324  0.82727  0.00400  1.0000
  H   H1157     1.0  0.81131  0.52947  0.12919  1.0000
  H   H1158     1.0  0.99762  0.52801  0.01569  1.0000
  H   H1159     1.0  0.86356  0.93355  0.02429  1.0000
  H   H1160     1.0  0.89705  0.63845  0.28068  1.0000
  H   H1161     1.0  0.96963  0.78800  0.39317  1.0000
  C   C956      1.0  0.99135  0.79667  0.39387  1.0000
  C   C957      1.0  0.77742  0.97070  0.98902  1.0000
  C   C958      1.0  0.86789  0.58560  0.25772  1.0000
  C   C959      1.0  0.99262  0.51909  0.99552  1.0000
  C   C960      1.0  0.82193  0.57505  0.25503  1.0000
  H   H1162     1.0  0.95512  0.58797  0.09921  1.0000
  H   H1163     1.0  0.89369  0.51934  0.98734  1.0000
  H   H1164     1.0  0.86525  0.65266  0.35366  1.0000
  C   C961      1.0  0.87978  0.63251  0.29370  1.0000
  H   H1165     1.0  0.84633  0.73849  0.18380  1.0000
  H   H1166     1.0  0.94742  0.54915  0.01400  1.0000
  H   H1167     1.0  0.87775  0.63361  0.23760  1.0000
  C   C962      1.0  0.76637  0.73136  0.01215  1.0000
  C   C963      1.0  0.99989  0.83413  0.47158  1.0000
  C   C964      1.0  0.78671  0.81684  0.98185  1.0000
  C   C965      1.0  0.88381  0.64694  0.31799  1.0000
  N   N66       1.0  0.81837  0.70147  0.20463  1.0000
  C   C966      1.0  0.78986  0.68028  0.20035  1.0000
  C   C967      1.0  0.82457  0.72321  0.18436  1.0000
  C   C968      1.0  0.83536  0.68928  0.19864  1.0000
  C   C969      1.0  0.82411  0.71265  0.23274  1.0000
  C   C970      1.0  0.85015  0.73409  0.23965  1.0000
  C   C971      1.0  0.80470  0.70231  0.25413  1.0000
  H   H1168     1.0  0.84183  0.74164  0.30739  1.0000
  C   C972      1.0  0.81105  0.71308  0.28055  1.0000
  C   C973      1.0  0.83677  0.73410  0.28659  1.0000
  C   C974      1.0  0.97358  0.78592  0.46222  1.0000
  H   H1169     1.0  0.78616  0.67268  0.17886  1.0000
  H   H1170     1.0  0.78423  0.66237  0.21366  1.0000
  H   H1171     1.0  0.81320  0.73384  0.18899  1.0000
  H   H1172     1.0  0.85366  0.92039  0.99017  1.0000
  H   H1173     1.0  0.82958  0.93916  0.05381  1.0000
  H   H1174     1.0  0.83864  0.84104  0.44501  1.0000
  C   C975      1.0  0.98647  0.79187  0.99115  1.0000
  H   H1175     1.0  0.77654  0.66408  0.00006  1.0000
  H   H1176     1.0  0.79443  0.89387  0.99573  1.0000
  H   H1177     1.0  0.84334  0.62605  0.23744  1.0000
  C   C976      1.0  0.90965  0.54378  0.05251  1.0000
  C   C977      1.0  0.88893  0.56158  0.08409  1.0000
  H   H1178     1.0  0.82598  0.97587  0.03476  1.0000
  C   C978      1.0  0.00303  0.78155  0.38554  1.0000
  H   H1179     1.0  0.81925  0.71504  0.16312  1.0000
  C   C979      1.0  0.00450  0.52307  0.46537  1.0000
  C   C980      1.0  0.84600  0.92106  0.01082  1.0000
  H   H1180     1.0  0.90712  0.55341  0.99942  1.0000
  C   C981      1.0  0.76570  0.68894  0.02509  1.0000
  H   H1181     1.0  0.79765  0.93137  0.03843  1.0000
  H   H1182     1.0  0.80333  0.84733  0.46785  1.0000
  H   H1183     1.0  0.83179  0.68088  0.17749  1.0000
  S   S269      1.0  0.78055  0.83983  0.00084  1.0000
  H   H1184     1.0  0.90362  0.66345  0.32318  1.0000
  Fe  Fe136     1.0  0.84178  0.70450  0.45254  1.0000
  C   C982      1.0  0.87032  0.54336  0.15948  1.0000
  N   N67       1.0  0.82692  0.93159  0.01036  1.0000
  H   H1185     1.0  0.93006  0.51477  0.00290  1.0000
  H   H1186     1.0  0.81005  0.74071  0.98505  1.0000
  C   C983      1.0  0.86224  0.64080  0.33532  1.0000
  C   C984      1.0  0.83845  0.98045  0.01679  1.0000
  H   H1187     1.0  0.83089  0.67252  0.21317  1.0000
  H   H1188     1.0  0.87398  0.52745  0.00923  1.0000
  S   S270      1.0  0.94342  0.75623  0.45226  1.0000
  C   C985      1.0  0.85656  0.61691  0.23682  1.0000
  S   S271      1.0  0.86965  0.74587  0.46877  1.0000
  C   C986      1.0  0.81448  0.92683  0.03796  1.0000
  C   C987      1.0  0.81380  0.99236  0.44690  1.0000
  H   H1189     1.0  0.94358  0.77186  0.98300  1.0000
  H   H1190     1.0  0.81163  0.59076  0.29970  1.0000
  H   H1191     1.0  0.99022  0.76119  0.37811  1.0000
  H   H1192     1.0  0.88439  0.55630  0.17487  1.0000
  H   H1193     1.0  0.77584  0.68805  0.20446  1.0000
  C   C988      1.0  0.82136  0.82385  0.45401  1.0000
  H   H1194     1.0  0.86448  0.57394  0.23837  1.0000
  C   C989      1.0  0.79693  0.77633  0.46469  1.0000
  H   H1195     1.0  0.79598  0.94979  0.45635  1.0000
  N   N68       1.0  0.84993  0.59735  0.25949  1.0000
  C   C990      1.0  0.85383  0.61145  0.28596  1.0000
  C   C991      1.0  0.83224  0.60571  0.30414  1.0000
  C   C992      1.0  0.99681  0.78408  0.46766  1.0000
  H   H1196     1.0  0.86439  0.57166  0.27516  1.0000
  H   H1197     1.0  0.87115  0.56172  0.09151  1.0000
  C   C993      1.0  0.76836  0.66604  0.01930  1.0000
  C   C994      1.0  0.88688  0.54492  0.06225  1.0000
  C   C995      1.0  0.78448  0.99674  0.99818  1.0000
  C   C996      1.0  0.80133  0.82751  0.46697  1.0000
  H   H1198     1.0  0.95766  0.81291  0.46010  1.0000
  H   H1199     1.0  0.76484  0.62886  0.03404  1.0000
  C   C997      1.0  0.89488  0.53179  0.00537  1.0000
  H   H1200     1.0  0.77628  0.99904  0.01726  1.0000
  H   H1201     1.0  0.83394  0.79661  0.97762  1.0000
  H   H1202     1.0  0.00524  0.85109  0.98033  1.0000
  H   H1203     1.0  0.79013  0.92244  0.98998  1.0000
  H   H1204     1.0  0.97613  0.51154  0.37889  1.0000
  H   H1205     1.0  0.82829  0.99235  0.43272  1.0000
  C   C998      1.0  0.85752  0.50785  0.12544  1.0000
  H   H1206     1.0  0.77733  0.99877  0.32253  1.0000
  C   C999      1.0  0.83437  0.50977  0.11979  1.0000
  H   H1207     1.0  0.77138  0.74657  0.99558  1.0000
  C   C1000     1.0  0.00748  0.82255  0.40414  1.0000
  H   H1208     1.0  0.77781  0.74308  0.03041  1.0000
  C   C1001     1.0  0.85633  0.96873  0.97758  1.0000
  H   H1209     1.0  0.84626  0.60971  0.59904  1.0000
  N   N69       1.0  0.85431  0.60046  0.55837  1.0000
  H   H1210     1.0  0.94711  0.53371  0.63665  1.0000
  S   S272      1.0  0.78915  0.63368  0.66804  1.0000
  Fe  Fe137     1.0  0.80643  0.57648  0.66520  1.0000
  S   S273      1.0  0.83810  0.62019  0.66879  1.0000
  S   S274      1.0  0.81399  0.54062  0.66434  1.0000
  Fe  Fe138     1.0  0.81136  0.62413  0.70028  1.0000
  S   S275      1.0  0.82768  0.65542  0.73548  1.0000
  Fe  Fe139     1.0  0.81363  0.62690  0.63671  1.0000
  S   S276      1.0  0.83892  0.65808  0.60439  1.0000
  S   S277      1.0  0.78118  0.57957  0.69924  1.0000
  S   S278      1.0  0.78308  0.58288  0.63139  1.0000
  Fe  Fe140     1.0  0.84664  0.70506  0.90018  1.0000
  S   S279      1.0  0.86433  0.75015  0.89908  1.0000
  S   S280      1.0  0.83188  0.67278  0.86601  1.0000
  H   H1211     1.0  0.95659  0.87329  0.93315  1.0000
  H   H1212     1.0  0.81476  0.98902  0.93048  1.0000
  S   S281      1.0  0.99084  0.50923  0.78162  1.0000
  Fe  Fe141     1.0  0.83660  0.74527  0.93423  1.0000
  S   S282      1.0  0.80559  0.75958  0.93190  1.0000
  Fe  Fe142     1.0  0.89325  0.75208  0.93210  1.0000
  S   S283      1.0  0.93832  0.78125  0.92463  1.0000
  S   S284      1.0  0.81716  0.69999  0.93321  1.0000
  S   S285      1.0  0.87696  0.70727  0.93110  1.0000
  H   H1213     1.0  0.99187  0.55157  0.69496  1.0000
  H   H1214     1.0  0.76016  0.76298  0.48758  1.0000
  H   H1215     1.0  0.95481  0.74612  0.89755  1.0000
  C   C1002     1.0  0.83933  0.53648  0.64756  1.0000
  C   C1003     1.0  0.79908  0.78191  0.95161  1.0000
  S   S286      1.0  0.86664  0.75040  0.96720  1.0000
  H   H1216     1.0  0.80318  0.74762  0.51569  1.0000
  C   C1004     1.0  0.87938  0.55284  0.61909  1.0000
  C   C1005     1.0  0.86052  0.55746  0.63314  1.0000
  C   C1006     1.0  0.84312  0.57132  0.56395  1.0000
  S   S287      1.0  0.90142  0.52255  0.60046  1.0000
  H   H1217     1.0  0.89535  0.56910  0.60760  1.0000
  H   H1218     1.0  0.86207  0.57708  0.63253  1.0000
  C   C1007     1.0  0.83150  0.66860  0.82963  1.0000
  C   C1008     1.0  0.84367  0.69042  0.81147  1.0000
  C   C1009     1.0  0.84245  0.68591  0.78289  1.0000
  C   C1010     1.0  0.82908  0.65959  0.77193  1.0000
  C   C1011     1.0  0.81716  0.63779  0.79013  1.0000
  C   C1012     1.0  0.81843  0.64230  0.81870  1.0000
  H   H1219     1.0  0.85369  0.71078  0.81937  1.0000
  H   H1220     1.0  0.85175  0.70298  0.76910  1.0000
  H   H1221     1.0  0.80698  0.61743  0.78226  1.0000
  H   H1222     1.0  0.80899  0.62521  0.83246  1.0000
  C   C1013     1.0  0.83040  0.66186  0.57047  1.0000
  C   C1014     1.0  0.80485  0.64499  0.55940  1.0000
  C   C1015     1.0  0.79959  0.64794  0.53178  1.0000
  C   C1016     1.0  0.81968  0.66786  0.51510  1.0000
  C   C1017     1.0  0.84510  0.68487  0.52629  1.0000
  C   C1018     1.0  0.85041  0.68184  0.55383  1.0000
  H   H1223     1.0  0.78929  0.62954  0.57201  1.0000
  H   H1224     1.0  0.77987  0.63470  0.52324  1.0000
  H   H1225     1.0  0.86077  0.70010  0.51358  1.0000
  H   H1226     1.0  0.87025  0.69488  0.56221  1.0000
  C   C1019     1.0  0.96650  0.78986  0.94648  1.0000
  H   H1227     1.0  0.96183  0.52266  0.66216  1.0000
  H   H1228     1.0  0.98439  0.56401  0.77941  1.0000
  H   H1229     1.0  0.86072  0.73989  0.54817  1.0000
  C   C1020     1.0  0.99075  0.55932  0.73697  1.0000
  H   H1230     1.0  0.97665  0.55816  0.65393  1.0000
  H   H1231     1.0  0.81457  0.76820  0.56285  1.0000
  C   C1021     1.0  0.93888  0.55074  0.72836  1.0000
  H   H1232     1.0  0.82433  0.59222  0.52738  1.0000
  C   C1022     1.0  0.95014  0.55643  0.75462  1.0000
  H   H1233     1.0  0.84919  0.78433  0.57380  1.0000
  C   C1023     1.0  0.76961  0.80083  0.96086  1.0000
  H   H1234     1.0  0.93727  0.68899  0.96157  1.0000
  C   C1024     1.0  0.86918  0.99565  0.96896  1.0000
  H   H1235     1.0  0.87334  0.56542  0.54203  1.0000
  C   C1025     1.0  0.95736  0.53901  0.65694  1.0000
  H   H1236     1.0  0.96241  0.73567  0.94383  1.0000
  C   C1026     1.0  0.91716  0.80237  0.51118  1.0000
  C   C1027     1.0  0.93425  0.69323  0.94062  1.0000
  H   H1237     1.0  0.84162  0.62649  0.53920  1.0000
  C   C1028     1.0  0.78813  0.96808  0.96425  1.0000
  H   H1238     1.0  0.80992  0.56730  0.58919  1.0000
  H   H1239     1.0  0.87216  0.63774  0.58118  1.0000
  H   H1240     1.0  0.82400  0.73245  0.51897  1.0000
  H   H1241     1.0  0.77962  0.67679  0.75911  1.0000
  C   C1029     1.0  0.81977  0.55717  0.58042  1.0000
  H   H1242     1.0  0.89509  0.61080  0.54851  1.0000
  H   H1243     1.0  0.88530  0.63379  0.53539  1.0000
  C   C1030     1.0  0.99272  0.80471  0.93567  1.0000
  C   C1031     1.0  0.80926  0.52991  0.58684  1.0000
  H   H1244     1.0  0.91982  0.74736  0.87256  1.0000
  C   C1032     1.0  0.83411  0.76871  0.55986  1.0000
  H   H1245     1.0  0.88758  0.71738  0.87123  1.0000
  C   C1033     1.0  0.83333  0.60511  0.54576  1.0000
  C   C1034     1.0  0.91568  0.67258  0.92393  1.0000
  N   N70       1.0  0.84323  0.77452  0.53097  1.0000
  C   C1035     1.0  0.82421  0.75153  0.51374  1.0000
  H   H1246     1.0  0.90491  0.74413  0.54199  1.0000
  C   C1036     1.0  0.84161  0.79864  0.52229  1.0000
  C   C1037     1.0  0.87060  0.77804  0.52830  1.0000
  C   C1038     1.0  0.98884  0.50927  0.48857  1.0000
  H   H1247     1.0  0.94107  0.78336  0.51758  1.0000
  C   C1039     1.0  0.84455  0.52912  0.56077  1.0000
  C   C1040     1.0  0.77583  0.78356  0.94583  1.0000
  H   H1248     1.0  0.87242  0.60157  0.51940  1.0000
  H   H1249     1.0  0.85550  0.81676  0.53439  1.0000
  H   H1250     1.0  0.76257  0.77151  0.92945  1.0000
  Fe  Fe143     1.0  0.84855  0.70523  0.96397  1.0000
  H   H1251     1.0  0.79211  0.51991  0.60048  1.0000
  H   H1252     1.0  0.76196  0.93180  0.55590  1.0000
  H   H1253     1.0  0.99531  0.81005  0.91419  1.0000
  H   H1254     1.0  0.85468  0.51835  0.55409  1.0000
  H   H1255     1.0  0.90349  0.73463  0.84023  1.0000
  C   C1041     1.0  0.00306  0.86707  0.97111  1.0000
  H   H1256     1.0  0.92681  0.55980  0.64783  1.0000
  H   H1257     1.0  0.98570  0.52035  0.50468  1.0000
  H   H1258     1.0  0.82970  0.75569  0.49172  1.0000
  H   H1259     1.0  0.85810  0.95444  0.96460  1.0000
  H   H1260     1.0  0.84652  0.80321  0.50021  1.0000
  N   N71       1.0  0.94037  0.54175  0.67822  1.0000
  C   C1042     1.0  0.97959  0.55325  0.71070  1.0000
  C   C1043     1.0  0.93471  0.56323  0.66916  1.0000
  C   C1044     1.0  0.97516  0.87921  0.94419  1.0000
  C   C1045     1.0  0.95310  0.54853  0.70565  1.0000
  Fe  Fe144     1.0  0.76002  0.58897  0.66551  1.0000
  H   H1261     1.0  0.91878  0.54770  0.72604  1.0000
  H   H1262     1.0  0.83067  0.74871  0.56684  1.0000
  C   C1046     1.0  0.87780  0.61199  0.53956  1.0000
  C   C1047     1.0  0.99525  0.90622  0.94526  1.0000
  H   H1263     1.0  0.77498  0.65018  0.72265  1.0000
  C   C1048     1.0  0.86320  0.61560  0.58447  1.0000
  H   H1264     1.0  0.87848  0.61213  0.59498  1.0000
  H   H1265     1.0  0.76436  0.71499  0.96237  1.0000
  H   H1266     1.0  0.82089  0.79556  0.52459  1.0000
  C   C1049     1.0  0.81598  0.79759  0.97290  1.0000
  C   C1050     1.0  0.87615  0.75795  0.53837  1.0000
  H   H1267     1.0  0.77732  0.67051  0.84594  1.0000
  C   C1051     1.0  0.83778  0.51110  0.64834  1.0000
  C   C1052     1.0  0.92179  0.78217  0.52110  1.0000
  H   H1268     1.0  0.90423  0.65228  0.93205  1.0000
  C   C1053     1.0  0.97596  0.56052  0.75893  1.0000
  H   H1269     1.0  0.77547  0.93982  0.59010  1.0000
  H   H1270     1.0  0.81304  0.91735  0.96927  1.0000
  N   N72       1.0  0.92018  0.71164  0.85842  1.0000
  C   C1054     1.0  0.94597  0.72704  0.84335  1.0000
  C   C1055     1.0  0.90223  0.68765  0.84160  1.0000
  C   C1056     1.0  0.90733  0.72856  0.86066  1.0000
  C   C1057     1.0  0.92523  0.70474  0.88626  1.0000
  C   C1058     1.0  0.91111  0.67810  0.89714  1.0000
  C   C1059     1.0  0.94401  0.72523  0.90389  1.0000
  C   C1060     1.0  0.96354  0.78322  0.97431  1.0000
  C   C1061     1.0  0.77919  0.67626  0.80231  1.0000
  H   H1271     1.0  0.78260  0.94828  0.95657  1.0000
  H   H1272     1.0  0.95737  0.71593  0.84329  1.0000
  H   H1273     1.0  0.94264  0.73076  0.82168  1.0000
  H   H1274     1.0  0.95920  0.74729  0.85236  1.0000
  H   H1275     1.0  0.91064  0.67392  0.83921  1.0000
  H   H1276     1.0  0.89900  0.69338  0.82069  1.0000
  H   H1277     1.0  0.88176  0.67604  0.85071  1.0000
  H   H1278     1.0  0.93866  0.55725  0.77183  1.0000
  C   C1062     1.0  0.85524  0.55641  0.55420  1.0000
  C   C1063     1.0  0.87748  0.52729  0.61940  1.0000
  H   H1279     1.0  0.81672  0.60097  0.56020  1.0000
  H   H1280     1.0  0.93299  0.81929  0.50013  1.0000
  H   H1281     1.0  0.77179  0.61061  0.74568  1.0000
  C   C1064     1.0  0.77722  0.78008  0.47817  1.0000
  C   C1065     1.0  0.90138  0.76008  0.53480  1.0000
  H   H1282     1.0  0.89589  0.66126  0.88569  1.0000
  C   C1066     1.0  0.82167  0.51593  0.57710  1.0000
  C   C1067     1.0  0.89199  0.80045  0.51457  1.0000
  H   H1283     1.0  0.88966  0.81642  0.50551  1.0000
  H   H1284     1.0  0.99219  0.92133  0.93499  1.0000
  S   S288      1.0  0.81243  0.67046  0.48035  1.0000
  C   C1068     1.0  0.94843  0.71948  0.93060  1.0000
  H   H1285     1.0  0.91929  0.56426  0.68209  1.0000
  H   H1286     1.0  0.95328  0.58337  0.66970  1.0000
  C   C1069     1.0  0.76956  0.66113  0.82621  1.0000
  C   C1070     1.0  0.85672  0.50650  0.63441  1.0000
  C   C1071     1.0  0.77039  0.66405  0.77672  1.0000
  C   C1072     1.0  0.80622  0.99126  0.94933  1.0000
  H   H1287     1.0  0.79439  0.69740  0.80366  1.0000
  C   C1073     1.0  0.97908  0.85967  0.95706  1.0000
  H   H1288     1.0  0.96357  0.83857  0.95587  1.0000
  C   C1074     1.0  0.77921  0.80566  0.47944  1.0000
  C   C1075     1.0  0.76972  0.98375  0.55966  1.0000
  C   C1076     1.0  0.75857  0.99033  0.88642  1.0000
  H   H1289     1.0  0.76759  0.68622  0.96827  1.0000
  C   C1077     1.0  0.91464  0.51575  0.67948  1.0000
  H   H1290     1.0  0.90535  0.50924  0.65886  1.0000
  C   C1078     1.0  0.00381  0.52160  0.94644  1.0000
  H   H1291     1.0  0.77217  0.97251  0.54331  1.0000
  H   H1292     1.0  0.89923  0.51685  0.69231  1.0000
  H   H1293     1.0  0.88053  0.00158  0.95003  1.0000
  C   C1079     1.0  0.77679  0.99220  0.48381  1.0000
  C   C1080     1.0  0.77703  0.96803  0.47902  1.0000
  H   H1294     1.0  0.76233  0.99228  0.49796  1.0000
  H   H1295     1.0  0.76062  0.98213  0.86732  1.0000
  H   H1296     1.0  0.75779  0.83973  0.68140  1.0000
