data_image0
_chemical_formula_structural       H2NHFeSFeS2FeS2FeSFeS3CSHFeHSFeSH3S3FeSFeSFeC2SC7H4C6H4C6H4C6H4C2SH2C2HSHC2HC4NCNCH5CHCH5C2H3C2HCHCHC2HCHC2H2SHFeH3NC8SH13CHC2H3C2HCH2C2H2CHCH2CH2C2HSH4CHCHCH2NC4HCH2CH4C3SNHCHCH2CHCH3C2HCH2CSNSFeS2FeS2FeSFeS3FeS2FeCSFeSHCS2HSHSFeSC3H2C6H4C6H4C6H4C6H5C2H5CSC3NC7FeNH11CNC3H3CHC4HCHCHCSH2FeH2CH7CHC4HC2H2CH3CFeCHC2H2CHCSH2CFeC2H2NH4CHCHCH3C2N2CH4C2HCH2FeCHSCHCH6CHCHSHC2HC2H3FeS2FeS2FeSFeS3CSHFeCSH2FeS2H2SFeS2HCSHCSHCH2CH2C2HSCHC5H5FeHC7H4CH3C7H4C6H5C2HNC2HC5FeHCH5SH2C2SH2CH3C3H4SNC4HNHC2H2FeHC2SNCHC2HCH3C2HC3H7SCHNCH3CHCH3C3H2NC4HC2H2C2H3CHCH3CHCH8C2HC3H2CH2CFeCHCH6CHFeS2FeS2FeSFeS3HSCFeCSFeCFeS2HFeSFeS3FeSH4C4HNH2CHC7H2CH3C8H5C2H2C6H4C6H8C2H5CHCHS2H2CH3C2H2CSNCHCH4CH2NC2HCH4CH2FeCHC2H4C3H2CHSFeH4CFeSCNC3HSCHCHCH2C2HSCH2NC3H3CH2NHCH2CHCH6NH2C6HCH2SC2H2CH6FeSHS2C3FeS3FeSFeSHSFeSHSH3CHCNHC2H2SC2H2C2HCHFeC2HSCHCNCHCHCHC2HCHNC2H2NCHC2HC2HC3HCH3C2H5CH4CH2CHC2HCHC2FeCH2CSH2CHC2H3CH2C4H5SCH2FeHCHC2H2CH5CHCHCHCH2CHCH3FeSHS2H3FeS3FeSFeSHSFeSHSCSH3CHCNC4HC2HCHC3SHCH4CHCHC3HCHC6SHFeNSHCHSH6C2FeH6C2HCHCH2FeC6HCHC2H3C2H2CHNHC2HCH3CH2CHCHCFeH2C2HC3H6CHCS2C2H2FeH5NC3SCFeSFeSCSFeS2HFeSHCSHFeSHCHSCHC2H3NCHCHC6H2C2H3C3H2SC3HCH3CH3C6NC2H2CHFeHC3HCH5CHCH2C2HCH4CH2CNH4CHC3H3C2SH2C2H3C2HSCH2C2H2SHSH2FeCHSHSH3CHCHCH2CSFeH3SHFeS3CSFeS2FeH3CSCFeSC3SCH2NHNH5CSH2C3HCSCHCHC2H3CHSC4H5C4NSH4C2FeH3C3HCH3CH2C2HCH3C3FeC2H6C2H3C2H6C2HCH2CH3CH2CHCHCSFeS2FeS2FeCFeS3HS2FeCSFeSH3SC3SNHFeSHCS2C2H3CH3C8H3C7H6C7H4C6H4SCH2NHCH2C2H2CH5CHFeH2FeNH2FeCH3C2H3CSNCHCH2C2H2CHC2HC2HCH3CH2C2H2C3HC3H3C2HNC7HCH5CH3CH2SCHSNCH5CH2C2H4SCSCH2CH2CSHFeH3CSCHCH2FeS2FeS2FeSFeS3CSHFeHSFeSH3S2H2SCHFeSFeSCSH3CSHCHCH2C6H3C7H4CH2C6H4C6H6FeC2HCHNC9H14NC9H11CHSC2HCHC2NHNHCHCSCH2SHFe2H2CHCH2CH3C2H3NC2HCHC2H2CHCSCH2CSH3C5HCH4CH3C3HCHCH4SFe2CSHCFeS2HFeSHFeS2FeSFeS3FeSFeS3HSCSHSH2C4H3C6H4C6H4C6H4C6H4C2H2C3SHSHSHNHCHCNC7HCH15CNH2CH2FeHC2HFeNH2CHC2HNC2H5SH4C2H5CHSFeHC2HCNC2HC2H3C2NH2C2FeHCH4CHCH2CHSH3CH4CHC2HFeCH4C3SCFeCS2HFeS2CFeSCFeS2FeSFeS3CSFeS3H2FeSHNCH3CHCHC7H4C6HCHC7H4C6H6CHNC3HFeCHNC6H11C2H4CHCHNC9H14FeH2CH2CHS2HCH2C3HC2FeHSCHCH10CH2CHSHC3H3C5HNS2HCHCHFeCH2CH2C2H2CH2CNH2C2H
_chemical_formula_sum              "H1152 N64 Fe128 S256 C960"
_cell_length_a       52.0435
_cell_length_b       51.7165
_cell_length_c       40.2713
_cell_angle_alpha    90.1151
_cell_angle_beta     89.9989
_cell_angle_gamma    89.59

_space_group_name_H-M_alt    "P 1"
_space_group_IT_number       1

loop_
  _space_group_symop_operation_xyz
  'x, y, z'

loop_
  _atom_site_type_symbol
  _atom_site_label
  _atom_site_symmetry_multiplicity
  _atom_site_fract_x
  _atom_site_fract_y
  _atom_site_fract_z
  _atom_site_occupancy
  H   H1        1.0  0.14981  0.44636  0.50303  1.0000
  H   H2        1.0  0.22413  0.48633  0.13378  1.0000
  N   N1        1.0  0.28740  0.35137  0.38405  1.0000
  H   H3        1.0  0.03437  0.46550  0.05625  1.0000
  Fe  Fe1       1.0  0.12137  0.01697  0.37414  1.0000
  S   S1        1.0  0.15977  0.03531  0.36045  1.0000
  Fe  Fe2       1.0  0.24833  0.18946  0.22335  1.0000
  S   S2        1.0  0.28762  0.18587  0.24676  1.0000
  S   S3        1.0  0.23683  0.20406  0.17200  1.0000
  Fe  Fe3       1.0  0.22220  0.15874  0.27926  1.0000
  S   S4        1.0  0.25932  0.15294  0.30642  1.0000
  S   S5        1.0  0.18308  0.14611  0.29855  1.0000
  Fe  Fe4       1.0  0.26693  0.19477  0.29503  1.0000
  S   S6        1.0  0.28530  0.21803  0.33690  1.0000
  Fe  Fe5       1.0  0.27684  0.14450  0.25642  1.0000
  S   S7        1.0  0.29988  0.10728  0.25016  1.0000
  S   S8        1.0  0.22851  0.20139  0.27077  1.0000
  S   S9        1.0  0.23892  0.14736  0.23006  1.0000
  C   C1        1.0  0.02471  0.47715  0.03771  1.0000
  S   S10       1.0  0.25513  0.35937  0.04955  1.0000
  H   H4        1.0  0.24841  0.47284  0.08854  1.0000
  Fe  Fe6       1.0  0.24547  0.31949  0.48004  1.0000
  H   H5        1.0  0.02902  0.05683  0.13157  1.0000
  S   S11       1.0  0.23221  0.30227  0.43084  1.0000
  Fe  Fe7       1.0  0.26666  0.31769  0.04213  1.0000
  S   S12       1.0  0.28203  0.29810  0.08880  1.0000
  H   H6        1.0  0.24052  0.41632  0.01229  1.0000
  H   H7        1.0  0.28323  0.32381  0.42371  1.0000
  H   H8        1.0  0.16087  0.46421  0.10172  1.0000
  S   S13       1.0  0.11164  0.49621  0.10325  1.0000
  S   S14       1.0  0.11371  0.48554  0.18252  1.0000
  S   S15       1.0  0.06303  0.46752  0.14192  1.0000
  Fe  Fe8       1.0  0.07143  0.49362  0.18554  1.0000
  S   S16       1.0  0.05745  0.48783  0.23888  1.0000
  Fe  Fe9       1.0  0.10602  0.46223  0.13697  1.0000
  S   S17       1.0  0.13217  0.42700  0.13989  1.0000
  Fe  Fe10      1.0  0.06930  0.50354  0.11120  1.0000
  C   C2        1.0  0.18178  0.50568  0.07481  1.0000
  C   C3        1.0  0.30025  0.42341  0.39295  1.0000
  S   S18       1.0  0.28527  0.32602  0.50059  1.0000
  C   C4        1.0  0.30753  0.08857  0.14106  1.0000
  C   C5        1.0  0.16897  0.38430  0.05223  1.0000
  C   C6        1.0  0.18293  0.38847  0.08140  1.0000
  C   C7        1.0  0.17153  0.40195  0.10798  1.0000
  C   C8        1.0  0.14665  0.41240  0.10496  1.0000
  C   C9        1.0  0.13336  0.40966  0.07506  1.0000
  C   C10       1.0  0.14435  0.39525  0.04897  1.0000
  H   H9        1.0  0.20216  0.38071  0.08387  1.0000
  H   H10       1.0  0.18193  0.40415  0.13106  1.0000
  H   H11       1.0  0.11412  0.41750  0.07262  1.0000
  H   H12       1.0  0.19346  0.42298  0.01137  1.0000
  C   C11       1.0  0.24961  0.23042  0.14947  1.0000
  C   C12       1.0  0.26948  0.24560  0.16201  1.0000
  C   C13       1.0  0.27913  0.26625  0.14306  1.0000
  C   C14       1.0  0.26888  0.27207  0.11160  1.0000
  C   C15       1.0  0.24900  0.25686  0.09904  1.0000
  C   C16       1.0  0.23958  0.23601  0.11781  1.0000
  H   H13       1.0  0.27740  0.24151  0.18630  1.0000
  H   H14       1.0  0.29458  0.27788  0.15289  1.0000
  H   H15       1.0  0.24115  0.26096  0.07474  1.0000
  H   H16       1.0  0.22428  0.22426  0.10787  1.0000
  C   C17       1.0  0.24749  0.27885  0.40526  1.0000
  C   C18       1.0  0.27120  0.26772  0.41349  1.0000
  C   C19       1.0  0.28253  0.24918  0.39223  1.0000
  C   C20       1.0  0.27026  0.24152  0.36270  1.0000
  C   C21       1.0  0.24671  0.25295  0.35432  1.0000
  C   C22       1.0  0.23539  0.27146  0.37554  1.0000
  H   H17       1.0  0.28069  0.27315  0.43632  1.0000
  H   H18       1.0  0.30081  0.24052  0.39884  1.0000
  H   H19       1.0  0.23732  0.24765  0.33136  1.0000
  H   H20       1.0  0.21711  0.28009  0.36889  1.0000
  C   C23       1.0  0.16555  0.06614  0.34286  1.0000
  C   C24       1.0  0.19084  0.07258  0.33390  1.0000
  C   C25       1.0  0.19647  0.09687  0.32001  1.0000
  C   C26       1.0  0.17683  0.11505  0.31514  1.0000
  C   C27       1.0  0.15157  0.10871  0.32432  1.0000
  C   C28       1.0  0.14590  0.08433  0.33800  1.0000
  H   H21       1.0  0.20617  0.05864  0.33756  1.0000
  H   H22       1.0  0.21598  0.10148  0.31303  1.0000
  H   H23       1.0  0.13626  0.12268  0.32067  1.0000
  H   H24       1.0  0.12639  0.07965  0.34486  1.0000
  C   C29       1.0  0.29909  0.37711  0.37918  1.0000
  C   C30       1.0  0.29723  0.11357  0.14292  1.0000
  S   S19       1.0  0.05066  0.03072  0.45877  1.0000
  H   H25       1.0  0.31902  0.32721  0.36764  1.0000
  H   H26       1.0  0.07047  0.05218  0.14842  1.0000
  C   C31       1.0  0.32317  0.44096  0.47496  1.0000
  C   C32       1.0  0.31699  0.41465  0.47848  1.0000
  H   H27       1.0  0.11111  0.49809  0.25753  1.0000
  S   S20       1.0  0.28987  0.40619  0.50262  1.0000
  H   H28       1.0  0.10152  0.05638  0.19362  1.0000
  C   C33       1.0  0.29150  0.34323  0.41890  1.0000
  C   C34       1.0  0.20518  0.43436  0.02816  1.0000
  H   H29       1.0  0.13686  0.50642  0.28494  1.0000
  C   C35       1.0  0.29834  0.33086  0.36221  1.0000
  C   C36       1.0  0.27030  0.16042  0.11850  1.0000
  C   C37       1.0  0.23521  0.23090  0.46699  1.0000
  C   C38       1.0  0.32994  0.08386  0.12310  1.0000
  N   N2        1.0  0.19573  0.48599  0.09477  1.0000
  C   C39       1.0  0.09981  0.45822  0.49620  1.0000
  N   N3        1.0  0.29767  0.16095  0.12895  1.0000
  C   C40       1.0  0.32678  0.10216  0.22407  1.0000
  H   H30       1.0  0.10841  0.45469  0.47130  1.0000
  H   H31       1.0  0.28825  0.15700  0.18098  1.0000
  H   H32       1.0  0.34277  0.14404  0.09600  1.0000
  H   H33       1.0  0.29290  0.43965  0.40724  1.0000
  H   H34       1.0  0.31055  0.17500  0.08142  1.0000
  C   C41       1.0  0.12687  0.51226  0.26169  1.0000
  H   H35       1.0  0.29863  0.07294  0.15468  1.0000
  C   C42       1.0  0.23552  0.46269  0.07219  1.0000
  H   H36       1.0  0.16600  0.49713  0.05987  1.0000
  H   H37       1.0  0.10220  0.02492  0.23982  1.0000
  H   H38       1.0  0.31932  0.17026  0.17275  1.0000
  H   H39       1.0  0.13349  0.39214  0.02641  1.0000
  H   H40       1.0  0.17349  0.25636  0.11331  1.0000
  C   C43       1.0  0.25934  0.35278  0.37742  1.0000
  C   C44       1.0  0.28921  0.39902  0.39643  1.0000
  H   H41       1.0  0.28237  0.35682  0.43690  1.0000
  H   H42       1.0  0.24875  0.36409  0.39661  1.0000
  H   H43       1.0  0.25036  0.33329  0.37755  1.0000
  C   C45       1.0  0.18683  0.24997  0.16213  1.0000
  C   C46       1.0  0.07015  0.03790  0.16794  1.0000
  H   H44       1.0  0.03665  0.48285  0.48053  1.0000
  C   C47       1.0  0.24679  0.44459  0.05063  1.0000
  H   H45       1.0  0.25536  0.36162  0.35277  1.0000
  C   C48       1.0  0.17537  0.29573  0.07560  1.0000
  H   H46       1.0  0.17295  0.45399  0.04887  1.0000
  C   C49       1.0  0.21379  0.49992  0.11697  1.0000
  C   C50       1.0  0.32095  0.38111  0.35865  1.0000
  H   H47       1.0  0.01183  0.04801  0.01798  1.0000
  C   C51       1.0  0.33503  0.07668  0.21784  1.0000
  H   H48       1.0  0.33115  0.18331  0.11616  1.0000
  C   C52       1.0  0.30898  0.13465  0.12641  1.0000
  C   C53       1.0  0.23167  0.43047  0.02871  1.0000
  H   H49       1.0  0.26713  0.20466  0.47139  1.0000
  H   H50       1.0  0.27339  0.39730  0.41369  1.0000
  S   S21       1.0  0.23304  0.36093  0.48704  1.0000
  H   H51       1.0  0.14667  0.31965  0.12390  1.0000
  Fe  Fe11      1.0  0.22194  0.35018  0.01647  1.0000
  H   H52       1.0  0.22447  0.30890  0.09265  1.0000
  H   H53       1.0  0.07865  0.45588  0.49407  1.0000
  H   H54       1.0  0.28033  0.11636  0.15819  1.0000
  N   N4        1.0  0.20879  0.18171  0.38727  1.0000
  C   C54       1.0  0.22331  0.15702  0.38344  1.0000
  C   C55       1.0  0.18127  0.17498  0.39143  1.0000
  C   C56       1.0  0.21175  0.19653  0.35612  1.0000
  C   C57       1.0  0.21776  0.19785  0.41536  1.0000
  C   C58       1.0  0.20411  0.22070  0.42437  1.0000
  C   C59       1.0  0.24080  0.19246  0.43314  1.0000
  C   C60       1.0  0.21268  0.23681  0.44992  1.0000
  C   C61       1.0  0.24926  0.20881  0.45859  1.0000
  S   S22       1.0  0.18069  0.36403  0.02032  1.0000
  H   H55       1.0  0.22217  0.14504  0.40630  1.0000
  H   H56       1.0  0.21560  0.14509  0.36261  1.0000
  H   H57       1.0  0.24385  0.16041  0.37724  1.0000
  H   H58       1.0  0.17788  0.16551  0.41582  1.0000
  H   H59       1.0  0.17463  0.16142  0.37163  1.0000
  H   H60       1.0  0.16834  0.19208  0.38959  1.0000
  H   H61       1.0  0.23234  0.20067  0.35117  1.0000
  H   H62       1.0  0.20427  0.18568  0.33443  1.0000
  H   H63       1.0  0.20128  0.21532  0.35675  1.0000
  H   H64       1.0  0.18712  0.22678  0.41103  1.0000
  H   H65       1.0  0.25296  0.17606  0.42745  1.0000
  H   H66       1.0  0.17303  0.30920  0.05413  1.0000
  H   H67       1.0  0.29085  0.18962  0.16698  1.0000
  C   C62       1.0  0.31088  0.18051  0.10815  1.0000
  H   H68       1.0  0.20235  0.25456  0.45572  1.0000
  C   C63       1.0  0.29908  0.16982  0.16389  1.0000
  C   C64       1.0  0.02814  0.49804  0.25743  1.0000
  H   H69       1.0  0.16793  0.48575  0.13476  1.0000
  H   H70       1.0  0.26191  0.18022  0.11657  1.0000
  H   H71       1.0  0.18616  0.45630  0.13009  1.0000
  C   C65       1.0  0.05196  0.01754  0.16772  1.0000
  C   C66       1.0  0.17697  0.47250  0.11621  1.0000
  H   H72       1.0  0.18945  0.28059  0.06772  1.0000
  C   C67       1.0  0.19848  0.26011  0.19037  1.0000
  H   H73       1.0  0.25789  0.15013  0.13661  1.0000
  H   H74       1.0  0.15622  0.28679  0.07945  1.0000
  C   C68       1.0  0.18208  0.26567  0.13453  1.0000
  C   C69       1.0  0.20846  0.46705  0.07237  1.0000
  H   H75       1.0  0.29608  0.33589  0.33550  1.0000
  H   H76       1.0  0.26742  0.44125  0.05087  1.0000
  C   C70       1.0  0.33223  0.39607  0.46251  1.0000
  H   H77       1.0  0.17119  0.34245  0.13461  1.0000
  C   C71       1.0  0.02118  0.49122  0.49495  1.0000
  H   H78       1.0  0.30146  0.19992  0.11020  1.0000
  H   H79       1.0  0.18234  0.22952  0.16131  1.0000
  C   C72       1.0  0.16452  0.32904  0.11483  1.0000
  H   H80       1.0  0.32792  0.37579  0.46543  1.0000
  H   H81       1.0  0.20513  0.32227  0.16637  1.0000
  C   C73       1.0  0.12616  0.37003  0.50071  1.0000
  C   C74       1.0  0.19999  0.30214  0.16420  1.0000
  H   H82       1.0  0.03516  0.02887  0.29811  1.0000
  S   S23       1.0  0.07963  0.02871  0.36960  1.0000
  H   H83       1.0  0.32446  0.06071  0.22832  1.0000
  H   H84       1.0  0.26812  0.15093  0.09386  1.0000
  H   H85       1.0  0.20290  0.24754  0.21117  1.0000
  H   H86       1.0  0.15905  0.34124  0.09316  1.0000
  C   C75       1.0  0.18891  0.29226  0.13459  1.0000
  H   H87       1.0  0.28858  0.31193  0.36598  1.0000
  C   C76       1.0  0.08807  0.04045  0.19364  1.0000
  H   H88       1.0  0.31234  0.34229  0.42504  1.0000
  C   C77       1.0  0.32159  0.42669  0.37258  1.0000
  H   H89       1.0  0.20613  0.33448  0.07374  1.0000
  H   H90       1.0  0.21491  0.33685  0.11609  1.0000
  N   N5        1.0  0.18435  0.30951  0.10584  1.0000
  C   C78       1.0  0.19366  0.45222  0.04974  1.0000
  C   C79       1.0  0.20493  0.28617  0.19149  1.0000
  C   C80       1.0  0.01743  0.03981  0.13882  1.0000
  C   C81       1.0  0.20847  0.32296  0.09683  1.0000
  H   H91       1.0  0.21407  0.29394  0.21349  1.0000
  C   C82       1.0  0.02703  0.50409  0.03854  1.0000
  H   H92       1.0  0.33023  0.36559  0.34518  1.0000
  H   H93       1.0  0.03225  0.47164  0.29850  1.0000
  C   C83       1.0  0.02351  0.01743  0.28147  1.0000
  H   H94       1.0  0.10253  0.47897  0.50277  1.0000
  H   H95       1.0  0.02416  0.01968  0.39405  1.0000
  H   H96       1.0  0.31150  0.45545  0.48734  1.0000
  H   H97       1.0  0.24213  0.24389  0.48612  1.0000
  C   C84       1.0  0.02065  0.48693  0.28778  1.0000
  C   C85       1.0  0.33199  0.12923  0.10853  1.0000
  C   C86       1.0  0.33197  0.40559  0.35560  1.0000
  S   S24       1.0  0.23146  0.30780  0.01226  1.0000
  N   N6        1.0  0.03289  0.01560  0.14050  1.0000
  H   H98       1.0  0.22798  0.51131  0.10253  1.0000
  C   C87       1.0  0.08855  0.02275  0.21966  1.0000
  H   H99       1.0  0.05874  0.02834  0.10185  1.0000
  C   C88       1.0  0.02899  0.01493  0.48577  1.0000
  H   H100      1.0  0.33077  0.44541  0.37101  1.0000
  H   H101      1.0  0.33490  0.14235  0.21615  1.0000
  C   C89       1.0  0.34068  0.12270  0.21069  1.0000
  H   H102      1.0  0.14025  0.50973  0.24032  1.0000
  C   C90       1.0  0.08382  0.40333  0.50437  1.0000
  H   H103      1.0  0.33844  0.06465  0.12273  1.0000
  H   H104      1.0  0.09910  0.34059  0.48732  1.0000
  H   H105      1.0  0.14259  0.35695  0.50001  1.0000
  C   C91       1.0  0.10168  0.36077  0.49376  1.0000
  C   C92       1.0  0.34222  0.10416  0.10707  1.0000
  H   H106      1.0  0.06146  0.37007  0.49050  1.0000
  C   C93       1.0  0.08054  0.37739  0.49556  1.0000
  H   H107      1.0  0.20802  0.05000  0.76235  1.0000
  H   H108      1.0  0.33162  0.37097  0.96275  1.0000
  C   C94       1.0  0.01834  0.01735  0.78185  1.0000
  S   S25       1.0  0.29160  0.32597  0.99723  1.0000
  N   N7        1.0  0.02293  0.02518  0.63107  1.0000
  S   S26       1.0  0.15347  0.03769  0.87242  1.0000
  Fe  Fe12      1.0  0.24556  0.18630  0.72640  1.0000
  S   S27       1.0  0.28471  0.17660  0.74714  1.0000
  S   S28       1.0  0.23433  0.20645  0.67819  1.0000
  Fe  Fe13      1.0  0.21753  0.15302  0.77851  1.0000
  S   S29       1.0  0.25442  0.14070  0.80251  1.0000
  S   S30       1.0  0.17727  0.14221  0.79531  1.0000
  Fe  Fe14      1.0  0.26572  0.18250  0.79728  1.0000
  S   S31       1.0  0.28478  0.19992  0.84290  1.0000
  Fe  Fe15      1.0  0.27006  0.13586  0.75078  1.0000
  S   S32       1.0  0.28772  0.09789  0.73329  1.0000
  S   S33       1.0  0.22771  0.19523  0.77615  1.0000
  S   S34       1.0  0.23203  0.14512  0.72720  1.0000
  Fe  Fe16      1.0  0.21940  0.34900  0.53741  1.0000
  S   S35       1.0  0.25690  0.35752  0.56210  1.0000
  S   S36       1.0  0.18023  0.35936  0.55875  1.0000
  Fe  Fe17      1.0  0.25523  0.31905  0.96781  1.0000
  C   C95       1.0  0.05603  0.04530  0.59376  1.0000
  S   S37       1.0  0.24735  0.30298  0.91608  1.0000
  Fe  Fe18      1.0  0.26721  0.31621  0.55014  1.0000
  S   S38       1.0  0.28775  0.29295  0.59015  1.0000
  H   H109      1.0  0.11726  0.07637  0.74582  1.0000
  C   C96       1.0  0.30582  0.44004  0.88500  1.0000
  S   S39       1.0  0.05743  0.49666  0.54405  1.0000
  S   S40       1.0  0.24315  0.36088  0.97033  1.0000
  H   H110      1.0  0.17565  0.35109  0.66975  1.0000
  S   S41       1.0  0.07752  0.46843  0.63099  1.0000
  H   H111      1.0  0.31577  0.16538  0.68469  1.0000
  S   S42       1.0  0.04058  0.47768  0.71335  1.0000
  Fe  Fe19      1.0  0.11729  0.48401  0.63804  1.0000
  S   S43       1.0  0.15700  0.46554  0.63316  1.0000
  C   C97       1.0  0.07514  0.02200  0.54768  1.0000
  C   C98       1.0  0.02331  0.49508  0.74423  1.0000
  C   C99       1.0  0.31285  0.48409  0.90455  1.0000
  H   H112      1.0  0.01450  0.06624  0.62671  1.0000
  H   H113      1.0  0.32290  0.37568  0.88343  1.0000
  C   C100      1.0  0.17433  0.38877  0.57994  1.0000
  C   C101      1.0  0.19314  0.40782  0.58261  1.0000
  C   C102      1.0  0.18765  0.43110  0.59942  1.0000
  C   C103      1.0  0.16327  0.43565  0.61334  1.0000
  C   C104      1.0  0.14463  0.41640  0.61121  1.0000
  C   C105      1.0  0.15011  0.39310  0.59440  1.0000
  H   H114      1.0  0.21188  0.40469  0.57158  1.0000
  H   H115      1.0  0.20228  0.44580  0.60124  1.0000
  H   H116      1.0  0.12605  0.41942  0.62272  1.0000
  H   H117      1.0  0.13549  0.37838  0.59259  1.0000
  C   C106      1.0  0.24991  0.23036  0.65430  1.0000
  C   C107      1.0  0.27353  0.24093  0.66350  1.0000
  C   C108      1.0  0.28506  0.25986  0.64337  1.0000
  C   C109      1.0  0.27300  0.26856  0.61416  1.0000
  C   C110      1.0  0.24946  0.25786  0.60492  1.0000
  C   C111      1.0  0.23803  0.23883  0.62488  1.0000
  H   H118      1.0  0.28278  0.23479  0.68624  1.0000
  H   H119      1.0  0.30327  0.26810  0.65070  1.0000
  H   H120      1.0  0.24008  0.26421  0.58238  1.0000
  H   H121      1.0  0.21979  0.23068  0.61754  1.0000
  C   C112      1.0  0.25797  0.27401  0.89667  1.0000
  C   C113      1.0  0.24737  0.26725  0.86575  1.0000
  C   C114      1.0  0.25513  0.24449  0.84920  1.0000
  C   C115      1.0  0.27383  0.22836  0.86331  1.0000
  C   C116      1.0  0.28434  0.23503  0.89433  1.0000
  C   C117      1.0  0.27638  0.25770  0.91105  1.0000
  H   H122      1.0  0.23311  0.27977  0.85449  1.0000
  H   H123      1.0  0.24702  0.23969  0.82528  1.0000
  H   H124      1.0  0.29884  0.22268  0.90538  1.0000
  H   H125      1.0  0.28470  0.26270  0.93479  1.0000
  C   C118      1.0  0.15945  0.06719  0.85160  1.0000
  C   C119      1.0  0.13969  0.08433  0.84278  1.0000
  C   C120      1.0  0.14546  0.10736  0.82576  1.0000
  C   C121      1.0  0.17095  0.11345  0.81751  1.0000
  C   C122      1.0  0.19072  0.09653  0.82683  1.0000
  C   C123      1.0  0.18496  0.07352  0.84377  1.0000
  H   H126      1.0  0.12003  0.07996  0.84923  1.0000
  H   H127      1.0  0.13007  0.12043  0.81878  1.0000
  H   H128      1.0  0.21041  0.10096  0.82059  1.0000
  H   H129      1.0  0.20036  0.06040  0.85060  1.0000
  H   H130      1.0  0.23036  0.25358  0.97488  1.0000
  C   C124      1.0  0.06390  0.48170  0.96764  1.0000
  C   C125      1.0  0.01907  0.01484  0.98676  1.0000
  H   H131      1.0  0.30047  0.10287  0.64162  1.0000
  H   H132      1.0  0.32566  0.45185  0.98592  1.0000
  H   H133      1.0  0.05471  0.06322  0.60747  1.0000
  H   H134      1.0  0.06167  0.49666  0.85621  1.0000
  H   H135      1.0  0.27999  0.37136  0.90890  1.0000
  C   C126      1.0  0.33873  0.39050  0.96049  1.0000
  S   S44       1.0  0.29814  0.40563  0.00082  1.0000
  C   C127      1.0  0.31891  0.09324  0.71679  1.0000
  C   C128      1.0  0.18807  0.05520  0.75801  1.0000
  C   C129      1.0  0.31111  0.39279  0.88743  1.0000
  N   N8        1.0  0.19593  0.18947  0.87883  1.0000
  C   C130      1.0  0.18047  0.16826  0.89318  1.0000
  C   C131      1.0  0.18008  0.20239  0.85294  1.0000
  C   C132      1.0  0.21862  0.17801  0.86194  1.0000
  C   C133      1.0  0.20446  0.20719  0.90554  1.0000
  C   C134      1.0  0.19708  0.23372  0.90691  1.0000
  C   C135      1.0  0.22088  0.19806  0.93122  1.0000
  C   C136      1.0  0.20603  0.24999  0.93209  1.0000
  Fe  Fe20      1.0  0.11506  0.01845  0.88251  1.0000
  N   N9        1.0  0.11132  0.44084  0.52155  1.0000
  H   H136      1.0  0.16357  0.17603  0.90697  1.0000
  H   H137      1.0  0.17319  0.15496  0.87347  1.0000
  H   H138      1.0  0.19183  0.15605  0.91057  1.0000
  H   H139      1.0  0.17435  0.18868  0.83293  1.0000
  H   H140      1.0  0.19094  0.21813  0.84048  1.0000
  H   H141      1.0  0.16192  0.21041  0.86341  1.0000
  H   H142      1.0  0.23091  0.16621  0.87865  1.0000
  H   H143      1.0  0.21284  0.16493  0.84136  1.0000
  H   H144      1.0  0.23098  0.19334  0.85132  1.0000
  H   H145      1.0  0.18497  0.24266  0.88840  1.0000
  H   H146      1.0  0.22728  0.17815  0.93187  1.0000
  C   C137      1.0  0.31637  0.11286  0.63030  1.0000
  N   N10       1.0  0.12096  0.02612  0.76770  1.0000
  C   C138      1.0  0.23391  0.30304  0.74701  1.0000
  C   C139      1.0  0.32060  0.41720  0.87924  1.0000
  C   C140      1.0  0.32578  0.41086  0.97627  1.0000
  H   H147      1.0  0.33755  0.01629  0.95009  1.0000
  H   H148      1.0  0.08732  0.02167  0.52580  1.0000
  H   H149      1.0  0.20505  0.35530  0.71254  1.0000
  C   C141      1.0  0.01312  0.02978  0.50685  1.0000
  H   H150      1.0  0.10408  0.43072  0.57242  1.0000
  C   C142      1.0  0.16856  0.03753  0.76499  1.0000
  C   C143      1.0  0.03736  0.02930  0.66235  1.0000
  C   C144      1.0  0.28697  0.39032  0.90192  1.0000
  C   C145      1.0  0.18203  0.07990  0.74662  1.0000
  H   H151      1.0  0.33981  0.41759  0.86908  1.0000
  C   C146      1.0  0.13845  0.44884  0.52624  1.0000
  H   H152      1.0  0.28083  0.13250  0.67691  1.0000
  C   C147      1.0  0.33962  0.15093  0.61288  1.0000
  H   H153      1.0  0.01452  0.05064  0.50653  1.0000
  C   C148      1.0  0.10436  0.02287  0.73803  1.0000
  S   S45       1.0  0.10663  0.50781  0.68293  1.0000
  H   H154      1.0  0.21687  0.37273  0.66297  1.0000
  H   H155      1.0  0.02551  0.02853  0.80255  1.0000
  Fe  Fe21      1.0  0.27746  0.36702  0.00283  1.0000
  H   H156      1.0  0.06091  0.46443  0.98236  1.0000
  H   H157      1.0  0.02290  0.47618  0.87924  1.0000
  C   C149      1.0  0.21655  0.31508  0.62284  1.0000
  H   H158      1.0  0.21732  0.36534  0.61987  1.0000
  H   H159      1.0  0.24396  0.35568  0.64548  1.0000
  H   H160      1.0  0.20985  0.32330  0.59880  1.0000
  H   H161      1.0  0.23770  0.31220  0.62040  1.0000
  H   H162      1.0  0.20716  0.29590  0.62523  1.0000
  H   H163      1.0  0.23507  0.28514  0.66656  1.0000
  H   H164      1.0  0.08849  0.02400  0.80072  1.0000
  C   C150      1.0  0.04919  0.48594  0.93908  1.0000
  H   H165      1.0  0.26859  0.45309  0.90398  1.0000
  C   C151      1.0  0.14220  0.04418  0.76036  1.0000
  C   C152      1.0  0.13678  0.06960  0.74888  1.0000
  C   C153      1.0  0.15645  0.08712  0.74217  1.0000
  C   C154      1.0  0.04108  0.02354  0.60278  1.0000
  H   H166      1.0  0.14791  0.43763  0.54637  1.0000
  C   C155      1.0  0.22263  0.24054  0.95636  1.0000
  C   C156      1.0  0.22996  0.21460  0.95604  1.0000
  H   H167      1.0  0.18947  0.50349  0.67909  1.0000
  H   H168      1.0  0.32139  0.50334  0.89898  1.0000
  C   C157      1.0  0.05198  0.50888  0.92000  1.0000
  H   H169      1.0  0.15192  0.10676  0.73462  1.0000
  H   H170      1.0  0.20101  0.27041  0.93198  1.0000
  H   H171      1.0  0.24751  0.26943  0.72066  1.0000
  C   C158      1.0  0.28108  0.43675  0.89926  1.0000
  Fe  Fe22      1.0  0.06594  0.49515  0.67311  1.0000
  C   C159      1.0  0.34203  0.46648  0.86446  1.0000
  H   H172      1.0  0.32318  0.47617  0.92645  1.0000
  C   C160      1.0  0.10853  0.41348  0.51131  1.0000
  C   C161      1.0  0.27444  0.14334  0.65446  1.0000
  H   H173      1.0  0.27870  0.15923  0.59055  1.0000
  H   H174      1.0  0.09701  0.05615  0.78951  1.0000
  C   C162      1.0  0.23095  0.29759  0.68740  1.0000
  H   H175      1.0  0.29041  0.18791  0.67484  1.0000
  C   C163      1.0  0.32585  0.06863  0.70478  1.0000
  S   S46       1.0  0.22854  0.30689  0.52879  1.0000
  H   H176      1.0  0.26898  0.18482  0.61829  1.0000
  H   H177      1.0  0.29269  0.48797  0.91207  1.0000
  C   C164      1.0  0.22197  0.32715  0.74437  1.0000
  Fe  Fe23      1.0  0.27162  0.36677  0.51085  1.0000
  C   C165      1.0  0.33539  0.43608  0.97336  1.0000
  C   C166      1.0  0.31717  0.14027  0.62734  1.0000
  H   H178      1.0  0.32017  0.18965  0.65341  1.0000
  H   H179      1.0  0.19718  0.09381  0.74234  1.0000
  N   N11       1.0  0.29610  0.15745  0.63892  1.0000
  H   H180      1.0  0.17191  0.31782  0.65771  1.0000
  H   H181      1.0  0.25333  0.41021  0.91949  1.0000
  H   H182      1.0  0.17459  0.34272  0.62691  1.0000
  H   H183      1.0  0.29994  0.18561  0.59950  1.0000
  C   C167      1.0  0.01502  0.49571  0.88515  1.0000
  H   H184      1.0  0.21855  0.33856  0.76659  1.0000
  C   C168      1.0  0.22262  0.35761  0.64477  1.0000
  H   H185      1.0  0.02415  0.03046  0.68416  1.0000
  C   C169      1.0  0.09770  0.44491  0.55346  1.0000
  H   H186      1.0  0.23977  0.29574  0.77112  1.0000
  H   H187      1.0  0.03525  0.47124  0.93317  1.0000
  H   H188      1.0  0.34160  0.17157  0.60980  1.0000
  C   C170      1.0  0.28554  0.17238  0.61053  1.0000
  C   C171      1.0  0.10508  0.03672  0.79512  1.0000
  N   N12       1.0  0.21018  0.33237  0.65123  1.0000
  N   N13       1.0  0.31488  0.46617  0.87578  1.0000
  C   C172      1.0  0.21439  0.33658  0.71329  1.0000
  H   H189      1.0  0.33175  0.13221  0.72475  1.0000
  H   H190      1.0  0.09220  0.49699  0.00103  1.0000
  H   H191      1.0  0.30534  0.49599  0.84040  1.0000
  H   H192      1.0  0.08312  0.06164  0.55917  1.0000
  C   C173      1.0  0.27200  0.41226  0.90786  1.0000
  C   C174      1.0  0.30611  0.17586  0.66398  1.0000
  H   H193      1.0  0.31214  0.05302  0.70596  1.0000
  C   C175      1.0  0.21870  0.32210  0.68378  1.0000
  H   H194      1.0  0.29970  0.46346  0.82630  1.0000
  H   H195      1.0  0.13987  0.46952  0.53381  1.0000
  Fe  Fe24      1.0  0.07014  0.50281  0.59794  1.0000
  C   C176      1.0  0.07256  0.04455  0.56637  1.0000
  H   H196      1.0  0.20446  0.49796  0.62213  1.0000
  S   S47       1.0  0.07447  0.03117  0.87155  1.0000
  C   C177      1.0  0.18189  0.33616  0.65152  1.0000
  H   H197      1.0  0.09436  0.04109  0.73101  1.0000
  C   C178      1.0  0.23832  0.28828  0.71859  1.0000
  H   H198      1.0  0.26536  0.12962  0.63679  1.0000
  H   H199      1.0  0.25889  0.15679  0.66277  1.0000
  H   H200      1.0  0.11662  0.03849  0.81823  1.0000
  H   H201      1.0  0.07651  0.44295  0.55098  1.0000
  H   H202      1.0  0.10108  0.46462  0.56361  1.0000
  H   H203      1.0  0.04841  0.04758  0.66202  1.0000
  C   C179      1.0  0.33688  0.09734  0.61957  1.0000
  H   H204      1.0  0.11583  0.01611  0.71631  1.0000
  C   C180      1.0  0.33676  0.11329  0.71519  1.0000
  H   H205      1.0  0.17466  0.01904  0.77464  1.0000
  S   S48       1.0  0.03969  0.03192  0.95979  1.0000
  H   H206      1.0  0.33616  0.07653  0.62273  1.0000
  C   C181      1.0  0.29880  0.47644  0.84837  1.0000
  C   C182      1.0  0.02584  0.49936  0.52777  1.0000
  H   H207      1.0  0.14918  0.40157  0.51485  1.0000
  C   C183      1.0  0.08163  0.49999  0.97813  1.0000
  C   C184      1.0  0.12969  0.39597  0.50930  1.0000
  H   H208      1.0  0.27827  0.47839  0.85566  1.0000
  H   H209      1.0  0.24321  0.20744  0.97468  1.0000
  H   H210      1.0  0.06677  0.41534  0.50626  1.0000
  Fe  Fe25      1.0  0.21868  0.65929  0.24017  1.0000
  S   S49       1.0  0.25510  0.64932  0.21329  1.0000
  S   S50       1.0  0.17840  0.64906  0.22289  1.0000
  Fe  Fe26      1.0  0.24744  0.68877  0.29490  1.0000
  S   S51       1.0  0.28630  0.68066  0.27210  1.0000
  S   S52       1.0  0.23791  0.70555  0.34579  1.0000
  Fe  Fe27      1.0  0.26644  0.69049  0.22353  1.0000
  S   S53       1.0  0.28577  0.71222  0.18126  1.0000
  Fe  Fe28      1.0  0.27166  0.64029  0.26358  1.0000
  S   S54       1.0  0.29027  0.60067  0.27015  1.0000
  S   S55       1.0  0.22869  0.70126  0.24706  1.0000
  S   S56       1.0  0.23424  0.64759  0.28973  1.0000
  C   C185      1.0  0.33155  0.96052  0.01367  1.0000
  S   S57       1.0  0.27963  0.85873  0.48610  1.0000
  H   H211      1.0  0.27209  0.85672  0.14437  1.0000
  Fe  Fe29      1.0  0.25014  0.81939  0.04831  1.0000
  C   C186      1.0  0.01786  0.55971  0.48737  1.0000
  S   S58       1.0  0.23320  0.80109  0.09467  1.0000
  H   H212      1.0  0.01285  0.95509  0.25892  1.0000
  H   H213      1.0  0.26634  0.65472  0.35845  1.0000
  Fe  Fe30      1.0  0.27316  0.81711  0.47115  1.0000
  S   S59       1.0  0.28533  0.80338  0.41971  1.0000
  S   S60       1.0  0.25873  0.86196  0.05169  1.0000
  H   H214      1.0  0.11058  0.59135  0.27513  1.0000
  H   H215      1.0  0.20261  0.56636  0.27505  1.0000
  S   S61       1.0  0.04799  0.97383  0.30729  1.0000
  Fe  Fe31      1.0  0.10872  0.96321  0.40181  1.0000
  S   S62       1.0  0.12683  0.92349  0.41060  1.0000
  S   S63       1.0  0.06599  0.97048  0.39973  1.0000
  H   H216      1.0  0.28870  0.93477  0.03893  1.0000
  C   C187      1.0  0.01301  0.51778  0.24381  1.0000
  S   S64       1.0  0.15561  0.54010  0.15586  1.0000
  H   H217      1.0  0.20132  0.93486  0.34560  1.0000
  C   C188      1.0  0.20990  0.74445  0.05603  1.0000
  S   S65       1.0  0.07540  0.53009  0.15540  1.0000
  H   H218      1.0  0.02469  0.97486  0.14517  1.0000
  C   C189      1.0  0.30572  0.83057  0.10721  1.0000
  H   H219      1.0  0.09576  0.56513  0.23146  1.0000
  H   H220      1.0  0.08606  0.55820  0.29093  1.0000
  C   C190      1.0  0.24850  0.92885  0.45791  1.0000
  H   H221      1.0  0.02019  0.93433  0.10103  1.0000
  H   H222      1.0  0.08262  0.52427  0.28707  1.0000
  C   C191      1.0  0.21615  0.95142  0.40895  1.0000
  C   C192      1.0  0.31600  0.62766  0.40226  1.0000
  H   H223      1.0  0.28053  0.84141  0.18356  1.0000
  S   S66       1.0  0.33574  0.86574  0.03990  1.0000
  C   C193      1.0  0.18942  0.89886  0.48505  1.0000
  H   H224      1.0  0.24823  0.72897  0.05705  1.0000
  C   C194      1.0  0.15625  0.92976  0.46761  1.0000
  C   C195      1.0  0.15094  0.91468  0.43962  1.0000
  C   C196      1.0  0.16488  0.89161  0.43456  1.0000
  C   C197      1.0  0.18416  0.88379  0.45703  1.0000
  C   C198      1.0  0.10420  0.54534  0.23188  1.0000
  H   H225      1.0  0.14543  0.94737  0.47205  1.0000
  H   H226      1.0  0.16077  0.87974  0.41307  1.0000
  H   H227      1.0  0.19479  0.86603  0.45279  1.0000
  H   H228      1.0  0.31290  0.93903  0.11268  1.0000
  H   H229      1.0  0.11442  0.93069  0.00930  1.0000
  Fe  Fe32      1.0  0.07284  0.98859  0.34976  1.0000
  H   H230      1.0  0.30343  0.89845  0.08209  1.0000
  C   C199      1.0  0.34290  0.56153  0.32543  1.0000
  C   C200      1.0  0.17223  0.61876  0.20421  1.0000
  C   C201      1.0  0.19204  0.60105  0.19789  1.0000
  C   C202      1.0  0.18654  0.57705  0.18313  1.0000
  C   C203      1.0  0.16121  0.57047  0.17474  1.0000
  C   C204      1.0  0.14137  0.58822  0.18093  1.0000
  C   C205      1.0  0.14690  0.61230  0.19558  1.0000
  H   H231      1.0  0.21161  0.60578  0.20452  1.0000
  H   H232      1.0  0.20202  0.56348  0.17835  1.0000
  H   H233      1.0  0.12186  0.58357  0.17402  1.0000
  H   H234      1.0  0.13149  0.62596  0.20034  1.0000
  C   C206      1.0  0.31629  0.59381  0.29698  1.0000
  H   H235      1.0  0.03273  0.53213  0.36534  1.0000
  H   H236      1.0  0.32901  0.67183  0.43899  1.0000
  H   H237      1.0  0.09775  0.90957  0.11949  1.0000
  C   C207      1.0  0.21305  0.98277  0.36437  1.0000
  C   C208      1.0  0.25092  0.73333  0.36521  1.0000
  C   C209      1.0  0.27046  0.74782  0.35060  1.0000
  C   C210      1.0  0.28082  0.76921  0.36761  1.0000
  C   C211      1.0  0.27177  0.77629  0.39930  1.0000
  C   C212      1.0  0.25235  0.76167  0.41396  1.0000
  C   C213      1.0  0.24198  0.74033  0.39695  1.0000
  H   H238      1.0  0.27752  0.74264  0.32619  1.0000
  H   H239      1.0  0.29583  0.78045  0.35609  1.0000
  H   H240      1.0  0.24523  0.76689  0.43832  1.0000
  H   H241      1.0  0.22690  0.72919  0.40848  1.0000
  C   C214      1.0  0.27105  0.73716  0.15773  1.0000
  C   C215      1.0  0.24820  0.74909  0.16794  1.0000
  C   C216      1.0  0.23683  0.76857  0.14830  1.0000
  C   C217      1.0  0.24831  0.77649  0.11845  1.0000
  C   C218      1.0  0.27139  0.76481  0.10846  1.0000
  C   C219      1.0  0.28268  0.74525  0.12804  1.0000
  H   H242      1.0  0.23945  0.74347  0.19115  1.0000
  H   H243      1.0  0.21907  0.77762  0.15633  1.0000
  H   H244      1.0  0.28033  0.77049  0.08540  1.0000
  H   H245      1.0  0.30040  0.73613  0.11998  1.0000
  H   H246      1.0  0.16296  0.98484  0.38436  1.0000
  C   C220      1.0  0.04027  0.93344  0.09364  1.0000
  C   C221      1.0  0.32255  0.90644  0.08141  1.0000
  H   H247      1.0  0.24094  0.70116  0.10426  1.0000
  N   N14       1.0  0.19457  0.69506  0.14007  1.0000
  C   C222      1.0  0.21733  0.68047  0.15232  1.0000
  C   C223      1.0  0.18471  0.71097  0.16812  1.0000
  H   H248      1.0  0.17313  0.95469  0.34370  1.0000
  C   C224      1.0  0.20023  0.71179  0.11120  1.0000
  C   C225      1.0  0.22473  0.71236  0.09549  1.0000
  C   C226      1.0  0.18079  0.72807  0.09772  1.0000
  C   C227      1.0  0.22927  0.72835  0.06817  1.0000
  C   C228      1.0  0.18570  0.74428  0.07074  1.0000
  Fe  Fe33      1.0  0.11726  0.51982  0.14950  1.0000
  H   H249      1.0  0.23286  0.69371  0.16067  1.0000
  C   C229      1.0  0.32995  0.68030  0.41363  1.0000
  H   H250      1.0  0.12140  0.96075  0.03076  1.0000
  H   H251      1.0  0.19826  0.72678  0.17432  1.0000
  H   H252      1.0  0.18201  0.69922  0.19103  1.0000
  H   H253      1.0  0.16573  0.71995  0.16277  1.0000
  H   H254      1.0  0.18124  0.66377  0.10947  1.0000
  S   S67       1.0  0.11734  0.00130  0.42617  1.0000
  H   H255      1.0  0.16169  0.72861  0.10821  1.0000
  H   H256      1.0  0.32325  0.68002  0.34649  1.0000
  C   C230      1.0  0.01441  0.51891  0.01425  1.0000
  C   C231      1.0  0.09718  0.53981  0.29054  1.0000
  S   S68       1.0  0.28848  0.80859  0.02666  1.0000
  H   H257      1.0  0.03009  0.56716  0.36245  1.0000
  H   H258      1.0  0.25835  0.60933  0.34614  1.0000
  C   C232      1.0  0.33504  0.89914  0.17385  1.0000
  H   H259      1.0  0.33124  0.94544  0.03203  1.0000
  H   H260      1.0  0.24194  0.89291  0.43277  1.0000
  H   H261      1.0  0.32558  0.63347  0.30728  1.0000
  C   C233      1.0  0.04786  0.94422  0.06345  1.0000
  C   C234      1.0  0.17758  0.97739  0.40199  1.0000
  C   C235      1.0  0.32797  0.92942  0.09874  1.0000
  H   H262      1.0  0.03933  0.97634  0.47058  1.0000
  H   H263      1.0  0.10619  0.53706  0.31535  1.0000
  H   H264      1.0  0.33353  0.70137  0.41707  1.0000
  H   H265      1.0  0.03308  0.95336  0.04867  1.0000
  S   S69       1.0  0.04506  0.52046  0.06933  1.0000
  N   N15       1.0  0.19870  0.96367  0.38444  1.0000
  C   C236      1.0  0.01919  0.54888  0.36534  1.0000
  C   C237      1.0  0.18671  0.94496  0.36115  1.0000
  C   C238      1.0  0.34188  0.89403  0.06315  1.0000
  C   C239      1.0  0.22216  0.92454  0.40866  1.0000
  H   H266      1.0  0.18419  0.99453  0.41617  1.0000
  N   N16       1.0  0.30750  0.83475  0.14357  1.0000
  H   H267      1.0  0.21386  0.75754  0.03569  1.0000
  C   C240      1.0  0.01763  0.55378  0.42679  1.0000
  C   C241      1.0  0.32529  0.85636  0.15047  1.0000
  H   H268      1.0  0.21422  0.91135  0.39063  1.0000
  H   H269      1.0  0.26611  0.97335  0.01470  1.0000
  Fe  Fe34      1.0  0.29584  0.85138  0.02689  1.0000
  H   H270      1.0  0.28210  0.67791  0.43838  1.0000
  C   C242      1.0  0.23820  0.91358  0.43279  1.0000
  C   C243      1.0  0.02704  0.98801  0.48635  1.0000
  S   S70       1.0  0.23327  0.81575  0.49228  1.0000
  N   N17       1.0  0.30590  0.67565  0.39472  1.0000
  C   C244      1.0  0.28440  0.68740  0.41380  1.0000
  H   H271      1.0  0.29044  0.81653  0.10065  1.0000
  C   C245      1.0  0.30835  0.68931  0.36248  1.0000
  C   C246      1.0  0.30055  0.64792  0.38885  1.0000
  H   H272      1.0  0.29887  0.88131  0.17897  1.0000
  C   C247      1.0  0.17537  0.92183  0.49023  1.0000
  H   H273      1.0  0.30130  0.84902  0.09425  1.0000
  H   H274      1.0  0.07892  0.55544  0.45873  1.0000
  H   H275      1.0  0.05228  0.91253  0.13714  1.0000
  C   C248      1.0  0.01103  0.97595  0.25918  1.0000
  C   C249      1.0  0.33043  0.61346  0.31210  1.0000
  H   H276      1.0  0.26572  0.68558  0.40067  1.0000
  C   C250      1.0  0.07127  0.00234  0.21996  1.0000
  C   C251      1.0  0.04496  0.55350  0.42797  1.0000
  C   C252      1.0  0.27918  0.64046  0.36917  1.0000
  H   H277      1.0  0.29012  0.68949  0.34819  1.0000
  H   H278      1.0  0.31343  0.71005  0.36586  1.0000
  H   H279      1.0  0.01926  0.00349  0.35544  1.0000
  H   H280      1.0  0.01861  0.52662  0.22061  1.0000
  H   H281      1.0  0.07159  0.98872  0.24047  1.0000
  H   H282      1.0  0.18939  0.61159  0.28532  1.0000
  H   H283      1.0  0.22939  0.97343  0.35105  1.0000
  S   S71       1.0  0.11476  0.97827  0.35021  1.0000
  C   C253      1.0  0.04458  0.55905  0.48776  1.0000
  H   H284      1.0  0.17092  0.53313  0.26508  1.0000
  N   N18       1.0  0.08113  0.95452  0.02015  1.0000
  C   C254      1.0  0.24333  0.95530  0.45862  1.0000
  H   H285      1.0  0.28731  0.70849  0.41804  1.0000
  H   H286      1.0  0.28631  0.57505  0.36946  1.0000
  H   H287      1.0  0.26803  0.82284  0.15004  1.0000
  C   C255      1.0  0.05317  0.99967  0.19452  1.0000
  H   H288      1.0  0.15626  0.68525  0.12361  1.0000
  C   C256      1.0  0.05826  0.92111  0.11385  1.0000
  H   H289      1.0  0.26008  0.92001  0.47726  1.0000
  H   H290      1.0  0.05474  0.98679  0.02573  1.0000
  H   H291      1.0  0.08671  0.99268  0.04021  1.0000
  C   C257      1.0  0.28907  0.92601  0.01368  1.0000
  C   C258      1.0  0.16378  0.55235  0.27027  1.0000
  C   C259      1.0  0.18233  0.57129  0.27603  1.0000
  H   H292      1.0  0.17519  0.93030  0.37477  1.0000
  H   H293      1.0  0.17030  0.66265  0.15180  1.0000
  N   N19       1.0  0.11688  0.53921  0.26385  1.0000
  C   C260      1.0  0.13709  0.55858  0.27046  1.0000
  C   C261      1.0  0.17496  0.59681  0.28192  1.0000
  C   C262      1.0  0.28096  0.83931  0.15606  1.0000
  C   C263      1.0  0.17472  0.67591  0.13076  1.0000
  H   H294      1.0  0.11810  0.54399  0.21096  1.0000
  C   C264      1.0  0.13034  0.58489  0.27607  1.0000
  C   C265      1.0  0.14906  0.60363  0.28182  1.0000
  H   H295      1.0  0.30411  0.79418  0.15528  1.0000
  H   H296      1.0  0.14362  0.62378  0.28499  1.0000
  C   C266      1.0  0.22758  0.96653  0.43439  1.0000
  C   C267      1.0  0.27414  0.61447  0.36240  1.0000
  H   H297      1.0  0.17081  0.75714  0.06145  1.0000
  H   H298      1.0  0.22519  0.66707  0.13316  1.0000
  H   H299      1.0  0.16752  0.96432  0.41940  1.0000
  C   C268      1.0  0.31789  0.87878  0.16878  1.0000
  H   H300      1.0  0.21239  0.66819  0.17397  1.0000
  C   C269      1.0  0.32282  0.56786  0.30339  1.0000
  H   H301      1.0  0.25123  0.96703  0.47842  1.0000
  H   H302      1.0  0.11166  0.92771  0.06704  1.0000
  H   H303      1.0  0.31193  0.55258  0.29173  1.0000
  C   C270      1.0  0.08386  0.91944  0.10382  1.0000
  H   H304      1.0  0.04009  0.98369  0.19688  1.0000
  C   C271      1.0  0.07375  0.94285  0.05232  1.0000
  H   H305      1.0  0.17255  0.52067  0.09090  1.0000
  H   H306      1.0  0.30592  0.91268  0.01158  1.0000
  H   H307      1.0  0.22090  0.99869  0.37984  1.0000
  H   H308      1.0  0.08827  0.53174  0.22654  1.0000
  H   H309      1.0  0.19500  0.51568  0.05743  1.0000
  H   H310      1.0  0.32892  0.91643  0.18703  1.0000
  H   H311      1.0  0.20037  0.99229  0.34559  1.0000
  H   H312      1.0  0.22403  0.98710  0.43605  1.0000
  C   C272      1.0  0.07531  0.98265  0.02079  1.0000
  C   C273      1.0  0.02610  0.99049  0.28120  1.0000
  H   H313      1.0  0.01644  0.53971  0.01445  1.0000
  C   C274      1.0  0.09162  0.93005  0.07348  1.0000
  C   C275      1.0  0.28981  0.59513  0.37559  1.0000
  C   C276      1.0  0.05811  0.55609  0.45813  1.0000
  H   H314      1.0  0.05660  0.55091  0.40606  1.0000
  H   H315      1.0  0.32384  0.82292  0.09619  1.0000
  C   C277      1.0  0.31054  0.60169  0.39570  1.0000
  H   H316      1.0  0.31967  0.81333  0.18659  1.0000
  H   H317      1.0  0.33279  0.63123  0.41727  1.0000
  C   C278      1.0  0.31737  0.81075  0.15930  1.0000
  Fe  Fe35      1.0  0.07503  0.00984  0.41997  1.0000
  C   C279      1.0  0.01465  0.99390  0.14464  1.0000
  H   H318      1.0  0.27174  0.91361  0.01194  1.0000
  C   C280      1.0  0.10885  0.95145  0.01194  1.0000
  H   H319      1.0  0.05877  0.99406  0.10922  1.0000
  H   H320      1.0  0.32315  0.58658  0.40513  1.0000
  H   H321      1.0  0.33634  0.80470  0.14910  1.0000
  H   H322      1.0  0.17780  0.80922  0.50114  1.0000
  H   H323      1.0  0.20346  0.51400  0.13335  1.0000
  H   H324      1.0  0.12774  0.87992  0.49316  1.0000
  C   C281      1.0  0.04636  0.01169  0.10840  1.0000
  H   H325      1.0  0.03252  0.00927  0.08751  1.0000
  Fe  Fe36      1.0  0.22921  0.64339  0.75604  1.0000
  S   S72       1.0  0.26320  0.65484  0.72442  1.0000
  S   S73       1.0  0.20390  0.60808  0.74883  1.0000
  Fe  Fe37      1.0  0.24476  0.67990  0.81294  1.0000
  S   S74       1.0  0.27954  0.69336  0.78569  1.0000
  S   S75       1.0  0.23339  0.69305  0.86484  1.0000
  Fe  Fe38      1.0  0.25367  0.69567  0.74085  1.0000
  S   S76       1.0  0.25692  0.73517  0.71587  1.0000
  Fe  Fe39      1.0  0.28594  0.65166  0.77196  1.0000
  S   S77       1.0  0.32646  0.63486  0.77511  1.0000
  S   S78       1.0  0.21812  0.68436  0.76933  1.0000
  S   S79       1.0  0.25285  0.63804  0.80243  1.0000
  H   H326      1.0  0.07964  0.99200  0.99655  1.0000
  S   S80       1.0  0.27987  0.85698  0.97584  1.0000
  C   C282      1.0  0.05177  0.51555  0.86039  1.0000
  Fe  Fe40      1.0  0.25246  0.80240  0.53958  1.0000
  C   C283      1.0  0.10188  0.86253  0.52814  1.0000
  S   S81       1.0  0.23472  0.76789  0.56593  1.0000
  Fe  Fe41      1.0  0.29539  0.84259  0.53369  1.0000
  C   C284      1.0  0.01402  0.98861  0.98196  1.0000
  Fe  Fe42      1.0  0.26931  0.81493  0.97725  1.0000
  S   S82       1.0  0.28178  0.79316  0.93080  1.0000
  S   S83       1.0  0.25729  0.84246  0.55997  1.0000
  H   H327      1.0  0.33038  0.75835  0.67911  1.0000
  Fe  Fe43      1.0  0.06943  0.99132  0.84972  1.0000
  S   S84       1.0  0.05533  0.98022  0.79784  1.0000
  Fe  Fe44      1.0  0.09860  0.96506  0.90776  1.0000
  S   S85       1.0  0.11037  0.92606  0.92933  1.0000
  S   S86       1.0  0.05664  0.97319  0.89788  1.0000
  S   S87       1.0  0.11071  0.97970  0.85805  1.0000
  Fe  Fe45      1.0  0.09764  0.53958  0.64679  1.0000
  S   S88       1.0  0.11283  0.58067  0.64998  1.0000
  H   H328      1.0  0.07092  0.92128  0.99075  1.0000
  H   H329      1.0  0.09932  0.53643  0.96765  1.0000
  H   H330      1.0  0.11359  0.96056  0.98764  1.0000
  H   H331      1.0  0.03325  0.53298  0.72670  1.0000
  C   C285      1.0  0.30037  0.71783  0.62649  1.0000
  C   C286      1.0  0.07108  0.52657  0.93057  1.0000
  C   C287      1.0  0.19739  0.81375  0.80993  1.0000
  C   C288      1.0  0.25218  0.56081  0.69968  1.0000
  H   H332      1.0  0.08050  0.84161  0.56476  1.0000
  N   N20       1.0  0.28939  0.94613  0.98741  1.0000
  H   H333      1.0  0.03708  0.55672  0.89474  1.0000
  H   H334      1.0  0.18662  0.85357  0.81902  1.0000
  C   C289      1.0  0.14370  0.82942  0.54481  1.0000
  H   H335      1.0  0.23303  0.77748  0.86403  1.0000
  C   C290      1.0  0.19164  0.90812  0.96844  1.0000
  C   C291      1.0  0.18521  0.93317  0.95755  1.0000
  C   C292      1.0  0.16053  0.93883  0.94508  1.0000
  C   C293      1.0  0.14195  0.91948  0.94357  1.0000
  C   C294      1.0  0.14830  0.89445  0.95461  1.0000
  C   C295      1.0  0.17309  0.88873  0.96686  1.0000
  C   C296      1.0  0.30996  0.75785  0.59825  1.0000
  H   H336      1.0  0.15589  0.95817  0.93666  1.0000
  H   H337      1.0  0.13401  0.87939  0.95359  1.0000
  C   C297      1.0  0.02319  0.54055  0.89532  1.0000
  H   H338      1.0  0.17924  0.93352  0.51194  1.0000
  H   H339      1.0  0.01920  0.98431  0.64126  1.0000
  H   H340      1.0  0.30119  0.81088  0.59822  1.0000
  C   C298      1.0  0.01951  0.97888  0.74772  1.0000
  C   C299      1.0  0.19874  0.74631  0.82420  1.0000
  C   C300      1.0  0.17668  0.60289  0.72337  1.0000
  C   C301      1.0  0.16960  0.61977  0.69780  1.0000
  C   C302      1.0  0.14929  0.61322  0.67618  1.0000
  C   C303      1.0  0.13614  0.58971  0.67978  1.0000
  C   C304      1.0  0.14280  0.57326  0.70592  1.0000
  C   C305      1.0  0.16292  0.57985  0.72758  1.0000
  H   H341      1.0  0.18008  0.63753  0.69424  1.0000
  H   H342      1.0  0.14420  0.62611  0.65605  1.0000
  H   H343      1.0  0.13261  0.55532  0.70928  1.0000
  H   H344      1.0  0.16817  0.56677  0.74743  1.0000
  H   H345      1.0  0.19548  0.84026  0.54138  1.0000
  C   C306      1.0  0.31642  0.59487  0.81910  1.0000
  C   C307      1.0  0.32390  0.57426  0.83987  1.0000
  H   H346      1.0  0.29647  0.60070  0.81782  1.0000
  H   H347      1.0  0.30956  0.56447  0.85456  1.0000
  C   C308      1.0  0.24821  0.71958  0.88467  1.0000
  C   C309      1.0  0.26989  0.73129  0.87112  1.0000
  C   C310      1.0  0.27993  0.75372  0.88580  1.0000
  C   C311      1.0  0.26888  0.76426  0.91466  1.0000
  C   C312      1.0  0.24762  0.75215  0.92884  1.0000
  C   C313      1.0  0.23730  0.72988  0.91382  1.0000
  H   H348      1.0  0.27865  0.72346  0.84891  1.0000
  H   H349      1.0  0.29616  0.76322  0.87446  1.0000
  H   H350      1.0  0.23887  0.76019  0.95098  1.0000
  H   H351      1.0  0.22050  0.72088  0.92447  1.0000
  C   C314      1.0  0.24997  0.74382  0.67421  1.0000
  C   C315      1.0  0.23892  0.72650  0.65174  1.0000
  C   C316      1.0  0.23412  0.73423  0.61873  1.0000
  C   C317      1.0  0.24057  0.75918  0.60782  1.0000
  C   C318      1.0  0.25119  0.77662  0.63043  1.0000
  C   C319      1.0  0.25583  0.76897  0.66347  1.0000
  H   H352      1.0  0.23419  0.70715  0.65972  1.0000
  H   H353      1.0  0.22570  0.72067  0.60145  1.0000
  H   H354      1.0  0.25564  0.79600  0.62245  1.0000
  H   H355      1.0  0.26419  0.78254  0.68077  1.0000
  H   H356      1.0  0.31798  0.94833  0.56363  1.0000
  H   H357      1.0  0.30433  0.65183  0.83575  1.0000
  H   H358      1.0  0.17776  0.86940  0.97524  1.0000
  H   H359      1.0  0.21173  0.56543  0.69889  1.0000
  C   C320      1.0  0.22295  0.79367  0.85313  1.0000
  C   C321      1.0  0.21052  0.79141  0.82187  1.0000
  H   H360      1.0  0.24795  0.77307  0.78085  1.0000
  H   H361      1.0  0.33350  0.80189  0.67939  1.0000
  H   H362      1.0  0.03998  0.51977  0.83785  1.0000
  H   H363      1.0  0.18353  0.84147  0.58297  1.0000
  H   H364      1.0  0.30167  0.63867  0.92466  1.0000
  C   C322      1.0  0.31216  0.96315  0.98901  1.0000
  H   H365      1.0  0.02762  0.96004  0.74216  1.0000
  C   C323      1.0  0.17250  0.79685  0.52257  1.0000
  H   H366      1.0  0.11340  0.98680  0.78289  1.0000
  S   S89       1.0  0.21266  0.88944  0.51488  1.0000
  S   S90       1.0  0.29191  0.80108  0.51701  1.0000
  H   H367      1.0  0.29285  0.67208  0.92294  1.0000
  H   H368      1.0  0.29145  0.69895  0.62661  1.0000
  C   C324      1.0  0.19761  0.76718  0.77114  1.0000
  H   H369      1.0  0.19942  0.94831  0.95865  1.0000
  H   H370      1.0  0.19849  0.72720  0.81144  1.0000
  H   H371      1.0  0.20895  0.74304  0.84804  1.0000
  C   C325      1.0  0.28862  0.93259  0.95491  1.0000
  C   C326      1.0  0.19689  0.83677  0.82836  1.0000
  H   H372      1.0  0.14177  0.99060  0.75827  1.0000
  H   H373      1.0  0.26278  0.97569  0.97034  1.0000
  C   C327      1.0  0.31509  0.98363  0.96590  1.0000
  S   S91       1.0  0.05596  0.52863  0.63941  1.0000
  N   N21       1.0  0.16585  0.81230  0.55248  1.0000
  C   C328      1.0  0.34067  0.88652  0.56885  1.0000
  H   H374      1.0  0.19771  0.56975  0.61668  1.0000
  C   C329      1.0  0.22409  0.53923  0.65924  1.0000
  H   H375      1.0  0.01275  0.54152  0.91942  1.0000
  H   H376      1.0  0.17678  0.77154  0.77416  1.0000
  H   H377      1.0  0.28660  0.94613  0.93371  1.0000
  H   H378      1.0  0.07088  0.95114  0.96837  1.0000
  C   C330      1.0  0.33988  0.64009  0.88105  1.0000
  H   H379      1.0  0.03384  0.98319  0.58799  1.0000
  H   H380      1.0  0.25427  0.57392  0.72062  1.0000
  N   N22       1.0  0.21111  0.76649  0.80365  1.0000
  C   C331      1.0  0.24646  0.52728  0.64566  1.0000
  C   C332      1.0  0.06148  0.00003  0.55656  1.0000
  H   H381      1.0  0.11575  0.81293  0.57965  1.0000
  C   C333      1.0  0.22251  0.81676  0.87120  1.0000
  H   H382      1.0  0.18031  0.53473  0.69459  1.0000
  H   H383      1.0  0.04528  0.94424  0.99611  1.0000
  H   H384      1.0  0.16620  0.55758  0.62651  1.0000
  H   H385      1.0  0.30638  0.92082  0.95096  1.0000
  C   C334      1.0  0.30920  0.65831  0.91910  1.0000
  H   H386      1.0  0.14119  0.00075  0.80140  1.0000
  H   H387      1.0  0.30116  0.98679  0.94640  1.0000
  Fe  Fe46      1.0  0.24178  0.86454  0.00033  1.0000
  C   C335      1.0  0.31176  0.72735  0.65527  1.0000
  H   H388      1.0  0.15630  0.80420  0.60352  1.0000
  C   C336      1.0  0.32958  0.68572  0.87605  1.0000
  C   C337      1.0  0.31137  0.81351  0.62227  1.0000
  H   H389      1.0  0.24815  0.94976  0.99190  1.0000
  H   H390      1.0  0.17833  0.78159  0.58522  1.0000
  H   H391      1.0  0.29266  0.55295  0.69567  1.0000
  H   H392      1.0  0.24963  0.75670  0.81987  1.0000
  C   C338      1.0  0.16103  0.79386  0.58002  1.0000
  C   C339      1.0  0.18834  0.82814  0.56210  1.0000
  C   C340      1.0  0.32979  0.70682  0.89878  1.0000
  H   H393      1.0  0.30599  0.90331  0.54908  1.0000
  H   H394      1.0  0.08595  0.87518  0.52167  1.0000
  C   C341      1.0  0.32199  0.76810  0.62700  1.0000
  H   H395      1.0  0.27196  0.91916  0.95335  1.0000
  S   S92       1.0  0.22987  0.82270  0.99858  1.0000
  Fe  Fe47      1.0  0.24100  0.85592  0.51093  1.0000
  H   H396      1.0  0.34128  0.79642  0.57391  1.0000
  H   H397      1.0  0.23928  0.73967  0.78411  1.0000
  H   H398      1.0  0.02193  0.97868  0.96059  1.0000
  H   H399      1.0  0.17856  0.75168  0.83041  1.0000
  C   C342      1.0  0.18173  0.52278  0.67176  1.0000
  Fe  Fe48      1.0  0.06453  0.01209  0.92050  1.0000
  S   S93       1.0  0.10571  0.00287  0.93326  1.0000
  C   C343      1.0  0.32410  0.90706  0.56131  1.0000
  N   N23       1.0  0.33263  0.79459  0.62659  1.0000
  C   C344      1.0  0.09889  0.84359  0.55239  1.0000
  C   C345      1.0  0.33094  0.93257  0.56964  1.0000
  C   C346      1.0  0.20942  0.83826  0.85891  1.0000
  H   H400      1.0  0.08888  0.00844  0.74258  1.0000
  S   S94       1.0  0.33290  0.85412  0.55871  1.0000
  C   C347      1.0  0.02901  0.99304  0.77490  1.0000
  H   H401      1.0  0.19903  0.74817  0.75802  1.0000
  C   C348      1.0  0.19734  0.51778  0.61621  1.0000
  H   H402      1.0  0.18725  0.81393  0.78656  1.0000
  C   C349      1.0  0.23811  0.75872  0.79695  1.0000
  H   H403      1.0  0.20892  0.85608  0.87318  1.0000
  H   H404      1.0  0.23236  0.81786  0.89498  1.0000
  C   C350      1.0  0.22776  0.55591  0.68687  1.0000
  C   C351      1.0  0.18616  0.55997  0.63613  1.0000
  H   H405      1.0  0.31151  0.71576  0.67771  1.0000
  S   S95       1.0  0.22294  0.90243  0.98428  1.0000
  C   C352      1.0  0.27088  0.53223  0.65879  1.0000
  H   H406      1.0  0.28260  0.66857  0.86283  1.0000
  H   H407      1.0  0.20635  0.78159  0.75409  1.0000
  N   N24       1.0  0.19793  0.53488  0.64588  1.0000
  C   C353      1.0  0.27373  0.54903  0.68564  1.0000
  C   C354      1.0  0.29793  0.65347  0.86193  1.0000
  C   C355      1.0  0.26567  0.96198  0.99121  1.0000
  H   H408      1.0  0.28960  0.72606  0.57608  1.0000
  H   H409      1.0  0.31846  0.83380  0.62239  1.0000
  H   H410      1.0  0.17734  0.51525  0.60684  1.0000
  C   C356      1.0  0.08545  0.52226  0.95942  1.0000
  H   H411      1.0  0.20493  0.81590  0.56999  1.0000
  H   H412      1.0  0.28772  0.52301  0.64806  1.0000
  N   N25       1.0  0.31932  0.65994  0.88468  1.0000
  H   H413      1.0  0.06327  0.98265  0.54161  1.0000
  C   C357      1.0  0.29944  0.73307  0.59805  1.0000
  H   H414      1.0  0.18455  0.57360  0.65730  1.0000
  H   H415      1.0  0.32444  0.66230  0.93776  1.0000
  C   C358      1.0  0.33475  0.60778  0.80003  1.0000
  H   H416      1.0  0.07471  0.54412  0.91690  1.0000
  C   C359      1.0  0.32243  0.75210  0.65573  1.0000
  H   H417      1.0  0.06678  0.53070  0.86166  1.0000
  H   H418      1.0  0.33295  0.62036  0.88740  1.0000
  H   H419      1.0  0.30793  0.76921  0.57592  1.0000
  H   H420      1.0  0.14529  0.78021  0.57384  1.0000
  H   H421      1.0  0.32207  0.70549  0.92359  1.0000
  H   H422      1.0  0.18919  0.78369  0.52721  1.0000
  N   N26       1.0  0.03570  0.51487  0.89078  1.0000
  H   H423      1.0  0.29691  0.81173  0.64246  1.0000
  H   H424      1.0  0.28898  0.63461  0.86819  1.0000
  C   C360      1.0  0.14598  0.84888  0.52018  1.0000
  C   C361      1.0  0.04455  0.00067  0.58351  1.0000
  C   C362      1.0  0.11942  0.82719  0.56073  1.0000
  C   C363      1.0  0.06634  0.94231  0.99286  1.0000
  C   C364      1.0  0.12540  0.86517  0.51208  1.0000
  C   C365      1.0  0.33585  0.00063  0.96781  1.0000
  H   H425      1.0  0.16169  0.51982  0.66287  1.0000
  C   C366      1.0  0.12987  0.99996  0.77790  1.0000
  H   H426      1.0  0.05475  0.56033  0.51123  1.0000
  H   H427      1.0  0.20877  0.52586  0.59540  1.0000
  S   S96       1.0  0.11083  0.51668  0.60261  1.0000
  C   C367      1.0  0.02257  0.52212  0.74495  1.0000
  C   C368      1.0  0.33967  0.73088  0.88968  1.0000
  H   H428      1.0  0.33921  0.74684  0.90724  1.0000
  H   H429      1.0  0.34000  0.67529  0.82511  1.0000
  C   C369      1.0  0.33965  0.69034  0.84384  1.0000
  H   H430      1.0  0.15604  0.78473  0.51451  1.0000
  H   H431      1.0  0.05107  0.01308  0.66696  1.0000
  H   H432      1.0  0.24564  0.51405  0.62494  1.0000
  H   H433      1.0  0.16379  0.85165  0.50690  1.0000
  H   H434      1.0  0.60618  0.09837  0.49169  1.0000
  H   H435      1.0  0.49731  0.48967  0.45507  1.0000
  Fe  Fe49      1.0  0.60372  0.05071  0.39832  1.0000
  S   S97       1.0  0.61644  0.09079  0.41434  1.0000
  H   H436      1.0  0.36447  0.38932  0.42982  1.0000
  S   S98       1.0  0.56166  0.04134  0.39440  1.0000
  S   S99       1.0  0.45317  0.03772  0.13987  1.0000
  C   C370      1.0  0.41570  0.40896  0.01030  1.0000
  C   C371      1.0  0.58849  0.04904  0.48840  1.0000
  C   C372      1.0  0.53638  0.03442  0.06730  1.0000
  Fe  Fe50      1.0  0.41083  0.04601  0.14496  1.0000
  S   S100      1.0  0.39795  0.08666  0.15926  1.0000
  S   S101      1.0  0.39911  0.49828  0.35109  1.0000
  S   S102      1.0  0.44464  0.47722  0.40137  1.0000
  Fe  Fe51      1.0  0.44229  0.49959  0.35358  1.0000
  S   S103      1.0  0.46290  0.48476  0.30742  1.0000
  Fe  Fe52      1.0  0.40142  0.47827  0.40077  1.0000
  S   S104      1.0  0.38429  0.43872  0.41153  1.0000
  H   H437      1.0  0.59684  0.05544  0.46440  1.0000
  S   S105      1.0  0.57484  0.48709  0.15256  1.0000
  Fe  Fe53      1.0  0.61587  0.50063  0.14921  1.0000
  S   S106      1.0  0.65345  0.48523  0.17099  1.0000
  H   H438      1.0  0.49665  0.02763  0.19858  1.0000
  S   S107      1.0  0.55156  0.48350  0.05743  1.0000
  H   H439      1.0  0.34745  0.07962  0.29719  1.0000
  H   H440      1.0  0.61212  0.48528  0.21901  1.0000
  H   H441      1.0  0.45061  0.46871  0.47671  1.0000
  C   C373      1.0  0.65394  0.12141  0.44156  1.0000
  H   H442      1.0  0.56320  0.09170  0.01662  1.0000
  C   C374      1.0  0.65676  0.07594  0.45495  1.0000
  N   N27       1.0  0.43320  0.45415  0.01319  1.0000
  H   H443      1.0  0.57375  0.03411  0.48290  1.0000
  C   C375      1.0  0.67573  0.05264  0.36637  1.0000
  C   C376      1.0  0.51418  0.50026  0.23421  1.0000
  H   H444      1.0  0.52411  0.09734  0.04954  1.0000
  H   H445      1.0  0.39896  0.13941  0.26776  1.0000
  S   S108      1.0  0.40093  0.02845  0.09574  1.0000
  C   C377      1.0  0.45718  0.44635  0.03052  1.0000
  C   C378      1.0  0.49608  0.48809  0.25482  1.0000
  H   H446      1.0  0.60428  0.03932  0.50223  1.0000
  H   H447      1.0  0.49030  0.46847  0.24946  1.0000
  C   C379      1.0  0.64404  0.43302  0.18103  1.0000
  C   C380      1.0  0.66137  0.45342  0.18384  1.0000
  H   H448      1.0  0.53615  0.47226  0.48347  1.0000
  C   C381      1.0  0.35886  0.43013  0.43848  1.0000
  H   H449      1.0  0.62557  0.43619  0.16945  1.0000
  Fe  Fe54      1.0  0.44283  0.01733  0.09221  1.0000
  C   C382      1.0  0.55863  0.03064  0.04836  1.0000
  C   C383      1.0  0.37071  0.09218  0.18467  1.0000
  H   H450      1.0  0.35843  0.38414  0.03499  1.0000
  S   S109      1.0  0.61243  0.03580  0.34732  1.0000
  C   C384      1.0  0.40975  0.07376  0.26933  1.0000
  H   H451      1.0  0.66837  0.03314  0.35990  1.0000
  C   C385      1.0  0.64427  0.09621  0.43854  1.0000
  N   N28       1.0  0.58939  0.46357  0.25408  1.0000
  C   C386      1.0  0.48718  0.01560  0.02054  1.0000
  H   H452      1.0  0.44915  0.05879  0.30754  1.0000
  C   C387      1.0  0.60411  0.02148  0.01022  1.0000
  H   H453      1.0  0.67396  0.06443  0.34341  1.0000
  C   C388      1.0  0.65083  0.40827  0.19290  1.0000
  H   H454      1.0  0.44245  0.49471  0.01795  1.0000
  C   C389      1.0  0.36643  0.08537  0.28895  1.0000
  C   C390      1.0  0.55865  0.08426  0.48429  1.0000
  H   H455      1.0  0.43227  0.10742  0.25501  1.0000
  C   C391      1.0  0.61238  0.06674  0.01716  1.0000
  H   H456      1.0  0.59029  0.44699  0.20485  1.0000
  N   N29       1.0  0.42993  0.05455  0.26057  1.0000
  C   C392      1.0  0.39534  0.11909  0.27216  1.0000
  C   C393      1.0  0.39643  0.39079  0.01588  1.0000
  H   H457      1.0  0.41879  0.05529  0.20941  1.0000
  H   H458      1.0  0.61756  0.06524  0.04390  1.0000
  N   N30       1.0  0.59232  0.04770  0.00811  1.0000
  C   C394      1.0  0.38923  0.44200  0.03628  1.0000
  H   H459      1.0  0.48674  0.04857  0.48321  1.0000
  C   C395      1.0  0.48546  0.50108  0.28236  1.0000
  C   C396      1.0  0.56939  0.05113  0.02950  1.0000
  H   H460      1.0  0.45016  0.04176  0.21659  1.0000
  C   C397      1.0  0.52399  0.05837  0.06766  1.0000
  C   C398      1.0  0.54106  0.44752  0.32184  1.0000
  H   H461      1.0  0.37329  0.13364  0.18079  1.0000
  C   C399      1.0  0.53354  0.47196  0.33285  1.0000
  C   C400      1.0  0.41425  0.10058  0.26488  1.0000
  C   C401      1.0  0.57075  0.46689  0.28160  1.0000
  H   H462      1.0  0.40938  0.48841  0.01056  1.0000
  C   C402      1.0  0.37148  0.11148  0.28417  1.0000
  H   H463      1.0  0.52205  0.49018  0.21295  1.0000
  H   H464      1.0  0.56473  0.42555  0.28913  1.0000
  H   H465      1.0  0.36286  0.05197  0.19339  1.0000
  C   C403      1.0  0.43637  0.05701  0.22487  1.0000
  C   C404      1.0  0.37011  0.42360  0.04182  1.0000
  H   H466      1.0  0.60873  0.50026  0.25864  1.0000
  H   H467      1.0  0.35653  0.12576  0.28885  1.0000
  H   H468      1.0  0.36030  0.10049  0.09441  1.0000
  H   H469      1.0  0.60629  0.08701  0.01219  1.0000
  H   H470      1.0  0.53219  0.43053  0.33247  1.0000
  C   C405      1.0  0.56294  0.49157  0.29382  1.0000
  H   H471      1.0  0.52189  0.02933  0.44934  1.0000
  H   H472      1.0  0.46478  0.42746  0.02151  1.0000
  H   H473      1.0  0.51867  0.47397  0.35158  1.0000
  H   H474      1.0  0.41756  0.02383  0.29295  1.0000
  C   C406      1.0  0.55642  0.07538  0.03078  1.0000
  H   H475      1.0  0.46217  0.07838  0.27493  1.0000
  H   H476      1.0  0.64419  0.13726  0.42926  1.0000
  C   C407      1.0  0.36258  0.11770  0.19106  1.0000
  H   H477      1.0  0.39504  0.47751  0.48574  1.0000
  C   C408      1.0  0.52713  0.49693  0.03189  1.0000
  C   C409      1.0  0.52722  0.02020  0.27330  1.0000
  H   H478      1.0  0.46866  0.04457  0.27535  1.0000
  C   C410      1.0  0.57734  0.44868  0.22674  1.0000
  H   H479      1.0  0.53068  0.04755  0.23323  1.0000
  C   C411      1.0  0.35303  0.40380  0.44256  1.0000
  C   C412      1.0  0.67515  0.40357  0.20703  1.0000
  Fe  Fe55      1.0  0.57129  0.02302  0.34502  1.0000
  C   C413      1.0  0.41268  0.43519  0.02018  1.0000
  H   H480      1.0  0.66253  0.06073  0.38558  1.0000
  H   H481      1.0  0.54977  0.10155  0.49627  1.0000
  C   C414      1.0  0.50128  0.01953  0.22261  1.0000
  S   S110      1.0  0.55297  0.03409  0.29560  1.0000
  H   H482      1.0  0.63731  0.39255  0.19074  1.0000
  H   H483      1.0  0.50618  0.06083  0.08137  1.0000
  C   C415      1.0  0.42669  0.48095  0.02382  1.0000
  H   H484      1.0  0.61031  0.01691  0.03600  1.0000
  C   C416      1.0  0.45343  0.05933  0.28047  1.0000
  C   C417      1.0  0.37368  0.39809  0.03159  1.0000
  H   H485      1.0  0.44513  0.07591  0.21865  1.0000
  H   H486      1.0  0.34822  0.46902  0.45205  1.0000
  H   H487      1.0  0.41994  0.50903  0.26818  1.0000
  C   C418      1.0  0.38516  0.06665  0.28164  1.0000
  H   H488      1.0  0.38493  0.46146  0.04427  1.0000
  H   H489      1.0  0.64926  0.05655  0.45333  1.0000
  C   C419      1.0  0.61233  0.44916  0.26608  1.0000
  C   C420      1.0  0.53403  0.07884  0.04952  1.0000
  C   C421      1.0  0.50268  0.49691  0.47930  1.0000
  C   C422      1.0  0.52058  0.03076  0.24230  1.0000
  H   H490      1.0  0.52805  0.01842  0.08082  1.0000
  H   H491      1.0  0.47281  0.46067  0.02664  1.0000
  H   H492      1.0  0.45398  0.44464  0.05775  1.0000
  H   H493      1.0  0.53861  0.51287  0.32764  1.0000
  H   H494      1.0  0.40529  0.02201  0.25076  1.0000
  S   S111      1.0  0.46167  0.02975  0.04360  1.0000
  C   C423      1.0  0.42213  0.02733  0.26637  1.0000
  H   H495      1.0  0.58210  0.50005  0.22970  1.0000
  H   H496      1.0  0.42550  0.44883  0.46073  1.0000
  Fe  Fe56      1.0  0.57046  0.50417  0.10095  1.0000
  H   H497      1.0  0.55920  0.45820  0.21835  1.0000
  C   C424      1.0  0.55955  0.44493  0.29683  1.0000
  H   H498      1.0  0.34915  0.40819  0.34075  1.0000
  C   C425      1.0  0.51666  0.02064  0.47275  1.0000
  C   C426      1.0  0.35687  0.07167  0.19821  1.0000
  H   H499      1.0  0.57264  0.42857  0.23402  1.0000
  H   H500      1.0  0.62130  0.45916  0.28761  1.0000
  C   C427      1.0  0.54475  0.49388  0.31923  1.0000
  H   H501      1.0  0.62728  0.44723  0.24637  1.0000
  H   H502      1.0  0.37961  0.04679  0.28514  1.0000
  H   H503      1.0  0.35201  0.42921  0.05316  1.0000
  H   H504      1.0  0.42356  0.48220  0.05109  1.0000
  H   H505      1.0  0.60768  0.42915  0.27400  1.0000
  C   C428      1.0  0.43835  0.45173  0.48255  1.0000
  H   H506      1.0  0.45068  0.43411  0.48418  1.0000
  C   C429      1.0  0.67647  0.12620  0.45994  1.0000
  H   H507      1.0  0.57001  0.50947  0.28362  1.0000
  C   C430      1.0  0.49665  0.03142  0.49191  1.0000
  H   H508      1.0  0.54320  0.07090  0.47611  1.0000
  C   C431      1.0  0.52468  0.48714  0.49541  1.0000
  H   H509      1.0  0.56823  0.09116  0.46115  1.0000
  H   H510      1.0  0.39477  0.42942  0.49542  1.0000
  C   C432      1.0  0.59840  0.48842  0.23988  1.0000
  H   H511      1.0  0.67664  0.24498  0.27055  1.0000
  C   C433      1.0  0.34401  0.44871  0.45506  1.0000
  H   H512      1.0  0.39883  0.37106  0.00718  1.0000
  H   H513      1.0  0.63375  0.43724  0.74991  1.0000
  H   H514      1.0  0.37083  0.37960  0.92939  1.0000
  Fe  Fe57      1.0  0.60507  0.04371  0.89153  1.0000
  S   S112      1.0  0.61797  0.08357  0.90875  1.0000
  H   H515      1.0  0.65447  0.38284  0.67282  1.0000
  S   S113      1.0  0.56251  0.03678  0.89189  1.0000
  S   S114      1.0  0.45419  0.03414  0.64330  1.0000
  H   H516      1.0  0.37496  0.12433  0.70009  1.0000
  H   H517      1.0  0.58068  0.43420  0.71596  1.0000
  H   H518      1.0  0.47752  0.04691  0.78964  1.0000
  Fe  Fe58      1.0  0.41161  0.04098  0.64896  1.0000
  S   S115      1.0  0.39900  0.07922  0.67192  1.0000
  S   S116      1.0  0.40397  0.48235  0.84895  1.0000
  S   S117      1.0  0.45440  0.47398  0.89652  1.0000
  Fe  Fe59      1.0  0.44571  0.49330  0.84764  1.0000
  S   S118      1.0  0.46595  0.47848  0.80106  1.0000
  Fe  Fe60      1.0  0.41201  0.46605  0.89933  1.0000
  S   S119      1.0  0.39783  0.42611  0.91359  1.0000
  H   H519      1.0  0.57777  0.07192  0.96831  1.0000
  S   S120      1.0  0.57311  0.47236  0.64186  1.0000
  Fe  Fe61      1.0  0.61638  0.47153  0.64313  1.0000
  S   S121      1.0  0.63356  0.43167  0.65280  1.0000
  H   H520      1.0  0.60147  0.04905  0.95623  1.0000
  S   S122      1.0  0.55955  0.48327  0.54597  1.0000
  C   C434      1.0  0.37034  0.42070  0.93835  1.0000
  S   S123      1.0  0.53909  0.03205  0.80311  1.0000
  H   H521      1.0  0.47768  0.45648  0.51928  1.0000
  H   H522      1.0  0.62150  0.01972  0.99415  1.0000
  H   H523      1.0  0.36488  0.46046  0.95254  1.0000
  C   C435      1.0  0.42911  0.08306  0.84622  1.0000
  H   H524      1.0  0.34495  0.45497  0.84138  1.0000
  C   C436      1.0  0.52857  0.44739  0.81728  1.0000
  N   N31       1.0  0.42343  0.45601  0.51354  1.0000
  C   C437      1.0  0.52090  0.48460  0.00182  1.0000
  C   C438      1.0  0.61577  0.43501  0.76466  1.0000
  C   C439      1.0  0.47191  0.06719  0.83484  1.0000
  C   C440      1.0  0.45481  0.08039  0.85550  1.0000
  H   H525      1.0  0.52665  0.47871  0.70790  1.0000
  C   C441      1.0  0.49970  0.47923  0.74880  1.0000
  C   C442      1.0  0.51988  0.48921  0.72947  1.0000
  H   H526      1.0  0.49120  0.46092  0.74209  1.0000
  C   C443      1.0  0.35885  0.10848  0.60629  1.0000
  H   H527      1.0  0.56954  0.03826  0.96545  1.0000
  C   C444      1.0  0.42040  0.07267  0.81614  1.0000
  C   C445      1.0  0.56537  0.06163  0.53802  1.0000
  C   C446      1.0  0.57382  0.45308  0.77861  1.0000
  S   S124      1.0  0.60984  0.02837  0.83969  1.0000
  H   H528      1.0  0.35526  0.45897  0.88399  1.0000
  C   C447      1.0  0.36809  0.08413  0.68914  1.0000
  H   H529      1.0  0.35533  0.04505  0.68165  1.0000
  H   H530      1.0  0.57300  0.49241  0.79960  1.0000
  H   H531      1.0  0.63964  0.12913  0.93806  1.0000
  H   H532      1.0  0.43419  0.47037  0.62736  1.0000
  C   C448      1.0  0.64641  0.08821  0.93196  1.0000
  H   H533      1.0  0.44638  0.43647  0.96719  1.0000
  C   C449      1.0  0.48187  0.46250  0.57081  1.0000
  H   H534      1.0  0.61420  0.08077  0.52812  1.0000
  C   C450      1.0  0.44331  0.46713  0.60348  1.0000
  C   C451      1.0  0.65850  0.42382  0.68093  1.0000
  C   C452      1.0  0.53736  0.42699  0.79765  1.0000
  H   H535      1.0  0.66743  0.46307  0.69421  1.0000
  C   C453      1.0  0.55967  0.42969  0.77862  1.0000
  H   H536      1.0  0.67463  0.16098  0.79723  1.0000
  C   C454      1.0  0.50158  0.49467  0.98086  1.0000
  C   C455      1.0  0.61001  0.48094  0.76098  1.0000
  C   C456      1.0  0.58886  0.45344  0.72195  1.0000
  C   C457      1.0  0.49055  0.49264  0.77691  1.0000
  C   C458      1.0  0.53188  0.49639  0.52688  1.0000
  C   C459      1.0  0.51240  0.02730  0.74498  1.0000
  S   S125      1.0  0.46351  0.03418  0.54460  1.0000
  H   H537      1.0  0.41923  0.49694  0.50552  1.0000
  Fe  Fe62      1.0  0.57646  0.51030  0.66885  1.0000
  N   N32       1.0  0.59676  0.45574  0.75714  1.0000
  S   S126      1.0  0.61950  0.50796  0.67316  1.0000
  H   H538      1.0  0.49724  0.48516  0.95759  1.0000
  C   C460      1.0  0.48918  0.02002  0.52202  1.0000
  H   H539      1.0  0.49210  0.06562  0.84154  1.0000
  S   S127      1.0  0.62092  0.49234  0.59445  1.0000
  H   H540      1.0  0.41795  0.41556  0.52346  1.0000
  H   H541      1.0  0.39378  0.48296  0.52941  1.0000
  H   H542      1.0  0.51613  0.04773  0.74203  1.0000
  H   H543      1.0  0.39589  0.04332  0.73061  1.0000
  H   H544      1.0  0.48903  0.04788  0.98688  1.0000
  H   H545      1.0  0.65862  0.04838  0.93041  1.0000
  C   C461      1.0  0.44366  0.06073  0.73498  1.0000
  C   C462      1.0  0.66301  0.06763  0.93922  1.0000
  Fe  Fe63      1.0  0.57768  0.49540  0.59496  1.0000
  H   H546      1.0  0.59738  0.49740  0.75332  1.0000
  H   H547      1.0  0.51078  0.44562  0.83114  1.0000
  H   H548      1.0  0.46159  0.08893  0.87848  1.0000
  H   H549      1.0  0.56541  0.41350  0.76326  1.0000
  H   H550      1.0  0.63030  0.06384  0.00233  1.0000
  H   H551      1.0  0.60108  0.04600  0.55850  1.0000
  C   C463      1.0  0.49691  0.02908  0.99301  1.0000
  C   C464      1.0  0.40717  0.47934  0.50843  1.0000
  H   H552      1.0  0.40771  0.46428  0.57786  1.0000
  C   C465      1.0  0.46711  0.45913  0.54211  1.0000
  H   H553      1.0  0.59039  0.10606  0.53023  1.0000
  C   C466      1.0  0.36127  0.10872  0.70141  1.0000
  H   H554      1.0  0.43279  0.40242  0.99745  1.0000
  H   H555      1.0  0.40039  0.07592  0.81019  1.0000
  Fe  Fe64      1.0  0.44446  0.51243  0.91937  1.0000
  C   C467      1.0  0.43977  0.45956  0.54334  1.0000
  C   C468      1.0  0.43432  0.01996  0.76137  1.0000
  C   C469      1.0  0.49656  0.01456  0.72196  1.0000
  C   C470      1.0  0.67230  0.44289  0.69773  1.0000
  C   C471      1.0  0.54208  0.47052  0.81807  1.0000
  C   C472      1.0  0.65249  0.11313  0.94342  1.0000
  H   H556      1.0  0.38894  0.04282  0.77401  1.0000
  C   C473      1.0  0.40132  0.05202  0.75496  1.0000
  H   H557      1.0  0.62742  0.48209  0.74495  1.0000
  C   C474      1.0  0.35759  0.44100  0.95450  1.0000
  C   C475      1.0  0.54380  0.04214  0.59768  1.0000
  H   H558      1.0  0.43970  0.08192  0.73409  1.0000
  H   H559      1.0  0.50271  0.46220  0.56927  1.0000
  H   H560      1.0  0.48835  0.02511  0.70138  1.0000
  C   C476      1.0  0.46336  0.05659  0.80492  1.0000
  C   C477      1.0  0.57000  0.03929  0.59157  1.0000
  H   H561      1.0  0.62113  0.43515  0.79142  1.0000
  H   H562      1.0  0.60542  0.45606  0.70487  1.0000
  C   C478      1.0  0.51660  0.01837  0.97321  1.0000
  H   H563      1.0  0.57407  0.46833  0.71569  1.0000
  N   N33       1.0  0.42911  0.04821  0.76216  1.0000
  H   H564      1.0  0.52366  0.02893  0.95202  1.0000
  C   C479      1.0  0.56424  0.47356  0.79888  1.0000
  C   C480      1.0  0.58070  0.04889  0.56224  1.0000
  H   H565      1.0  0.39617  0.07293  0.75300  1.0000
  C   C481      1.0  0.42834  0.46363  0.57497  1.0000
  H   H566      1.0  0.37744  0.14379  0.59266  1.0000
  H   H567      1.0  0.46474  0.05806  0.73742  1.0000
  H   H568      1.0  0.43832  0.05272  0.71029  1.0000
  C   C482      1.0  0.40648  0.43332  0.51808  1.0000
  H   H569      1.0  0.52531  0.07333  0.52818  1.0000
  H   H570      1.0  0.41594  0.09372  0.86213  1.0000
  C   C483      1.0  0.43736  0.05907  0.79449  1.0000
  H   H571      1.0  0.60854  0.41542  0.75848  1.0000
  C   C484      1.0  0.35032  0.06405  0.69104  1.0000
  H   H572      1.0  0.53546  0.03446  0.62026  1.0000
  C   C485      1.0  0.67514  0.11752  0.96171  1.0000
  Fe  Fe65      1.0  0.56788  0.01803  0.84190  1.0000
  H   H573      1.0  0.52647  0.40922  0.79666  1.0000
  H   H574      1.0  0.42015  0.45860  0.96308  1.0000
  C   C486      1.0  0.53869  0.06430  0.54512  1.0000
  C   C487      1.0  0.66515  0.39769  0.68566  1.0000
  H   H575      1.0  0.45206  0.47035  0.97033  1.0000
  C   C488      1.0  0.47003  0.46658  0.60138  1.0000
  C   C489      1.0  0.43823  0.45488  0.97699  1.0000
  C   C490      1.0  0.52823  0.05471  0.57460  1.0000
  H   H576      1.0  0.50777  0.05663  0.57930  1.0000
  H   H577      1.0  0.53121  0.46723  0.99458  1.0000
  H   H578      1.0  0.43090  0.03721  0.93148  1.0000
  H   H579      1.0  0.58204  0.02940  0.60957  1.0000
  H   H580      1.0  0.34843  0.48643  0.85844  1.0000
  H   H581      1.0  0.48162  0.46943  0.62346  1.0000
  C   C491      1.0  0.59782  0.08984  0.51467  1.0000
  H   H582      1.0  0.67661  0.40501  0.58192  1.0000
  C   C492      1.0  0.36018  0.13522  0.60279  1.0000
  S   S128      1.0  0.40343  0.02941  0.59652  1.0000
  S   S129      1.0  0.40257  0.50306  0.92548  1.0000
  C   C493      1.0  0.36098  0.39543  0.94169  1.0000
  C   C494      1.0  0.58484  0.05194  0.97309  1.0000
  H   H583      1.0  0.45736  0.02316  0.88454  1.0000
  H   H584      1.0  0.37509  0.09634  0.59935  1.0000
  Fe  Fe66      1.0  0.44530  0.01916  0.59214  1.0000
  H   H585      1.0  0.61643  0.48407  0.78702  1.0000
  H   H586      1.0  0.49966  0.01942  0.86824  1.0000
  H   H587      1.0  0.39253  0.43608  0.53868  1.0000
  H   H588      1.0  0.45494  0.01524  0.76497  1.0000
  H   H589      1.0  0.53461  0.48659  0.83258  1.0000
  N   N34       1.0  0.57715  0.07113  0.50689  1.0000
  C   C495      1.0  0.44147  0.01911  0.93288  1.0000
  C   C496      1.0  0.53119  0.51268  0.73824  1.0000
  C   C497      1.0  0.52305  0.01399  0.77212  1.0000
  S   S130      1.0  0.58012  0.98352  0.36601  1.0000
  C   C498      1.0  0.65108  0.62349  0.07763  1.0000
  Fe  Fe67      1.0  0.62070  0.99768  0.37161  1.0000
  S   S131      1.0  0.65946  0.97950  0.35956  1.0000
  Fe  Fe68      1.0  0.57319  0.00287  0.41580  1.0000
  S   S132      1.0  0.55341  0.98312  0.45906  1.0000
  C   C499      1.0  0.67070  0.55187  0.13621  1.0000
  S   S133      1.0  0.46475  0.98214  0.20944  1.0000
  Fe  Fe69      1.0  0.39596  0.99109  0.12334  1.0000
  S   S134      1.0  0.35823  0.96927  0.11970  1.0000
  S   S135      1.0  0.43715  0.97836  0.11650  1.0000
  H   H590      1.0  0.47862  0.52885  0.18636  1.0000
  Fe  Fe70      1.0  0.40036  0.53556  0.38001  1.0000
  S   S136      1.0  0.38095  0.57444  0.37051  1.0000
  H   H591      1.0  0.58285  0.91678  0.24886  1.0000
  C   C500      1.0  0.35276  0.94005  0.09818  1.0000
  S   S137      1.0  0.44354  0.53807  0.37952  1.0000
  H   H592      1.0  0.54723  0.60295  0.02328  1.0000
  Fe  Fe71      1.0  0.60020  0.55264  0.11748  1.0000
  S   S138      1.0  0.61267  0.59283  0.10208  1.0000
  H   H593      1.0  0.58311  0.54645  0.47671  1.0000
  C   C501      1.0  0.60873  0.96360  0.25354  1.0000
  H   H594      1.0  0.39868  0.51885  0.23466  1.0000
  S   S139      1.0  0.55808  0.54344  0.11888  1.0000
  C   C502      1.0  0.63970  0.59893  0.07680  1.0000
  H   H595      1.0  0.51807  0.52889  0.06419  1.0000
  C   C503      1.0  0.64988  0.57992  0.05578  1.0000
  C   C504      1.0  0.35988  0.89781  0.16108  1.0000
  H   H596      1.0  0.64131  0.56098  0.05469  1.0000
  H   H597      1.0  0.47664  0.60642  0.22337  1.0000
  H   H598      1.0  0.37318  0.96405  0.47992  1.0000
  N   N35       1.0  0.57286  0.57140  0.01094  1.0000
  C   C505      1.0  0.35066  0.60714  0.33388  1.0000
  H   H599      1.0  0.43803  0.54194  0.30573  1.0000
  C   C506      1.0  0.38174  0.95310  0.50100  1.0000
  H   H600      1.0  0.62224  0.56335  0.47392  1.0000
  C   C507      1.0  0.51373  0.51940  0.04093  1.0000
  C   C508      1.0  0.35675  0.58120  0.34095  1.0000
  C   C509      1.0  0.51411  0.99848  0.28475  1.0000
  C   C510      1.0  0.66230  0.94907  0.33986  1.0000
  C   C511      1.0  0.64078  0.93399  0.33283  1.0000
  C   C512      1.0  0.64379  0.91006  0.31653  1.0000
  H   H601      1.0  0.62186  0.94079  0.33989  1.0000
  H   H602      1.0  0.62708  0.89846  0.31116  1.0000
  C   C513      1.0  0.39226  0.56778  0.25540  1.0000
  C   C514      1.0  0.44824  0.53731  0.22128  1.0000
  H   H603      1.0  0.38693  0.87538  0.13271  1.0000
  H   H604      1.0  0.66877  0.93690  0.24172  1.0000
  H   H605      1.0  0.34732  0.54152  0.33088  1.0000
  C   C515      1.0  0.55566  0.58522  0.03462  1.0000
  C   C516      1.0  0.49499  0.98706  0.26489  1.0000
  C   C517      1.0  0.48853  0.99749  0.23373  1.0000
  H   H606      1.0  0.51891  0.99031  0.30870  1.0000
  H   H607      1.0  0.48512  0.97004  0.27369  1.0000
  S   S140      1.0  0.60654  0.53991  0.16988  1.0000
  C   C518      1.0  0.62210  0.58162  0.48697  1.0000
  C   C519      1.0  0.37220  0.92741  0.08039  1.0000
  C   C520      1.0  0.52179  0.52557  0.24107  1.0000
  H   H608      1.0  0.39137  0.93537  0.07992  1.0000
  C   C521      1.0  0.67123  0.58547  0.03580  1.0000
  H   H609      1.0  0.66305  0.53258  0.14242  1.0000
  H   H610      1.0  0.42628  0.57469  0.30456  1.0000
  H   H611      1.0  0.64320  0.63835  0.09370  1.0000
  C   C522      1.0  0.64012  0.60003  0.47723  1.0000
  H   H612      1.0  0.44208  0.51744  0.22037  1.0000
  H   H613      1.0  0.65636  0.63735  0.48692  1.0000
  H   H614      1.0  0.59480  0.53562  0.01163  1.0000
  C   C523      1.0  0.64179  0.62351  0.49400  1.0000
  C   C524      1.0  0.61698  0.98698  0.26859  1.0000
  C   C525      1.0  0.49437  0.52942  0.02005  1.0000
  C   C526      1.0  0.66826  0.90118  0.30689  1.0000
  C   C527      1.0  0.46841  0.58724  0.22251  1.0000
  C   C528      1.0  0.43635  0.55611  0.24219  1.0000
  N   N36       1.0  0.41406  0.55027  0.26369  1.0000
  C   C529      1.0  0.47953  0.56841  0.20224  1.0000
  C   C530      1.0  0.42126  0.55431  0.29890  1.0000
  H   H615      1.0  0.57854  0.97962  0.20338  1.0000
  H   H616      1.0  0.38739  0.56665  0.22853  1.0000
  C   C531      1.0  0.56918  0.97888  0.22821  1.0000
  H   H617      1.0  0.48402  0.54674  0.02734  1.0000
  Fe  Fe72      1.0  0.44454  0.99987  0.16463  1.0000
  H   H618      1.0  0.43928  0.59647  0.25770  1.0000
  C   C532      1.0  0.57545  0.93312  0.23350  1.0000
  C   C533      1.0  0.56820  0.95877  0.28223  1.0000
  C   C534      1.0  0.49305  0.52641  0.28917  1.0000
  H   H619      1.0  0.52486  0.96164  0.01435  1.0000
  C   C535      1.0  0.44708  0.58129  0.24213  1.0000
  H   H620      1.0  0.35777  0.83933  0.12367  1.0000
  H   H621      1.0  0.47324  0.94847  0.40327  1.0000
  H   H622      1.0  0.37280  0.91403  0.16416  1.0000
  H   H623      1.0  0.56155  0.57351  0.48246  1.0000
  H   H624      1.0  0.54759  0.95329  0.28047  1.0000
  C   C536      1.0  0.40484  0.52324  0.26050  1.0000
  H   H625      1.0  0.66615  0.84320  0.38434  1.0000
  C   C537      1.0  0.57126  0.55706  0.49524  1.0000
  H   H626      1.0  0.55440  0.93002  0.23045  1.0000
  H   H627      1.0  0.49653  0.57281  0.18777  1.0000
  C   C538      1.0  0.46834  0.96336  0.45270  1.0000
  C   C539      1.0  0.36779  0.87604  0.14334  1.0000
  H   H628      1.0  0.58806  0.62162  0.03039  1.0000
  C   C540      1.0  0.41806  0.94502  0.44858  1.0000
  H   H629      1.0  0.36128  0.62244  0.34590  1.0000
  H   H630      1.0  0.39904  0.93719  0.44546  1.0000
  H   H631      1.0  0.37463  0.56289  0.26967  1.0000
  H   H632      1.0  0.38184  0.89483  0.04906  1.0000
  C   C541      1.0  0.35210  0.97771  0.01555  1.0000
  H   H633      1.0  0.45901  0.97605  0.50143  1.0000
  H   H634      1.0  0.42875  0.93206  0.39948  1.0000
  C   C542      1.0  0.36676  0.90444  0.06299  1.0000
  N   N37       1.0  0.58095  0.95848  0.24929  1.0000
  H   H635      1.0  0.54822  0.97567  0.22439  1.0000
  H   H636      1.0  0.39633  0.58832  0.26147  1.0000
  H   H637      1.0  0.65359  0.59580  0.45734  1.0000
  H   H638      1.0  0.38799  0.51957  0.27688  1.0000
  C   C543      1.0  0.65424  0.95111  0.24858  1.0000
  H   H639      1.0  0.58402  0.93177  0.20821  1.0000
  C   C544      1.0  0.35086  0.85555  0.13816  1.0000
  C   C545      1.0  0.62821  0.94571  0.24368  1.0000
  C   C546      1.0  0.45157  0.96665  0.47950  1.0000
  H   H640      1.0  0.56760  0.53605  0.03845  1.0000
  H   H641      1.0  0.53932  0.57289  0.04261  1.0000
  H   H642      1.0  0.59566  0.55417  0.04931  1.0000
  C   C547      1.0  0.42584  0.95776  0.47824  1.0000
  C   C548      1.0  0.67280  0.62889  0.05802  1.0000
  S   S141      1.0  0.54413  0.54200  0.21583  1.0000
  H   H643      1.0  0.51692  0.55820  0.27394  1.0000
  H   H644      1.0  0.49007  0.98068  0.04927  1.0000
  C   C549      1.0  0.46008  0.95104  0.42391  1.0000
  C   C550      1.0  0.43502  0.94185  0.42186  1.0000
  H   H645      1.0  0.57786  0.94516  0.29972  1.0000
  H   H646      1.0  0.36630  0.97556  0.03517  1.0000
  H   H647      1.0  0.62399  0.92716  0.23271  1.0000
  C   C551      1.0  0.49745  0.99129  0.02824  1.0000
  C   C552      1.0  0.52928  0.99821  0.48346  1.0000
  H   H648      1.0  0.40519  0.54942  0.31591  1.0000
  S   S142      1.0  0.40291  0.00964  0.17305  1.0000
  C   C553      1.0  0.58320  0.54830  0.02822  1.0000
  H   H649      1.0  0.57085  0.99846  0.23943  1.0000
  H   H650      1.0  0.56846  0.97829  0.29382  1.0000
  C   C554      1.0  0.46936  0.54359  0.20146  1.0000
  C   C555      1.0  0.59959  0.61259  0.01127  1.0000
  H   H651      1.0  0.48521  0.53655  0.31042  1.0000
  H   H652      1.0  0.56658  0.01131  0.04824  1.0000
  S   S143      1.0  0.61247  0.51440  0.09632  1.0000
  H   H653      1.0  0.62466  0.64563  0.01045  1.0000
  S   S144      1.0  0.45981  0.52879  0.47573  1.0000
  H   H654      1.0  0.65844  0.55975  0.11612  1.0000
  H   H655      1.0  0.48795  0.97029  0.45438  1.0000
  Fe  Fe73      1.0  0.56539  0.52747  0.17005  1.0000
  C   C556      1.0  0.51117  0.53856  0.26859  1.0000
  H   H656      1.0  0.55608  0.54315  0.50283  1.0000
  S   S145      1.0  0.61471  0.01352  0.42299  1.0000
  H   H657      1.0  0.56604  0.59066  0.05782  1.0000
  S   S146      1.0  0.67115  0.87107  0.28646  1.0000
  H   H658      1.0  0.40295  0.00155  0.49681  1.0000
  H   H659      1.0  0.66753  0.56414  0.15858  1.0000
  H   H660      1.0  0.64882  0.00972  0.28590  1.0000
  C   C557      1.0  0.66162  0.97422  0.26345  1.0000
  H   H661      1.0  0.60328  0.00137  0.27715  1.0000
  C   C558      1.0  0.64304  0.99209  0.27348  1.0000
  H   H662      1.0  0.38027  0.93197  0.49610  1.0000
  C   C559      1.0  0.51714  0.98054  0.00837  1.0000
  H   H663      1.0  0.34697  0.67212  0.40039  1.0000
  H   H664      1.0  0.43772  0.01341  0.25959  1.0000
  C   C560      1.0  0.48774  0.51603  0.49465  1.0000
  S   S147      1.0  0.39870  0.51544  0.42951  1.0000
  Fe  Fe74      1.0  0.44188  0.51558  0.42723  1.0000
  H   H665      1.0  0.67558  0.87403  0.36993  1.0000
  H   H666      1.0  0.67645  0.86775  0.41370  1.0000
  H   H667      1.0  0.67616  0.82339  0.43232  1.0000
  S   S148      1.0  0.57488  0.97807  0.86262  1.0000
  H   H668      1.0  0.34721  0.63872  0.85517  1.0000
  Fe  Fe75      1.0  0.61666  0.98961  0.86395  1.0000
  S   S149      1.0  0.65382  0.96768  0.85298  1.0000
  S   S150      1.0  0.55721  0.52578  0.71561  1.0000
  S   S151      1.0  0.55112  0.97931  0.95617  1.0000
  C   C561      1.0  0.44030  0.00443  0.96178  1.0000
  S   S152      1.0  0.46817  0.97270  0.70043  1.0000
  Fe  Fe76      1.0  0.39814  0.98902  0.61595  1.0000
  S   S153      1.0  0.36227  0.97057  0.59384  1.0000
  S   S154      1.0  0.43968  0.97800  0.60842  1.0000
  Fe  Fe77      1.0  0.44548  0.99387  0.66040  1.0000
  H   H669      1.0  0.39373  0.99207  0.53806  1.0000
  H   H670      1.0  0.62734  0.64671  0.53411  1.0000
  H   H671      1.0  0.51540  0.95631  0.90702  1.0000
  C   C562      1.0  0.61202  0.57718  0.97508  1.0000
  S   S155      1.0  0.43838  0.53288  0.87015  1.0000
  C   C563      1.0  0.36411  0.89175  0.58487  1.0000
  Fe  Fe78      1.0  0.62014  0.52910  0.62429  1.0000
  S   S156      1.0  0.64375  0.56593  0.61977  1.0000
  C   C564      1.0  0.47296  0.97758  0.84903  1.0000
  C   C565      1.0  0.60100  0.54402  0.53808  1.0000
  C   C566      1.0  0.60735  0.61040  0.53062  1.0000
  S   S157      1.0  0.57717  0.53368  0.62167  1.0000
  C   C567      1.0  0.66220  0.57648  0.58556  1.0000
  H   H672      1.0  0.35662  0.71753  0.81005  1.0000
  H   H673      1.0  0.42667  0.99521  0.52812  1.0000
  N   N38       1.0  0.40870  0.96106  0.50733  1.0000
  H   H674      1.0  0.64657  0.58315  0.94647  1.0000
  N   N39       1.0  0.58649  0.56620  0.52414  1.0000
  H   H675      1.0  0.55669  0.59224  0.54116  1.0000
  H   H676      1.0  0.53972  0.55182  0.99081  1.0000
  H   H677      1.0  0.57778  0.58007  0.57360  1.0000
  H   H678      1.0  0.65127  0.66559  0.63270  1.0000
  H   H679      1.0  0.36070  0.81644  0.59888  1.0000
  C   C568      1.0  0.45676  0.01092  0.90623  1.0000
  S   S158      1.0  0.40329  0.00157  0.66924  1.0000
  H   H680      1.0  0.62910  0.88785  0.79366  1.0000
  H   H681      1.0  0.60983  0.55788  0.96521  1.0000
  C   C569      1.0  0.65922  0.93927  0.82926  1.0000
  C   C570      1.0  0.63918  0.92326  0.81892  1.0000
  C   C571      1.0  0.47159  0.98778  0.90793  1.0000
  H   H682      1.0  0.61952  0.92851  0.82469  1.0000
  C   C572      1.0  0.67015  0.89321  0.79374  1.0000
  S   S159      1.0  0.35794  0.54040  0.86877  1.0000
  C   C573      1.0  0.35436  0.93785  0.58561  1.0000
  H   H683      1.0  0.55385  0.55983  0.55625  1.0000
  C   C574      1.0  0.35425  0.99775  0.99272  1.0000
  H   H684      1.0  0.49651  0.98889  0.55621  1.0000
  C   C575      1.0  0.51843  0.98751  0.77545  1.0000
  C   C576      1.0  0.50220  0.97483  0.75268  1.0000
  H   H685      1.0  0.59578  0.61542  0.55194  1.0000
  H   H686      1.0  0.35656  0.75355  0.85079  1.0000
  H   H687      1.0  0.49817  0.95449  0.75579  1.0000
  C   C577      1.0  0.63311  0.59146  0.96413  1.0000
  H   H688      1.0  0.61469  0.53539  0.51995  1.0000
  S   S160      1.0  0.46342  0.53053  0.96492  1.0000
  C   C578      1.0  0.49085  0.98841  0.72616  1.0000
  C   C579      1.0  0.49500  0.52535  0.52607  1.0000
  C   C580      1.0  0.34658  0.80157  0.65750  1.0000
  C   C581      1.0  0.36805  0.57893  0.82243  1.0000
  H   H689      1.0  0.36601  0.78196  0.59918  1.0000
  H   H690      1.0  0.38799  0.57290  0.82356  1.0000
  H   H691      1.0  0.37493  0.60954  0.78717  1.0000
  H   H692      1.0  0.42901  0.01123  0.73699  1.0000
  H   H693      1.0  0.45385  0.97053  0.98705  1.0000
  C   C582      1.0  0.34972  0.56615  0.84164  1.0000
  C   C583      1.0  0.34927  0.71452  0.83493  1.0000
  C   C584      1.0  0.50199  0.99777  0.53298  1.0000
  C   C585      1.0  0.41870  0.94521  0.53516  1.0000
  N   N40       1.0  0.48840  0.98014  0.87984  1.0000
  S   S161      1.0  0.61429  0.00580  0.91589  1.0000
  H   H694      1.0  0.38894  0.92104  0.60576  1.0000
  H   H695      1.0  0.65229  0.68533  0.66903  1.0000
  H   H696      1.0  0.65848  0.54166  0.55664  1.0000
  H   H697      1.0  0.61223  0.54998  0.56031  1.0000
  C   C586      1.0  0.48818  0.51713  0.98994  1.0000
  C   C587      1.0  0.50806  0.00030  0.87476  1.0000
  Fe  Fe79      1.0  0.39701  0.52034  0.87467  1.0000
  H   H698      1.0  0.51972  0.00285  0.89768  1.0000
  H   H699      1.0  0.45682  0.96387  0.85265  1.0000
  H   H700      1.0  0.52214  0.52254  0.56663  1.0000
  C   C588      1.0  0.62550  0.62865  0.52067  1.0000
  C   C589      1.0  0.50171  0.51623  0.78549  1.0000
  C   C590      1.0  0.56795  0.57517  0.54985  1.0000
  H   H701      1.0  0.51473  0.95009  0.86360  1.0000
  C   C591      1.0  0.66633  0.56095  0.55756  1.0000
  H   H702      1.0  0.37705  0.87598  0.59083  1.0000
  H   H703      1.0  0.53064  0.54432  0.77319  1.0000
  H   H704      1.0  0.36920  0.95690  0.52293  1.0000
  C   C592      1.0  0.37093  0.91729  0.59330  1.0000
  H   H705      1.0  0.54988  0.57964  0.96773  1.0000
  H   H706      1.0  0.63965  0.69849  0.63120  1.0000
  C   C593      1.0  0.59454  0.58731  0.99897  1.0000
  C   C594      1.0  0.46990  0.97323  0.93779  1.0000
  H   H707      1.0  0.40671  0.94767  0.55783  1.0000
  C   C595      1.0  0.64467  0.90024  0.80137  1.0000
  H   H708      1.0  0.48869  0.93897  0.88880  1.0000
  H   H709      1.0  0.43862  0.95063  0.54218  1.0000
  H   H710      1.0  0.46480  0.99637  0.84065  1.0000
  C   C596      1.0  0.40802  0.98860  0.51788  1.0000
  C   C597      1.0  0.62069  0.62672  0.00003  1.0000
  C   C598      1.0  0.36058  0.59968  0.80179  1.0000
  Fe  Fe80      1.0  0.57198  0.99779  0.91263  1.0000
  C   C599      1.0  0.52201  0.52612  0.76628  1.0000
  C   C600      1.0  0.52678  0.99399  0.98077  1.0000
  H   H711      1.0  0.48479  0.97024  0.82790  1.0000
  H   H712      1.0  0.59064  0.00626  0.00136  1.0000
  H   H713      1.0  0.52136  0.99523  0.85409  1.0000
  H   H714      1.0  0.56742  0.54961  0.96540  1.0000
  H   H715      1.0  0.52690  0.97694  0.79588  1.0000
  H   H716      1.0  0.41893  0.92427  0.52870  1.0000
  C   C601      1.0  0.50226  0.95525  0.88517  1.0000
  C   C602      1.0  0.60492  0.58633  0.51375  1.0000
  H   H717      1.0  0.66942  0.83864  0.83516  1.0000
  H   H718      1.0  0.53153  0.96946  0.52206  1.0000
  H   H719      1.0  0.35660  0.64449  0.89727  1.0000
  C   C603      1.0  0.55688  0.56281  0.98248  1.0000
  C   C604      1.0  0.63743  0.61618  0.97659  1.0000
  H   H720      1.0  0.65429  0.62687  0.96893  1.0000
  H   H721      1.0  0.64790  0.85260  0.88575  1.0000
  H   H722      1.0  0.66830  0.70305  0.58180  1.0000
  H   H723      1.0  0.36276  0.78790  0.66235  1.0000
  H   H724      1.0  0.48338  0.54005  0.53815  1.0000
  H   H725      1.0  0.67614  0.88233  0.86460  1.0000
  C   C605      1.0  0.34929  0.73475  0.85781  1.0000
  C   C606      1.0  0.65491  0.68566  0.64164  1.0000
  H   H726      1.0  0.48098  0.95581  0.94195  1.0000
  C   C607      1.0  0.52187  0.98684  0.51364  1.0000
  H   H727      1.0  0.42335  0.00975  0.78100  1.0000
  H   H728      1.0  0.49485  0.52671  0.80704  1.0000
  C   C608      1.0  0.66363  0.84256  0.89956  1.0000
  H   H729      1.0  0.58796  0.52827  0.54592  1.0000
  H   H730      1.0  0.65746  0.82208  0.90194  1.0000
  H   H731      1.0  0.35494  0.82132  0.65591  1.0000
  C   C609      1.0  0.35094  0.79732  0.59853  1.0000
  H   H732      1.0  0.42919  0.01121  0.98292  1.0000
  H   H733      1.0  0.67038  0.61316  0.60857  1.0000
  C   C610      1.0  0.45429  0.98146  0.96409  1.0000
  H   H734      1.0  0.66459  0.85154  0.92467  1.0000
  C   C611      1.0  0.67326  0.60119  0.58682  1.0000
  H   H735      1.0  0.37016  0.01111  0.99451  1.0000
  C   C612      1.0  0.51698  0.51556  0.54220  1.0000
  S   S162      1.0  0.67644  0.86352  0.77324  1.0000
  Fe  Fe81      1.0  0.77754  0.36526  0.26079  1.0000
  S   S163      1.0  0.74022  0.36936  0.28855  1.0000
  S   S164      1.0  0.80970  0.39473  0.26046  1.0000
  Fe  Fe82      1.0  0.76149  0.31481  0.22688  1.0000
  S   S165      1.0  0.72305  0.31518  0.25208  1.0000
  S   S166      1.0  0.77919  0.28259  0.19543  1.0000
  Fe  Fe83      1.0  0.72153  0.35780  0.24039  1.0000
  C   C613      1.0  0.84305  0.33201  0.36522  1.0000
  Fe  Fe84      1.0  0.74464  0.32656  0.29801  1.0000
  S   S167      1.0  0.73441  0.31051  0.34880  1.0000
  S   S168      1.0  0.75861  0.35656  0.21161  1.0000
  S   S169      1.0  0.78332  0.32346  0.27392  1.0000
  H   H736      1.0  0.68400  0.14559  0.46174  1.0000
  S   S170      1.0  0.77851  0.15062  0.47470  1.0000
  S   S171      1.0  0.89137  0.49945  0.34616  1.0000
  Fe  Fe85      1.0  0.74637  0.18708  0.04795  1.0000
  C   C614      1.0  0.88177  0.35822  0.35703  1.0000
  S   S172      1.0  0.72580  0.20956  0.08885  1.0000
  Fe  Fe86      1.0  0.76810  0.19260  0.46745  1.0000
  S   S173      1.0  0.77798  0.20792  0.41598  1.0000
  H   H737      1.0  0.89297  0.36534  0.30648  1.0000
  H   H738      1.0  0.83841  0.48038  0.35482  1.0000
  H   H739      1.0  0.83754  0.17971  0.10558  1.0000
  S   S174      1.0  0.75557  0.14496  0.05612  1.0000
  C   C615      1.0  0.82317  0.47328  0.33771  1.0000
  C   C616      1.0  0.71872  0.04034  0.35165  1.0000
  C   C617      1.0  0.00955  0.01564  0.37452  1.0000
  S   S175      1.0  0.86262  0.03060  0.10401  1.0000
  N   N41       1.0  0.70263  0.05138  0.37862  1.0000
  H   H740      1.0  0.97046  0.44694  0.07502  1.0000
  Fe  Fe87      1.0  0.89917  0.46803  0.38317  1.0000
  S   S176      1.0  0.87951  0.42883  0.38230  1.0000
  H   H741      1.0  0.76624  0.10358  0.42519  1.0000
  C   C618      1.0  0.97663  0.50556  0.49857  1.0000
  S   S177      1.0  0.88778  0.49245  0.42699  1.0000
  S   S178      1.0  0.94155  0.47708  0.38842  1.0000
  C   C619      1.0  0.96349  0.46620  0.06920  1.0000
  C   C620      1.0  0.70312  0.03323  0.40717  1.0000
  H   H742      1.0  0.79647  0.35174  0.37715  1.0000
  H   H743      1.0  0.74906  0.06178  0.40844  1.0000
  H   H744      1.0  0.84276  0.28376  0.38912  1.0000
  C   C621      1.0  0.70145  0.22131  0.36317  1.0000
  H   H745      1.0  0.73342  0.20418  0.24532  1.0000
  H   H746      1.0  0.90672  0.01854  0.33704  1.0000
  H   H747      1.0  0.86945  0.04028  0.02306  1.0000
  C   C622      1.0  0.71920  0.20176  0.36987  1.0000
  C   C623      1.0  0.69539  0.25483  0.26708  1.0000
  C   C624      1.0  0.84126  0.11184  0.06658  1.0000
  C   C625      1.0  0.82387  0.09147  0.06442  1.0000
  C   C626      1.0  0.83088  0.06674  0.07593  1.0000
  C   C627      1.0  0.85526  0.06214  0.08981  1.0000
  C   C628      1.0  0.87273  0.08251  0.09198  1.0000
  C   C629      1.0  0.86573  0.10726  0.08032  1.0000
  H   H748      1.0  0.80499  0.09475  0.05390  1.0000
  H   H749      1.0  0.81724  0.05110  0.07421  1.0000
  H   H750      1.0  0.89141  0.07932  0.10304  1.0000
  C   C630      1.0  0.85986  0.34079  0.30934  1.0000
  C   C631      1.0  0.82918  0.40310  0.29473  1.0000
  C   C632      1.0  0.85077  0.41866  0.28928  1.0000
  C   C633      1.0  0.86617  0.42686  0.31596  1.0000
  C   C634      1.0  0.86002  0.41963  0.34839  1.0000
  C   C635      1.0  0.83836  0.40410  0.35391  1.0000
  C   C636      1.0  0.82292  0.39592  0.32718  1.0000
  H   H751      1.0  0.85563  0.42441  0.26424  1.0000
  H   H752      1.0  0.88291  0.43863  0.31138  1.0000
  H   H753      1.0  0.83355  0.39837  0.37894  1.0000
  H   H754      1.0  0.80616  0.38418  0.33158  1.0000
  H   H755      1.0  0.72179  0.50263  0.28306  1.0000
  H   H756      1.0  0.86626  0.35042  0.40432  1.0000
  C   C637      1.0  0.74778  0.10268  0.41273  1.0000
  C   C638      1.0  0.74713  0.28216  0.36724  1.0000
  C   C639      1.0  0.76613  0.26722  0.35166  1.0000
  C   C640      1.0  0.77553  0.24466  0.36710  1.0000
  C   C641      1.0  0.76635  0.23705  0.39842  1.0000
  C   C642      1.0  0.74777  0.25230  0.41430  1.0000
  C   C643      1.0  0.73817  0.27471  0.39869  1.0000
  H   H757      1.0  0.77369  0.27308  0.32788  1.0000
  H   H758      1.0  0.78994  0.23294  0.35472  1.0000
  H   H759      1.0  0.74051  0.24660  0.43836  1.0000
  H   H760      1.0  0.72357  0.28625  0.41099  1.0000
  C   C644      1.0  0.76347  0.26470  0.16398  1.0000
  C   C645      1.0  0.73695  0.26051  0.16460  1.0000
  C   C646      1.0  0.72564  0.24382  0.14115  1.0000
  C   C647      1.0  0.74060  0.23163  0.11650  1.0000
  C   C648      1.0  0.76694  0.23664  0.11515  1.0000
  C   C649      1.0  0.77836  0.25275  0.13912  1.0000
  H   H761      1.0  0.72523  0.26981  0.18336  1.0000
  H   H762      1.0  0.70517  0.24033  0.14204  1.0000
  H   H763      1.0  0.77848  0.22803  0.09570  1.0000
  H   H764      1.0  0.79884  0.25614  0.13828  1.0000
  S   S179      1.0  0.83301  0.14333  0.05305  1.0000
  C   C650      1.0  0.94736  0.47003  0.04204  1.0000
  H   H765      1.0  0.72056  0.19367  0.39466  1.0000
  H   H766      1.0  0.86752  0.08945  0.18550  1.0000
  N   N42       1.0  0.80270  0.49293  0.33216  1.0000
  H   H767      1.0  0.72291  0.02833  0.41541  1.0000
  C   C651      1.0  0.71005  0.12437  0.39171  1.0000
  H   H768      1.0  0.70911  0.49585  0.01258  1.0000
  H   H769      1.0  0.79188  0.32418  0.35087  1.0000
  C   C652      1.0  0.73954  0.46605  0.27185  1.0000
  C   C653      1.0  0.71593  0.21656  0.24624  1.0000
  H   H770      1.0  0.81064  0.31748  0.43761  1.0000
  H   H771      1.0  0.68676  0.24832  0.32875  1.0000
  C   C654      1.0  0.73555  0.20503  0.31378  1.0000
  H   H772      1.0  0.82535  0.34754  0.42712  1.0000
  H   H773      1.0  0.83310  0.46812  0.31413  1.0000
  H   H774      1.0  0.84459  0.19792  0.14234  1.0000
  H   H775      1.0  0.78170  0.32285  0.39279  1.0000
  H   H776      1.0  0.71146  0.42040  0.21983  1.0000
  C   C655      1.0  0.84200  0.32896  0.33020  1.0000
  H   H777      1.0  0.84465  0.31845  0.43216  1.0000
  Fe  Fe88      1.0  0.92924  0.50434  0.42938  1.0000
  H   H778      1.0  0.81907  0.28569  0.35689  1.0000
  H   H779      1.0  0.99323  0.48746  0.45546  1.0000
  Fe  Fe89      1.0  0.79354  0.15392  0.03247  1.0000
  N   N43       1.0  0.90892  0.02916  0.01392  1.0000
  H   H780      1.0  0.99248  0.48633  0.32736  1.0000
  H   H781      1.0  0.82995  0.08328  0.14912  1.0000
  Fe  Fe90      1.0  0.74099  0.14763  0.50200  1.0000
  C   C656      1.0  0.73756  0.07878  0.40345  1.0000
  H   H782      1.0  0.89678  0.37034  0.36726  1.0000
  H   H783      1.0  0.68886  0.06497  0.48596  1.0000
  H   H784      1.0  0.76211  0.43151  0.26414  1.0000
  C   C657      1.0  0.00817  0.02763  0.01430  1.0000
  C   C658      1.0  0.70051  0.23279  0.33176  1.0000
  H   H785      1.0  0.75088  0.17936  0.35127  1.0000
  H   H786      1.0  0.00440  0.03434  0.36251  1.0000
  H   H787      1.0  0.85436  0.17113  0.18636  1.0000
  C   C659      1.0  0.69431  0.49643  0.06248  1.0000
  S   S180      1.0  0.72913  0.18872  0.49137  1.0000
  N   N44       1.0  0.82299  0.32041  0.38651  1.0000
  C   C660      1.0  0.79727  0.33023  0.37641  1.0000
  H   H788      1.0  0.75886  0.23928  0.27094  1.0000
  C   C661      1.0  0.82617  0.32631  0.42240  1.0000
  H   H789      1.0  0.74263  0.26751  0.28637  1.0000
  H   H790      1.0  0.93679  0.02468  0.38231  1.0000
  C   C662      1.0  0.68938  0.10578  0.47557  1.0000
  C   C663      1.0  0.86379  0.34675  0.37813  1.0000
  H   H791      1.0  0.85792  0.33916  0.28258  1.0000
  H   H792      1.0  0.99226  0.02085  0.43644  1.0000
  C   C664      1.0  0.74138  0.25151  0.26795  1.0000
  H   H793      1.0  0.80906  0.28237  0.39895  1.0000
  C   C665      1.0  0.82353  0.29187  0.38268  1.0000
  C   C666      1.0  0.87963  0.35550  0.32273  1.0000
  H   H794      1.0  0.69544  0.26305  0.24150  1.0000
  C   C667      1.0  0.69264  0.42389  0.20927  1.0000
  C   C668      1.0  0.76116  0.45040  0.27602  1.0000
  H   H795      1.0  0.78196  0.48500  0.37715  1.0000
  C   C669      1.0  0.78127  0.48341  0.31133  1.0000
  H   H796      1.0  0.69915  0.14207  0.38797  1.0000
  H   H797      1.0  0.82701  0.31782  0.31861  1.0000
  H   H798      1.0  0.80464  0.11970  0.13018  1.0000
  C   C670      1.0  0.93901  0.49493  0.03374  1.0000
  H   H799      1.0  0.80894  0.50602  0.38250  1.0000
  H   H800      1.0  0.69934  0.46434  0.19978  1.0000
  C   C671      1.0  0.78180  0.45888  0.29530  1.0000
  C   C672      1.0  0.69944  0.10056  0.38280  1.0000
  H   H801      1.0  0.72358  0.45926  0.25698  1.0000
  H   H802      1.0  0.87948  0.13345  0.20400  1.0000
  C   C673      1.0  0.83483  0.10260  0.15753  1.0000
  C   C674      1.0  0.73858  0.49042  0.28665  1.0000
  C   C675      1.0  0.73406  0.12542  0.40686  1.0000
  H   H803      1.0  0.74252  0.26031  0.24276  1.0000
  C   C676      1.0  0.00955  0.46529  0.01298  1.0000
  C   C677      1.0  0.99663  0.49403  0.48052  1.0000
  C   C678      1.0  0.73628  0.19369  0.34528  1.0000
  H   H804      1.0  0.79796  0.44581  0.29709  1.0000
  H   H805      1.0  0.73894  0.03718  0.35968  1.0000
  H   H806      1.0  0.00767  0.44448  0.01262  1.0000
  C   C679      1.0  0.99811  0.49521  0.30420  1.0000
  C   C680      1.0  0.97730  0.01895  0.41681  1.0000
  H   H807      1.0  0.69624  0.27177  0.28419  1.0000
  N   N45       1.0  0.81173  0.17256  0.14619  1.0000
  C   C681      1.0  0.80166  0.18669  0.17560  1.0000
  C   C682      1.0  0.82869  0.19005  0.12708  1.0000
  C   C683      1.0  0.78946  0.16617  0.12473  1.0000
  C   C684      1.0  0.82657  0.14948  0.15697  1.0000
  C   C685      1.0  0.84828  0.15228  0.17801  1.0000
  C   C686      1.0  0.82030  0.12388  0.14691  1.0000
  C   C687      1.0  0.86280  0.13085  0.18825  1.0000
  H   H808      1.0  0.87921  0.12301  0.08229  1.0000
  C   C688      1.0  0.85609  0.10606  0.17797  1.0000
  H   H809      1.0  0.78926  0.20339  0.16822  1.0000
  H   H810      1.0  0.78989  0.17374  0.19144  1.0000
  H   H811      1.0  0.81722  0.19485  0.19122  1.0000
  H   H812      1.0  0.00373  0.50816  0.40192  1.0000
  H   H813      1.0  0.81792  0.20697  0.11698  1.0000
  C   C689      1.0  0.71292  0.07692  0.38851  1.0000
  H   H814      1.0  0.77556  0.15336  0.13757  1.0000
  H   H815      1.0  0.77845  0.18368  0.11702  1.0000
  H   H816      1.0  0.79592  0.15664  0.10141  1.0000
  C   C690      1.0  0.71741  0.22474  0.30587  1.0000
  H   H817      1.0  0.74186  0.14385  0.41469  1.0000
  H   H818      1.0  0.97261  0.03904  0.40891  1.0000
  S   S181      1.0  0.78526  0.19655  0.02744  1.0000
  C   C691      1.0  0.91916  0.04459  0.04194  1.0000
  H   H819      1.0  0.68889  0.22820  0.38283  1.0000
  S   S182      1.0  0.94043  0.02413  0.12116  1.0000
  N   N46       1.0  0.71734  0.23675  0.27246  1.0000
  C   C692      1.0  0.70692  0.50700  0.03525  1.0000
  H   H820      1.0  0.92049  0.06551  0.03600  1.0000
  H   H821      1.0  0.68184  0.50151  0.11228  1.0000
  H   H822      1.0  0.71419  0.22521  0.22095  1.0000
  H   H823      1.0  0.69280  0.04156  0.42885  1.0000
  H   H824      1.0  0.92720  0.49692  0.01179  1.0000
  C   C693      1.0  0.00603  0.02963  0.25965  1.0000
  H   H825      1.0  0.74982  0.19875  0.29601  1.0000
  H   H826      1.0  0.71910  0.05346  0.32976  1.0000
  C   C694      1.0  0.69145  0.51076  0.09173  1.0000
  C   C695      1.0  0.97157  0.48729  0.08794  1.0000
  H   H827      1.0  0.98492  0.48432  0.10830  1.0000
  H   H828      1.0  0.98518  0.02401  0.05884  1.0000
  H   H829      1.0  0.90661  0.04327  0.06422  1.0000
  H   H830      1.0  0.81538  0.45541  0.34918  1.0000
  S   S183      1.0  0.96965  0.03100  0.20998  1.0000
  C   C696      1.0  0.99297  0.01413  0.03738  1.0000
  S   S184      1.0  0.68245  0.37225  0.22229  1.0000
  C   C697      1.0  0.68571  0.44872  0.19786  1.0000
  H   H831      1.0  0.68037  0.10124  0.37226  1.0000
  H   H832      1.0  0.94204  0.45374  0.02653  1.0000
  C   C698      1.0  0.75917  0.49911  0.30596  1.0000
  H   H833      1.0  0.93866  0.03765  0.04911  1.0000
  H   H834      1.0  0.00427  0.05049  0.25975  1.0000
  C   C699      1.0  0.79296  0.50090  0.36533  1.0000
  S   S185      1.0  0.71836  0.11025  0.49774  1.0000
  H   H835      1.0  0.00854  0.04429  0.16339  1.0000
  Fe  Fe91      1.0  0.93268  0.51069  0.35432  1.0000
  H   H836      1.0  0.00151  0.03838  0.12044  1.0000
  H   H837      1.0  0.82116  0.51048  0.29016  1.0000
  H   H838      1.0  0.71131  0.02122  0.34320  1.0000
  C   C700      1.0  0.67917  0.08075  0.47345  1.0000
  S   S186      1.0  0.94600  0.51197  0.48084  1.0000
  C   C701      1.0  0.96328  0.51229  0.07992  1.0000
  H   H839      1.0  0.69903  0.20384  0.25013  1.0000
  C   C702      1.0  0.99092  0.01502  0.23768  1.0000
  H   H840      1.0  0.68677  0.47695  0.06103  1.0000
  H   H841      1.0  0.69377  0.01447  0.40101  1.0000
  Fe  Fe92      1.0  0.79820  0.34589  0.78707  1.0000
  S   S187      1.0  0.75955  0.35473  0.80918  1.0000
  S   S188      1.0  0.83639  0.35486  0.81212  1.0000
  Fe  Fe93      1.0  0.77434  0.31574  0.72889  1.0000
  S   S189      1.0  0.73380  0.32235  0.74698  1.0000
  S   S190      1.0  0.78895  0.29707  0.68115  1.0000
  Fe  Fe94      1.0  0.74662  0.36320  0.75693  1.0000
  S   S191      1.0  0.72759  0.40217  0.74653  1.0000
  Fe  Fe95      1.0  0.75020  0.31324  0.79775  1.0000
  S   S192      1.0  0.72864  0.28962  0.83633  1.0000
  S   S193      1.0  0.78619  0.35719  0.73563  1.0000
  S   S194      1.0  0.78968  0.30370  0.77884  1.0000
  C   C703      1.0  0.00484  0.04720  0.62626  1.0000
  S   S195      1.0  0.77966  0.14491  0.98115  1.0000
  H   H842      1.0  0.84303  0.01442  0.66666  1.0000
  Fe  Fe96      1.0  0.75001  0.19847  0.53916  1.0000
  H   H843      1.0  0.91415  0.45260  0.81295  1.0000
  S   S196      1.0  0.73107  0.22315  0.57949  1.0000
  Fe  Fe97      1.0  0.76818  0.18679  0.97759  1.0000
  S   S197      1.0  0.78163  0.20528  0.92943  1.0000
  H   H844      1.0  0.77506  0.37125  0.65620  1.0000
  H   H845      1.0  0.74719  0.31654  0.61479  1.0000
  H   H846      1.0  0.73696  0.35982  0.68749  1.0000
  S   S198      1.0  0.75892  0.15693  0.55150  1.0000
  S   S199      1.0  0.93971  0.02912  0.61813  1.0000
  H   H847      1.0  0.88294  0.12629  0.56041  1.0000
  H   H848      1.0  0.99006  0.04809  0.64634  1.0000
  S   S200      1.0  0.85979  0.04166  0.60830  1.0000
  C   C704      1.0  0.95409  0.05381  0.94688  1.0000
  H   H849      1.0  0.88504  0.47992  0.73511  1.0000
  Fe  Fe98      1.0  0.90410  0.48600  0.87727  1.0000
  S   S201      1.0  0.86972  0.46948  0.84963  1.0000
  Fe  Fe99      1.0  0.95060  0.48770  0.92444  1.0000
  S   S202      1.0  0.97705  0.46485  0.95881  1.0000
  C   C705      1.0  0.69192  0.09697  0.96853  1.0000
  S   S203      1.0  0.94636  0.47797  0.86992  1.0000
  H   H850      1.0  0.74498  0.28084  0.96450  1.0000
  H   H851      1.0  0.00226  0.49415  0.90721  1.0000
  H   H852      1.0  0.73064  0.21730  0.82547  1.0000
  C   C706      1.0  0.68563  0.07202  0.95745  1.0000
  S   S204      1.0  0.96487  0.02737  0.70888  1.0000
  H   H853      1.0  0.69854  0.05602  0.96261  1.0000
  C   C707      1.0  0.95922  0.45087  0.69307  1.0000
  H   H854      1.0  0.93432  0.50332  0.79549  1.0000
  C   C708      1.0  0.76536  0.28187  0.95909  1.0000
  H   H855      1.0  0.70086  0.15910  0.92087  1.0000
  H   H856      1.0  0.69067  0.37048  0.70998  1.0000
  C   C709      1.0  0.84213  0.11958  0.55799  1.0000
  C   C710      1.0  0.82251  0.10217  0.56524  1.0000
  C   C711      1.0  0.82837  0.07839  0.58049  1.0000
  C   C712      1.0  0.85389  0.07161  0.58831  1.0000
  C   C713      1.0  0.87356  0.08894  0.58086  1.0000
  C   C714      1.0  0.86765  0.11290  0.56593  1.0000
  H   H857      1.0  0.80281  0.10704  0.55916  1.0000
  H   H858      1.0  0.81303  0.06511  0.58607  1.0000
  H   H859      1.0  0.89325  0.08399  0.58684  1.0000
  C   C715      1.0  0.72668  0.37948  0.62732  1.0000
  C   C716      1.0  0.84546  0.38677  0.82264  1.0000
  C   C717      1.0  0.86883  0.39090  0.83933  1.0000
  C   C718      1.0  0.87657  0.41608  0.84814  1.0000
  C   C719      1.0  0.86094  0.43729  0.84019  1.0000
  C   C720      1.0  0.83767  0.43312  0.82337  1.0000
  C   C721      1.0  0.82989  0.40799  0.81472  1.0000
  H   H860      1.0  0.88098  0.37455  0.84551  1.0000
  H   H861      1.0  0.89451  0.41904  0.86110  1.0000
  H   H862      1.0  0.82546  0.44943  0.81715  1.0000
  H   H863      1.0  0.81186  0.40507  0.80191  1.0000
  C   C722      1.0  0.70626  0.38113  0.60390  1.0000
  H   H864      1.0  0.98036  0.03173  0.91657  1.0000
  H   H865      1.0  0.69995  0.36470  0.58960  1.0000
  C   C723      1.0  0.74343  0.26616  0.86215  1.0000
  C   C724      1.0  0.76834  0.25718  0.85590  1.0000
  C   C725      1.0  0.77974  0.23876  0.87703  1.0000
  C   C726      1.0  0.76639  0.22906  0.90459  1.0000
  C   C727      1.0  0.74123  0.23757  0.91051  1.0000
  C   C728      1.0  0.72982  0.25608  0.88933  1.0000
  H   H866      1.0  0.77872  0.26429  0.83459  1.0000
  H   H867      1.0  0.79903  0.23189  0.87194  1.0000
  H   H868      1.0  0.73061  0.23001  0.93139  1.0000
  H   H869      1.0  0.71041  0.26272  0.89413  1.0000
  C   C729      1.0  0.77202  0.27723  0.65292  1.0000
  C   C730      1.0  0.74650  0.27001  0.65826  1.0000
  C   C731      1.0  0.73405  0.25381  0.63521  1.0000
  C   C732      1.0  0.74694  0.24476  0.60671  1.0000
  C   C733      1.0  0.77205  0.25291  0.60076  1.0000
  C   C734      1.0  0.78459  0.26885  0.62392  1.0000
  H   H870      1.0  0.73655  0.27643  0.68040  1.0000
  H   H871      1.0  0.71448  0.24783  0.63979  1.0000
  H   H872      1.0  0.78181  0.24687  0.57832  1.0000
  H   H873      1.0  0.80420  0.27470  0.61935  1.0000
  H   H874      1.0  0.98726  0.47308  0.66628  1.0000
  H   H875      1.0  0.80953  0.02372  0.62299  1.0000
  Fe  Fe100     1.0  0.89729  0.02027  0.61953  1.0000
  C   C735      1.0  0.00565  0.51012  0.54617  1.0000
  C   C736      1.0  0.92772  0.02927  0.98630  1.0000
  H   H876      1.0  0.72304  0.44222  0.65522  1.0000
  C   C737      1.0  0.73229  0.40223  0.64568  1.0000
  H   H877      1.0  0.98362  0.48341  0.81026  1.0000
  N   N47       1.0  0.81105  0.18188  0.63163  1.0000
  C   C738      1.0  0.80474  0.19679  0.60136  1.0000
  C   C739      1.0  0.83926  0.17705  0.63172  1.0000
  C   C740      1.0  0.79833  0.15630  0.62965  1.0000
  C   C741      1.0  0.80174  0.19657  0.66092  1.0000
  C   C742      1.0  0.77499  0.20059  0.66592  1.0000
  C   C743      1.0  0.81863  0.20877  0.68380  1.0000
  C   C744      1.0  0.76574  0.21535  0.69252  1.0000
  C   C745      1.0  0.80914  0.22391  0.70997  1.0000
  C   C746      1.0  0.78277  0.22719  0.71433  1.0000
  H   H878      1.0  0.81338  0.21639  0.60229  1.0000
  H   H879      1.0  0.81211  0.18713  0.57863  1.0000
  H   H880      1.0  0.78365  0.19919  0.59792  1.0000
  H   H881      1.0  0.84538  0.16505  0.61000  1.0000
  H   H882      1.0  0.84538  0.16643  0.65441  1.0000
  H   H883      1.0  0.85027  0.19534  0.62968  1.0000
  H   H884      1.0  0.80145  0.14500  0.65279  1.0000
  H   H885      1.0  0.77731  0.15791  0.62531  1.0000
  H   H886      1.0  0.80587  0.14457  0.60847  1.0000
  H   H887      1.0  0.76096  0.19319  0.64856  1.0000
  H   H888      1.0  0.83925  0.20744  0.68162  1.0000
  H   H889      1.0  0.74524  0.21855  0.69537  1.0000
  H   H890      1.0  0.82228  0.23372  0.72658  1.0000
  H   H891      1.0  0.77555  0.23952  0.73410  1.0000
  N   N48       1.0  0.81062  0.31475  0.89744  1.0000
  C   C747      1.0  0.82636  0.29874  0.87436  1.0000
  C   C748      1.0  0.79007  0.32736  0.87754  1.0000
  C   C749      1.0  0.82700  0.33548  0.91131  1.0000
  C   C750      1.0  0.80062  0.29854  0.92479  1.0000
  C   C751      1.0  0.81772  0.28349  0.94446  1.0000
  C   C752      1.0  0.77405  0.29735  0.93302  1.0000
  C   C753      1.0  0.69304  0.43582  0.71835  1.0000
  C   C754      1.0  0.80873  0.26771  0.97006  1.0000
  C   C755      1.0  0.94995  0.49614  0.72923  1.0000
  H   H892      1.0  0.81541  0.28176  0.86541  1.0000
  H   H893      1.0  0.83241  0.30988  0.85207  1.0000
  H   H894      1.0  0.84436  0.29148  0.88591  1.0000
  H   H895      1.0  0.77717  0.31286  0.86586  1.0000
  H   H896      1.0  0.79821  0.33911  0.85705  1.0000
  H   H897      1.0  0.77828  0.34100  0.89268  1.0000
  H   H898      1.0  0.84392  0.32762  0.92484  1.0000
  H   H899      1.0  0.83458  0.34829  0.89131  1.0000
  H   H900      1.0  0.81595  0.34788  0.92897  1.0000
  H   H901      1.0  0.83817  0.28358  0.93994  1.0000
  H   H902      1.0  0.75944  0.30771  0.91928  1.0000
  C   C756      1.0  0.69903  0.15031  0.83837  1.0000
  H   H903      1.0  0.68897  0.13223  0.84102  1.0000
  S   S205      1.0  0.83548  0.15023  0.54030  1.0000
  C   C757      1.0  0.78260  0.26690  0.97734  1.0000
  C   C758      1.0  0.70190  0.19076  0.80830  1.0000
  H   H904      1.0  0.72716  0.14298  0.94125  1.0000
  C   C759      1.0  0.96546  0.03105  0.93541  1.0000
  H   H905      1.0  0.93134  0.43299  0.72389  1.0000
  C   C760      1.0  0.72183  0.15487  0.91928  1.0000
  C   C761      1.0  0.73254  0.34561  0.66749  1.0000
  N   N49       1.0  0.74055  0.35500  0.63443  1.0000
  H   H906      1.0  0.72376  0.10355  0.90993  1.0000
  N   N50       1.0  0.91790  0.47257  0.76616  1.0000
  H   H907      1.0  0.87757  0.46559  0.77464  1.0000
  C   C762      1.0  0.92640  0.45260  0.79028  1.0000
  H   H908      1.0  0.94658  0.45592  0.79825  1.0000
  C   C763      1.0  0.93619  0.47345  0.73799  1.0000
  S   S206      1.0  0.72825  0.18049  0.99750  1.0000
  C   C764      1.0  0.94113  0.45090  0.71877  1.0000
  H   H909      1.0  0.89133  0.44621  0.74258  1.0000
  H   H910      1.0  0.77526  0.36874  0.61154  1.0000
  S   S207      1.0  0.72123  0.10138  0.98999  1.0000
  H   H911      1.0  0.69497  0.20363  0.78900  1.0000
  Fe  Fe101     1.0  0.79553  0.16278  0.52328  1.0000
  Fe  Fe102     1.0  0.74078  0.13905  0.00414  1.0000
  H   H912      1.0  0.99056  0.04634  0.76697  1.0000
  H   H913      1.0  0.92532  0.43270  0.78000  1.0000
  C   C765      1.0  0.93538  0.05302  0.97180  1.0000
  H   H914      1.0  0.72012  0.10429  0.86571  1.0000
  C   C766      1.0  0.99852  0.02740  0.76162  1.0000
  H   H915      1.0  0.74615  0.18905  0.86956  1.0000
  H   H916      1.0  0.73207  0.17361  0.92179  1.0000
  C   C767      1.0  0.99542  0.01781  0.52832  1.0000
  H   H917      1.0  0.74248  0.32721  0.67401  1.0000
  H   H918      1.0  0.78594  0.02369  0.65501  1.0000
  H   H919      1.0  0.73990  0.34052  0.58415  1.0000
  C   C768      1.0  0.71627  0.11541  0.88888  1.0000
  C   C769      1.0  0.73536  0.33417  0.60986  1.0000
  H   H920      1.0  0.76261  0.12918  0.86222  1.0000
  H   H921      1.0  0.98321  0.02940  0.54427  1.0000
  H   H922      1.0  0.76339  0.12406  0.90648  1.0000
  N   N51       1.0  0.72832  0.14139  0.88789  1.0000
  C   C770      1.0  0.73081  0.18207  0.85399  1.0000
  C   C771      1.0  0.97266  0.47329  0.68551  1.0000
  H   H923      1.0  0.88611  0.06152  0.99602  1.0000
  C   C772      1.0  0.72203  0.19841  0.82876  1.0000
  H   H924      1.0  0.77970  0.34073  0.63742  1.0000
  C   C773      1.0  0.76877  0.35925  0.63480  1.0000
  C   C774      1.0  0.96780  0.49591  0.70327  1.0000
  H   H925      1.0  0.96318  0.43329  0.67923  1.0000
  H   H926      1.0  0.76744  0.15564  0.89062  1.0000
  C   C775      1.0  0.71959  0.15753  0.85967  1.0000
  H   H927      1.0  0.71506  0.32757  0.61093  1.0000
  C   C776      1.0  0.69048  0.16675  0.81302  1.0000
  S   S208      1.0  0.78806  0.20526  0.51430  1.0000
  C   C777      1.0  0.89190  0.46577  0.75398  1.0000
  H   H928      1.0  0.74632  0.40212  0.66549  1.0000
  H   H929      1.0  0.71148  0.34206  0.66835  1.0000
  C   C778      1.0  0.75661  0.13742  0.88657  1.0000
  S   S209      1.0  0.90793  0.49139  0.93253  1.0000
  H   H930      1.0  0.69512  0.11673  0.89287  1.0000
  H   H931      1.0  0.70403  0.45069  0.73072  1.0000
  H   H932      1.0  0.96004  0.07219  0.93661  1.0000
  C   C779      1.0  0.70013  0.40971  0.72238  1.0000
  C   C780      1.0  0.98122  0.51331  0.53154  1.0000
  C   C781      1.0  0.69270  0.40428  0.59902  1.0000
  C   C782      1.0  0.99439  0.49431  0.79224  1.0000
  C   C783      1.0  0.91564  0.49751  0.78435  1.0000
  H   H933      1.0  0.90165  0.49632  0.80516  1.0000
  C   C784      1.0  0.68578  0.39062  0.70645  1.0000
  H   H934      1.0  0.77563  0.25432  0.99681  1.0000
  H   H935      1.0  0.67957  0.13674  0.97057  1.0000
  H   H936      1.0  0.92723  0.07121  0.98003  1.0000
  H   H937      1.0  0.99455  0.04546  0.60211  1.0000
  C   C785      1.0  0.99641  0.48026  0.98919  1.0000
  H   H938      1.0  0.87631  0.03035  0.98108  1.0000
  H   H939      1.0  0.82201  0.25572  0.98408  1.0000
  H   H940      1.0  0.68785  0.44394  0.61401  1.0000
  C   C786      1.0  0.99916  0.50710  0.98978  1.0000
  C   C787      1.0  0.71888  0.42534  0.64020  1.0000
  C   C788      1.0  0.88421  0.04084  0.00294  1.0000
  H   H941      1.0  0.00254  0.50123  0.86385  1.0000
  C   C789      1.0  0.69906  0.42634  0.61702  1.0000
  H   H942      1.0  0.90859  0.51334  0.76800  1.0000
  C   C790      1.0  0.00927  0.48128  0.76813  1.0000
  H   H943      1.0  0.00965  0.46036  0.76764  1.0000
  H   H944      1.0  0.97870  0.51317  0.69765  1.0000
  H   H945      1.0  0.81860  0.01423  0.69737  1.0000
  H   H946      1.0  0.91766  0.99027  0.28937  1.0000
  S   S210      1.0  0.77421  0.65322  0.02581  1.0000
  Fe  Fe103     1.0  0.73125  0.64424  0.49927  1.0000
  Fe  Fe104     1.0  0.74009  0.69726  0.46739  1.0000
  C   C791      1.0  0.74045  0.82178  0.41416  1.0000
  S   S211      1.0  0.72035  0.72431  0.43059  1.0000
  H   H947      1.0  0.72816  0.57899  0.11862  1.0000
  C   C792      1.0  0.72942  0.79153  0.45753  1.0000
  Fe  Fe105     1.0  0.76618  0.69554  0.03612  1.0000
  S   S212      1.0  0.78272  0.71525  0.08204  1.0000
  S   S213      1.0  0.75139  0.65677  0.45261  1.0000
  H   H948      1.0  0.75773  0.51826  0.31662  1.0000
  Fe  Fe106     1.0  0.70971  0.85533  0.26872  1.0000
  S   S214      1.0  0.74883  0.86457  0.28905  1.0000
  H   H949      1.0  0.72189  0.56573  0.06575  1.0000
  Fe  Fe107     1.0  0.73173  0.81604  0.21812  1.0000
  S   S215      1.0  0.77235  0.82255  0.23446  1.0000
  S   S216      1.0  0.71784  0.78940  0.17719  1.0000
  Fe  Fe108     1.0  0.75571  0.82140  0.28634  1.0000
  S   S217      1.0  0.77582  0.79801  0.32662  1.0000
  Fe  Fe109     1.0  0.76176  0.86484  0.23557  1.0000
  S   S218      1.0  0.78044  0.89864  0.20914  1.0000
  S   S219      1.0  0.71576  0.81222  0.26971  1.0000
  S   S220      1.0  0.72192  0.85825  0.21562  1.0000
  Fe  Fe110     1.0  0.94714  0.98297  0.10565  1.0000
  S   S221      1.0  0.97223  0.96897  0.06289  1.0000
  Fe  Fe111     1.0  0.91155  0.96155  0.16050  1.0000
  S   S222      1.0  0.89847  0.92397  0.18407  1.0000
  S   S223      1.0  0.90542  0.97232  0.10725  1.0000
  S   S224      1.0  0.95417  0.96831  0.15737  1.0000
  H   H950      1.0  0.83849  0.79383  0.05728  1.0000
  S   S225      1.0  0.92261  0.53847  0.39568  1.0000
  C   C793      1.0  0.93123  0.99273  0.30957  1.0000
  S   S226      1.0  0.84447  0.54675  0.38983  1.0000
  H   H951      1.0  0.82273  0.57722  0.49171  1.0000
  S   S227      1.0  0.72436  0.69369  0.02175  1.0000
  H   H952      1.0  0.69666  0.58894  0.10422  1.0000
  H   H953      1.0  0.75518  0.82879  0.39759  1.0000
  C   C794      1.0  0.95487  0.98003  0.30855  1.0000
  C   C795      1.0  0.70719  0.57805  0.12391  1.0000
  C   C796      1.0  0.98855  0.98770  0.03298  1.0000
  C   C797      1.0  0.99342  0.98810  0.23769  1.0000
  H   H954      1.0  0.70399  0.58883  0.14752  1.0000
  H   H955      1.0  0.98172  0.97656  0.22128  1.0000
  H   H956      1.0  0.72646  0.54026  0.01592  1.0000
  C   C798      1.0  0.81345  0.90533  0.20325  1.0000
  C   C799      1.0  0.83287  0.88869  0.21450  1.0000
  C   C800      1.0  0.85885  0.89461  0.20839  1.0000
  C   C801      1.0  0.86561  0.91726  0.19128  1.0000
  C   C802      1.0  0.84617  0.93387  0.18008  1.0000
  C   C803      1.0  0.82023  0.92785  0.18595  1.0000
  H   H957      1.0  0.82795  0.87138  0.22802  1.0000
  H   H958      1.0  0.87382  0.88172  0.21719  1.0000
  H   H959      1.0  0.85112  0.95133  0.16687  1.0000
  H   H960      1.0  0.80533  0.94083  0.17715  1.0000
  C   C804      1.0  0.83134  0.62108  0.45012  1.0000
  C   C805      1.0  0.81149  0.61030  0.43138  1.0000
  C   C806      1.0  0.81591  0.58765  0.41278  1.0000
  C   C807      1.0  0.84011  0.57548  0.41298  1.0000
  C   C808      1.0  0.85999  0.58624  0.43172  1.0000
  C   C809      1.0  0.85564  0.60906  0.45005  1.0000
  H   H961      1.0  0.79277  0.61947  0.43109  1.0000
  H   H962      1.0  0.80049  0.57953  0.39819  1.0000
  H   H963      1.0  0.87872  0.57702  0.43203  1.0000
  H   H964      1.0  0.73602  0.76013  0.23759  1.0000
  C   C810      1.0  0.76464  0.73636  0.10782  1.0000
  C   C811      1.0  0.73820  0.73978  0.10340  1.0000
  C   C812      1.0  0.72427  0.75622  0.12480  1.0000
  C   C813      1.0  0.73660  0.76952  0.15067  1.0000
  C   C814      1.0  0.76310  0.76636  0.15495  1.0000
  C   C815      1.0  0.77704  0.74975  0.13364  1.0000
  H   H965      1.0  0.72843  0.72958  0.08369  1.0000
  H   H966      1.0  0.70376  0.75856  0.12134  1.0000
  H   H967      1.0  0.77282  0.77647  0.17473  1.0000
  H   H968      1.0  0.79750  0.74720  0.13716  1.0000
  C   C816      1.0  0.73644  0.74294  0.40020  1.0000
  C   C817      1.0  0.72182  0.75623  0.37624  1.0000
  C   C818      1.0  0.73369  0.77248  0.35286  1.0000
  C   C819      1.0  0.76027  0.77612  0.35375  1.0000
  C   C820      1.0  0.77498  0.76233  0.37713  1.0000
  C   C821      1.0  0.76317  0.74568  0.40014  1.0000
  H   H969      1.0  0.70115  0.75414  0.37603  1.0000
  H   H970      1.0  0.72219  0.78241  0.33453  1.0000
  H   H971      1.0  0.79560  0.76484  0.37785  1.0000
  H   H972      1.0  0.77466  0.73552  0.41840  1.0000
  C   C822      1.0  0.81469  0.51548  0.31576  1.0000
  C   C823      1.0  0.72405  0.87263  0.38778  1.0000
  H   H973      1.0  0.96582  0.56573  0.06846  1.0000
  H   H974      1.0  0.00326  0.99621  0.16787  1.0000
  C   C824      1.0  0.97268  0.98341  0.33415  1.0000
  C   C825      1.0  0.78649  0.68930  0.18718  1.0000
  C   C826      1.0  0.69635  0.81858  0.43293  1.0000
  S   S228      1.0  0.90249  0.00129  0.18012  1.0000
  H   H975      1.0  0.70870  0.90961  0.30658  1.0000
  S   S229      1.0  0.70914  0.60652  0.49734  1.0000
  H   H976      1.0  0.96861  0.57034  0.41097  1.0000
  S   S230      1.0  0.95588  0.52801  0.31175  1.0000
  H   H977      1.0  0.93657  0.58269  0.06028  1.0000
  N   N52       1.0  0.69811  0.55092  0.12604  1.0000
  H   H978      1.0  0.00438  0.96502  0.38342  1.0000
  C   C827      1.0  0.74772  0.80287  0.43712  1.0000
  H   H979      1.0  0.97936  0.54197  0.25009  1.0000
  C   C828      1.0  0.70382  0.79936  0.45546  1.0000
  N   N53       1.0  0.78883  0.84456  0.12925  1.0000
  C   C829      1.0  0.76198  0.84808  0.14107  1.0000
  C   C830      1.0  0.80476  0.83727  0.15836  1.0000
  C   C831      1.0  0.79774  0.86991  0.11662  1.0000
  C   C832      1.0  0.79154  0.82458  0.10304  1.0000
  C   C833      1.0  0.77035  0.81032  0.09044  1.0000
  C   C834      1.0  0.81616  0.81839  0.08988  1.0000
  C   C835      1.0  0.77386  0.79091  0.06661  1.0000
  H   H980      1.0  0.74424  0.86814  0.38072  1.0000
  C   C836      1.0  0.99077  0.52644  0.26059  1.0000
  H   H981      1.0  0.75436  0.83003  0.15232  1.0000
  H   H982      1.0  0.76057  0.86336  0.16052  1.0000
  H   H983      1.0  0.74895  0.85432  0.12066  1.0000
  H   H984      1.0  0.79997  0.81749  0.16714  1.0000
  H   H985      1.0  0.80178  0.85089  0.17948  1.0000
  H   H986      1.0  0.82568  0.83767  0.15292  1.0000
  H   H987      1.0  0.78679  0.87579  0.09410  1.0000
  H   H988      1.0  0.79528  0.88549  0.13562  1.0000
  H   H989      1.0  0.81850  0.86971  0.11012  1.0000
  H   H990      1.0  0.75092  0.81320  0.09919  1.0000
  H   H991      1.0  0.83313  0.82846  0.09817  1.0000
  H   H992      1.0  0.75757  0.77975  0.05800  1.0000
  H   H993      1.0  0.99099  0.97354  0.33178  1.0000
  H   H994      1.0  0.73018  0.83094  0.34812  1.0000
  H   H995      1.0  0.68962  0.78996  0.47088  1.0000
  C   C837      1.0  0.00451  0.55691  0.45749  1.0000
  N   N54       1.0  0.00299  0.54946  0.39575  1.0000
  H   H996      1.0  0.71202  0.54832  0.17639  1.0000
  H   H997      1.0  0.71839  0.72271  0.26639  1.0000
  C   C838      1.0  0.71302  0.53763  0.15241  1.0000
  H   H998      1.0  0.80166  0.70185  0.23309  1.0000
  H   H999      1.0  0.83191  0.52227  0.32962  1.0000
  Fe  Fe112     1.0  0.94482  0.00878  0.17342  1.0000
  H   H1000     1.0  0.78101  0.57344  0.46532  1.0000
  C   C839      1.0  0.70099  0.53634  0.09452  1.0000
  C   C840      1.0  0.96717  0.99944  0.36195  1.0000
  H   H1001     1.0  0.80374  0.53632  0.49293  1.0000
  Fe  Fe113     1.0  0.78564  0.66303  0.48531  1.0000
  N   N55       1.0  0.98655  0.00289  0.38851  1.0000
  H   H1002     1.0  0.76779  0.59913  0.49011  1.0000
  H   H1003     1.0  0.75237  0.56843  0.48884  1.0000
  C   C841      1.0  0.81945  0.79869  0.06637  1.0000
  H   H1004     1.0  0.00054  0.99294  0.12384  1.0000
  C   C842      1.0  0.94637  0.51683  0.05274  1.0000
  C   C843      1.0  0.98343  0.57021  0.39113  1.0000
  H   H1005     1.0  0.97262  0.56776  0.36738  1.0000
  N   N56       1.0  0.70716  0.84961  0.38594  1.0000
  C   C844      1.0  0.79835  0.78483  0.05498  1.0000
  C   C845      1.0  0.78460  0.70194  0.21787  1.0000
  H   H1006     1.0  0.73497  0.77601  0.47420  1.0000
  H   H1007     1.0  0.89976  0.53649  0.06529  1.0000
  H   H1008     1.0  0.80445  0.68032  0.17961  1.0000
  H   H1009     1.0  0.73361  0.53560  0.14524  1.0000
  H   H1010     1.0  0.76740  0.67975  0.14138  1.0000
  S   S231      1.0  0.77606  0.70473  0.49707  1.0000
  H   H1011     1.0  0.70353  0.95163  0.33588  1.0000
  H   H1012     1.0  0.72411  0.88097  0.41329  1.0000
  H   H1013     1.0  0.75316  0.76894  0.27426  1.0000
  H   H1014     1.0  0.77002  0.76486  0.23566  1.0000
  C   C846      1.0  0.92517  0.00867  0.33642  1.0000
  C   C847      1.0  0.94455  0.56345  0.06750  1.0000
  H   H1015     1.0  0.79933  0.73674  0.26809  1.0000
  H   H1016     1.0  0.78696  0.70780  0.28779  1.0000
  H   H1017     1.0  0.72261  0.72360  0.21029  1.0000
  H   H1018     1.0  0.80097  0.76901  0.03752  1.0000
  H   H1019     1.0  0.90073  0.56278  0.03589  1.0000
  C   C848      1.0  0.68680  0.94002  0.33061  1.0000
  H   H1020     1.0  0.93734  0.55917  0.09291  1.0000
  S   S232      1.0  0.82612  0.64873  0.47512  1.0000
  Fe  Fe114     1.0  0.89885  0.01283  0.12629  1.0000
  H   H1021     1.0  0.70502  0.85133  0.33275  1.0000
  C   C849      1.0  0.78235  0.72806  0.28053  1.0000
  C   C850      1.0  0.74052  0.71366  0.20514  1.0000
  H   H1022     1.0  0.77973  0.73920  0.30407  1.0000
  C   C851      1.0  0.77147  0.57789  0.48939  1.0000
  N   N57       1.0  0.75908  0.72941  0.25916  1.0000
  C   C852      1.0  0.76147  0.71466  0.22772  1.0000
  C   C853      1.0  0.76556  0.68877  0.16565  1.0000
  H   H1023     1.0  0.95953  0.96769  0.28757  1.0000
  C   C854      1.0  0.75432  0.75699  0.25133  1.0000
  C   C855      1.0  0.73717  0.71957  0.27895  1.0000
  H   H1024     1.0  0.73565  0.72952  0.30349  1.0000
  H   H1025     1.0  0.73934  0.69848  0.28379  1.0000
  H   H1026     1.0  0.87108  0.61729  0.46454  1.0000
  C   C856      1.0  0.68979  0.91621  0.31404  1.0000
  C   C857      1.0  0.74259  0.70077  0.17471  1.0000
  N   N58       1.0  0.93699  0.54297  0.04356  1.0000
  H   H1027     1.0  0.71769  0.88812  0.37033  1.0000
  H   H1028     1.0  0.69740  0.82046  0.35010  1.0000
  C   C858      1.0  0.68297  0.60981  0.03708  1.0000
  C   C859      1.0  0.71403  0.54644  0.06635  1.0000
  Fe  Fe115     1.0  0.88224  0.52445  0.39042  1.0000
  H   H1029     1.0  0.97735  0.96647  0.41126  1.0000
  C   C860      1.0  0.71455  0.83042  0.41153  1.0000
  H   H1030     1.0  0.72661  0.70101  0.15740  1.0000
  H   H1031     1.0  0.90113  0.53059  0.02133  1.0000
  H   H1032     1.0  0.78048  0.51837  0.36424  1.0000
  H   H1033     1.0  0.76749  0.79613  0.43807  1.0000
  C   C861      1.0  0.99431  0.97732  0.40207  1.0000
  H   H1034     1.0  0.88890  0.00349  0.04726  1.0000
  C   C862      1.0  0.90849  0.54314  0.04161  1.0000
  H   H1035     1.0  0.80136  0.53230  0.31405  1.0000
  H   H1036     1.0  0.98376  0.55618  0.45895  1.0000
  C   C863      1.0  0.71012  0.83755  0.35282  1.0000
  H   H1037     1.0  0.99249  0.58963  0.39084  1.0000
  S   S233      1.0  0.71046  0.61502  0.01245  1.0000
  H   H1038     1.0  0.92085  0.99336  0.03703  1.0000
  H   H1039     1.0  0.97082  0.52770  0.09509  1.0000
  H   H1040     1.0  0.97587  0.52377  0.41900  1.0000
  C   C864      1.0  0.98978  0.52427  0.39803  1.0000
  H   H1041     1.0  0.97881  0.51993  0.37502  1.0000
  H   H1042     1.0  0.67869  0.57083  0.01911  1.0000
  H   H1043     1.0  0.70564  0.51782  0.15736  1.0000
  H   H1044     1.0  0.00798  0.97936  0.42312  1.0000
  C   C865      1.0  0.71679  0.53192  0.03722  1.0000
  H   H1045     1.0  0.68162  0.64776  0.05903  1.0000
  C   C866      1.0  0.94752  0.55008  0.01066  1.0000
  C   C867      1.0  0.90329  0.00287  0.02673  1.0000
  H   H1046     1.0  0.96883  0.55064  0.01119  1.0000
  Fe  Fe116     1.0  0.73321  0.65230  0.00785  1.0000
  C   C868      1.0  0.68017  0.85897  0.38889  1.0000
  H   H1047     1.0  0.89500  0.99026  0.00711  1.0000
  H   H1048     1.0  0.68178  0.97792  0.26806  1.0000
  H   H1049     1.0  0.00727  0.54660  0.34247  1.0000
  H   H1050     1.0  0.96023  0.01022  0.42899  1.0000
  C   C869      1.0  0.98310  0.51514  0.29073  1.0000
  C   C870      1.0  0.94276  0.01204  0.36236  1.0000
  C   C871      1.0  0.69013  0.90938  0.80373  1.0000
  S   S234      1.0  0.76636  0.64777  0.53083  1.0000
  C   C872      1.0  0.69119  0.77312  0.66671  1.0000
  Fe  Fe117     1.0  0.73876  0.70389  0.97048  1.0000
  C   C873      1.0  0.75741  0.94081  0.70613  1.0000
  S   S235      1.0  0.71740  0.73158  0.93614  1.0000
  S   S236      1.0  0.95638  0.53003  0.91627  1.0000
  H   H1051     1.0  0.77669  0.61257  0.62020  1.0000
  Fe  Fe118     1.0  0.75381  0.68879  0.54029  1.0000
  S   S237      1.0  0.75556  0.69971  0.59503  1.0000
  S   S238      1.0  0.74385  0.66247  0.95547  1.0000
  C   C874      1.0  0.69222  0.76785  0.63283  1.0000
  Fe  Fe119     1.0  0.71736  0.85159  0.76076  1.0000
  S   S239      1.0  0.75007  0.85552  0.79660  1.0000
  C   C875      1.0  0.75284  0.80976  0.93361  1.0000
  Fe  Fe120     1.0  0.75097  0.82563  0.70779  1.0000
  S   S240      1.0  0.78622  0.82765  0.73981  1.0000
  S   S241      1.0  0.75329  0.81409  0.65330  1.0000
  Fe  Fe121     1.0  0.76025  0.81497  0.78142  1.0000
  S   S242      1.0  0.77688  0.78598  0.81790  1.0000
  Fe  Fe122     1.0  0.77316  0.86785  0.75220  1.0000
  S   S243      1.0  0.79962  0.90216  0.75759  1.0000
  S   S244      1.0  0.72584  0.80974  0.74831  1.0000
  S   S245      1.0  0.73952  0.86710  0.71743  1.0000
  C   C876      1.0  0.99350  0.99085  0.52885  1.0000
  S   S246      1.0  0.97207  0.97447  0.55556  1.0000
  Fe  Fe123     1.0  0.90597  0.96483  0.64388  1.0000
  S   S247      1.0  0.88416  0.92702  0.64856  1.0000
  S   S248      1.0  0.90247  0.98227  0.59318  1.0000
  S   S249      1.0  0.94902  0.96889  0.64499  1.0000
  H   H1052     1.0  0.99522  0.95475  0.00119  1.0000
  H   H1053     1.0  0.80076  0.60370  0.57003  1.0000
  Fe  Fe124     1.0  0.91342  0.53354  0.92125  1.0000
  S   S250      1.0  0.89595  0.56057  0.95991  1.0000
  H   H1054     1.0  0.94179  0.53616  0.99096  1.0000
  N   N59       1.0  0.81091  0.99002  0.65447  1.0000
  C   C877      1.0  0.69321  0.87258  0.87585  1.0000
  H   H1055     1.0  0.73540  0.59062  0.63125  1.0000
  H   H1056     1.0  0.74448  0.68796  0.88614  1.0000
  H   H1057     1.0  0.68366  0.81003  0.85301  1.0000
  C   C878      1.0  0.68906  0.74259  0.62109  1.0000
  H   H1058     1.0  0.74089  0.55048  0.53898  1.0000
  C   C879      1.0  0.79544  0.69407  0.87775  1.0000
  H   H1059     1.0  0.99196  0.97732  0.70753  1.0000
  C   C880      1.0  0.77745  0.65270  0.86519  1.0000
  C   C881      1.0  0.82276  0.90918  0.72689  1.0000
  C   C882      1.0  0.82449  0.89460  0.69771  1.0000
  C   C883      1.0  0.84291  0.90086  0.67353  1.0000
  C   C884      1.0  0.86020  0.92120  0.67869  1.0000
  C   C885      1.0  0.85832  0.93595  0.70771  1.0000
  C   C886      1.0  0.83954  0.93003  0.73164  1.0000
  H   H1060     1.0  0.81155  0.87863  0.69377  1.0000
  H   H1061     1.0  0.84392  0.88976  0.65082  1.0000
  H   H1062     1.0  0.87163  0.95157  0.71202  1.0000
  H   H1063     1.0  0.83824  0.94139  0.75417  1.0000
  C   C887      1.0  0.83553  0.62467  0.94394  1.0000
  C   C888      1.0  0.84038  0.61486  0.97567  1.0000
  C   C889      1.0  0.85869  0.59497  0.98004  1.0000
  C   C890      1.0  0.87193  0.58435  0.95272  1.0000
  C   C891      1.0  0.86663  0.59373  0.92089  1.0000
  C   C892      1.0  0.84869  0.61398  0.91660  1.0000
  H   H1064     1.0  0.76897  0.80030  0.94568  1.0000
  C   C893      1.0  0.71042  0.83306  0.90054  1.0000
  H   H1065     1.0  0.87680  0.58582  0.89972  1.0000
  C   C894      1.0  0.68671  0.75317  0.68910  1.0000
  C   C895      1.0  0.75555  0.73167  0.61071  1.0000
  C   C896      1.0  0.75588  0.73555  0.64529  1.0000
  C   C897      1.0  0.75527  0.76068  0.65881  1.0000
  C   C898      1.0  0.75434  0.78212  0.63776  1.0000
  C   C899      1.0  0.75437  0.77825  0.60320  1.0000
  C   C900      1.0  0.75486  0.75312  0.58969  1.0000
  H   H1066     1.0  0.75645  0.71904  0.66172  1.0000
  H   H1067     1.0  0.75526  0.76345  0.68545  1.0000
  H   H1068     1.0  0.75371  0.79477  0.58677  1.0000
  H   H1069     1.0  0.75466  0.75036  0.56305  1.0000
  C   C901      1.0  0.73397  0.74830  0.90454  1.0000
  C   C902      1.0  0.72003  0.76044  0.87896  1.0000
  C   C903      1.0  0.73284  0.77286  0.85267  1.0000
  C   C904      1.0  0.75970  0.77334  0.85197  1.0000
  C   C905      1.0  0.77356  0.76187  0.87803  1.0000
  C   C906      1.0  0.76079  0.74933  0.90415  1.0000
  H   H1070     1.0  0.69926  0.75979  0.87919  1.0000
  H   H1071     1.0  0.72203  0.78149  0.83257  1.0000
  H   H1072     1.0  0.79434  0.76249  0.87781  1.0000
  H   H1073     1.0  0.77172  0.74040  0.92391  1.0000
  H   H1074     1.0  0.82580  0.57701  0.53584  1.0000
  H   H1075     1.0  0.73730  0.68098  0.84334  1.0000
  C   C907      1.0  0.77361  0.57549  0.54938  1.0000
  H   H1076     1.0  0.74982  0.71174  0.85539  1.0000
  N   N60       1.0  0.78737  0.56954  0.51803  1.0000
  C   C908      1.0  0.99932  0.98868  0.72795  1.0000
  C   C909      1.0  0.69171  0.59516  0.53194  1.0000
  C   C910      1.0  0.81266  0.58251  0.51520  1.0000
  H   H1077     1.0  0.68825  0.81243  0.93862  1.0000
  Fe  Fe125     1.0  0.78428  0.66584  0.97414  1.0000
  C   C911      1.0  0.75686  0.82504  0.90569  1.0000
  H   H1078     1.0  0.70982  0.90425  0.79794  1.0000
  N   N61       1.0  0.77766  0.68034  0.85513  1.0000
  C   C912      1.0  0.78584  0.68449  0.82032  1.0000
  C   C913      1.0  0.79472  0.66410  0.79942  1.0000
  C   C914      1.0  0.78552  0.70976  0.80651  1.0000
  C   C915      1.0  0.80230  0.66886  0.76664  1.0000
  C   C916      1.0  0.79309  0.71430  0.77378  1.0000
  C   C917      1.0  0.80140  0.69387  0.75382  1.0000
  H   H1079     1.0  0.79711  0.64401  0.86477  1.0000
  H   H1080     1.0  0.76444  0.64106  0.84929  1.0000
  H   H1081     1.0  0.78898  0.69291  0.90409  1.0000
  H   H1082     1.0  0.81517  0.68559  0.87662  1.0000
  H   H1083     1.0  0.79620  0.64435  0.80788  1.0000
  H   H1084     1.0  0.77967  0.72639  0.82105  1.0000
  H   H1085     1.0  0.80911  0.65306  0.75115  1.0000
  H   H1086     1.0  0.79265  0.73389  0.76411  1.0000
  H   H1087     1.0  0.80736  0.69749  0.72846  1.0000
  H   H1088     1.0  0.99572  0.99744  0.61258  1.0000
  H   H1089     1.0  0.98962  0.51879  0.97136  1.0000
  C   C918      1.0  0.79262  0.97282  0.67174  1.0000
  C   C919      1.0  0.93960  0.00636  0.97383  1.0000
  H   H1090     1.0  0.69979  0.65760  0.63751  1.0000
  H   H1091     1.0  0.79717  0.71485  0.87173  1.0000
  H   H1092     1.0  0.93542  0.98739  0.98352  1.0000
  H   H1093     1.0  0.68061  0.67101  0.58747  1.0000
  C   C920      1.0  0.82695  0.97657  0.62915  1.0000
  H   H1094     1.0  0.71808  0.55955  0.59059  1.0000
  C   C921      1.0  0.99329  0.52134  0.79258  1.0000
  H   H1095     1.0  0.00692  0.55607  0.76907  1.0000
  N   N62       1.0  0.83538  0.81302  0.64399  1.0000
  C   C922      1.0  0.84889  0.79983  0.61610  1.0000
  C   C923      1.0  0.82083  0.79289  0.66224  1.0000
  C   C924      1.0  0.81663  0.83180  0.63015  1.0000
  C   C925      1.0  0.85379  0.82720  0.66529  1.0000
  C   C926      1.0  0.85211  0.82719  0.70055  1.0000
  C   C927      1.0  0.87283  0.84327  0.65096  1.0000
  C   C928      1.0  0.86849  0.84229  0.72000  1.0000
  C   C929      1.0  0.88934  0.85802  0.67067  1.0000
  C   C930      1.0  0.88705  0.85767  0.70510  1.0000
  H   H1096     1.0  0.86501  0.78757  0.62546  1.0000
  H   H1097     1.0  0.83574  0.78713  0.60166  1.0000
  H   H1098     1.0  0.85674  0.81359  0.59764  1.0000
  H   H1099     1.0  0.83396  0.77936  0.67552  1.0000
  H   H1100     1.0  0.80866  0.78112  0.64529  1.0000
  H   H1101     1.0  0.80706  0.80151  0.68033  1.0000
  H   H1102     1.0  0.82613  0.84699  0.61510  1.0000
  H   H1103     1.0  0.80211  0.82212  0.61411  1.0000
  H   H1104     1.0  0.80580  0.84186  0.65035  1.0000
  H   H1105     1.0  0.83791  0.81615  0.71376  1.0000
  H   H1106     1.0  0.87448  0.84562  0.62442  1.0000
  H   H1107     1.0  0.86629  0.84265  0.74679  1.0000
  H   H1108     1.0  0.90308  0.87092  0.65916  1.0000
  H   H1109     1.0  0.89914  0.87001  0.72017  1.0000
  Fe  Fe126     1.0  0.94967  0.52072  0.86233  1.0000
  H   H1110     1.0  0.86269  0.58789  0.00475  1.0000
  H   H1111     1.0  0.70339  0.83392  0.83365  1.0000
  C   C931      1.0  0.68090  0.57034  0.53078  1.0000
  H   H1112     1.0  0.69640  0.78341  0.61566  1.0000
  H   H1113     1.0  0.80158  0.93672  0.64505  1.0000
  C   C932      1.0  0.70042  0.67769  0.64754  1.0000
  H   H1114     1.0  0.77731  0.00282  0.70467  1.0000
  S   S251      1.0  0.97431  0.53865  0.82186  1.0000
  S   S252      1.0  0.81426  0.65105  0.93738  1.0000
  H   H1115     1.0  0.83885  0.96096  0.64046  1.0000
  C   C933      1.0  0.68467  0.93216  0.82164  1.0000
  H   H1116     1.0  0.83939  0.98663  0.69291  1.0000
  H   H1117     1.0  0.77616  0.82736  0.89598  1.0000
  C   C934      1.0  0.77247  0.93057  0.68067  1.0000
  C   C935      1.0  0.79214  0.54127  0.51539  1.0000
  C   C936      1.0  0.95801  0.00739  0.94856  1.0000
  H   H1118     1.0  0.70241  0.69734  0.58631  1.0000
  C   C937      1.0  0.68616  0.83122  0.84961  1.0000
  C   C938      1.0  0.70696  0.81703  0.92886  1.0000
  Fe  Fe127     1.0  0.94495  0.98939  0.59591  1.0000
  H   H1119     1.0  0.80284  0.53400  0.53747  1.0000
  S   S253      1.0  0.71688  0.68413  0.51176  1.0000
  C   C939      1.0  0.77653  0.98274  0.69734  1.0000
  H   H1120     1.0  0.69782  0.88298  0.89930  1.0000
  C   C940      1.0  0.75123  0.69067  0.86010  1.0000
  H   H1121     1.0  0.72487  0.79277  0.96590  1.0000
  H   H1122     1.0  0.68379  0.55836  0.50904  1.0000
  H   H1123     1.0  0.77070  0.65036  0.89127  1.0000
  H   H1124     1.0  0.83046  0.62302  0.99689  1.0000
  H   H1125     1.0  0.74014  0.84736  0.86714  1.0000
  H   H1126     1.0  0.77119  0.91014  0.67487  1.0000
  H   H1127     1.0  0.74456  0.92840  0.71993  1.0000
  H   H1128     1.0  0.96708  0.98974  0.93967  1.0000
  H   H1129     1.0  0.74769  0.97466  0.73439  1.0000
  H   H1130     1.0  0.84076  0.98995  0.61703  1.0000
  C   C941      1.0  0.75935  0.96687  0.71436  1.0000
  H   H1131     1.0  0.70028  0.94443  0.82956  1.0000
  H   H1132     1.0  0.70910  0.87599  0.85798  1.0000
  C   C942      1.0  0.78997  0.94617  0.66373  1.0000
  H   H1133     1.0  0.84516  0.62154  0.89200  1.0000
  S   S254      1.0  0.89893  0.00236  0.67046  1.0000
  H   H1134     1.0  0.72012  0.68513  0.64300  1.0000
  C   C943      1.0  0.76936  0.59857  0.60257  1.0000
  C   C944      1.0  0.72796  0.80566  0.94506  1.0000
  C   C945      1.0  0.73602  0.83643  0.88927  1.0000
  H   H1135     1.0  0.69100  0.73991  0.59461  1.0000
  H   H1136     1.0  0.81509  0.96821  0.60890  1.0000
  H   H1137     1.0  0.67991  0.71308  0.69601  1.0000
  C   C946      1.0  0.74611  0.58632  0.60880  1.0000
  C   C947      1.0  0.68326  0.72787  0.67765  1.0000
  C   C948      1.0  0.68803  0.61049  0.56018  1.0000
  C   C949      1.0  0.82865  0.00180  0.67897  1.0000
  C   C950      1.0  0.78308  0.59322  0.57344  1.0000
  H   H1138     1.0  0.69653  0.62948  0.56135  1.0000
  N   N63       1.0  0.68864  0.84464  0.88197  1.0000
  S   S255      1.0  0.77991  0.70831  0.98567  1.0000
  S   S256      1.0  0.90721  0.52867  0.86652  1.0000
  H   H1139     1.0  0.77406  0.53010  0.51331  1.0000
  C   C951      1.0  0.68440  0.72174  0.64326  1.0000
  H   H1140     1.0  0.96585  0.52216  0.54575  1.0000
  C   C952      1.0  0.74974  0.56355  0.55646  1.0000
  H   H1141     1.0  0.69445  0.79266  0.67563  1.0000
  Fe  Fe128     1.0  0.94183  0.00813  0.66735  1.0000
  C   C953      1.0  0.79647  0.01094  0.63736  1.0000
  H   H1142     1.0  0.00800  0.95520  0.50804  1.0000
  H   H1143     1.0  0.78224  0.00281  0.61962  1.0000
  C   C954      1.0  0.00758  0.53514  0.76898  1.0000
  H   H1144     1.0  0.81053  0.60397  0.51480  1.0000
  H   H1145     1.0  0.68620  0.75741  0.71549  1.0000
  C   C955      1.0  0.73640  0.56875  0.58588  1.0000
  C   C956      1.0  0.00722  0.00157  0.63527  1.0000
  H   H1146     1.0  0.69796  0.67619  0.67485  1.0000
  H   H1147     1.0  0.99329  0.00371  0.65603  1.0000
  C   C957      1.0  0.68308  0.69151  0.59528  1.0000
  H   H1148     1.0  0.94045  0.56942  0.00242  1.0000
  H   H1149     1.0  0.00895  0.51648  0.57141  1.0000
  C   C958      1.0  0.00933  0.97607  0.50770  1.0000
  N   N64       1.0  0.68081  0.69472  0.63186  1.0000
  H   H1150     1.0  0.00908  0.54482  0.87524  1.0000
  H   H1151     1.0  0.00735  0.56144  0.51055  1.0000
  C   C959      1.0  0.98881  0.01311  0.73465  1.0000
  C   C960      1.0  0.99881  0.97515  0.00495  1.0000
  H   H1152     1.0  0.94793  0.51417  0.74258  1.0000
