data_image0
_chemical_formula_structural       FeS2NSHFeHFeSCSFeS2FeHFeSH3SH2CH3CHC3H4C7H5CH3CH5CHCHFeC3H2CHCHS2HCHCHC3H3C5H2C2NHCH2NCHCH2NC6HC2H8CNHC5HC2HCH3C2FeS2HCHFeS2FeSHFeSFeS3HSH3C5HCHCHCH2C2HCHCHCHC3H2CHCHC3H3SH2C2FeNH2CH3C4H3CHNH3CH2C4HCHC2H3CH2CH2CNH2C3H2C2SC2H3FeC5H4CH2S2H3S2HCHC2HCFe2HSFeHSFeCHFeS2FeSFeCS3HC2H2CHC2HCH3SH2C6H4CHNCH2CH2CSH2SHCH4C2NHCNC6HCH8CSH2CH2FeHC7HCHC2HCHCSCH3C2H2C3HC2H2CHCHCHC3H2CSCHSC2H2CH3C2HCHC3H5C2H3FeC2H2NHNCH2C2H2CHCHC3HCHCH3C2H2CH5C4HS2HC3H2FeS2FeHFeS2CSH2C2HCH2CH2C3H3C3H2CHCNHCH2C3HSH5CH2SC3H3CHCNCHNHCSCH3C2HCSC3H5C2H5CH2FeSHCSFeCFeSHSFeSCHFeS2C6H6C4SH2CHCHSH2C2H2C2FeH4CNC7H10CH2CHNC2H2SHC3HSH2C2H2FeSNH2SHCH2CHCHC2H3FeSHCFeS2FeSHFeS2Fe2SCSC2HC6H5CH2C3H3CHCH4CH2FeHCSHNH4CH2S2C3H4CHC3NH3CHC2HCSHS2HCHCH2S2HFeSCHCFeS2H2C2H3CH4SH2CH2CFeCH2C3H2C3NHCH2C2H2C3H4CHCH3CHSHFeCH2CHC2H2CH2S2HCHC2FeS2CH3C2NH2CH3CHCH2C3HCHCHC2H3CHCSNH3CHC2HC3H3CSH2CHCHC2H2C2HCH2SFeC2FeS2HFeHS2FeHCFeS2FeHFeCS2FeHSC3H2C2H2C2H3S2CHC6H5CHC2H4CH2CH2SCHSCH2CH2CHNHCHNH2C4HCFeHC3SCH2CHSCHC2H3C2HC2HC2H7CHC2H2CHCSCHFeH2CHCFeS2CSHSCFeCSHSFeS2FeSFeCH3CHCHCHCHC2HSHCNC3HCH2CHC4NFeH4C3H3C2HSCH5NHSCHC4H2SH2CNC3HC2HCH2CFeH2C2H3SC2NSH2C5H4C2H7CHSCH2FeC2HSHCHSC2H2CH2FeS2FeSHFeSFeCSCFeS2FeCFeHFeHS2HCHCHCH2C2H3C2NC2H3C6H7C2H4SHCHSHC2H2CH2C2H3CNHC2HNFeCNHCHC2HC2SCH2C4SC2H6CHNH2C2HC2H4CHCHCH2CSCH6SCS
_chemical_formula_sum              "Fe72 S144 N36 H648 C540"
_cell_length_a       35.1042
_cell_length_b       34.8484
_cell_length_c       46.1796
_cell_angle_alpha    90.1677
_cell_angle_beta     89.5955
_cell_angle_gamma    120.432

_space_group_name_H-M_alt    "P 1"
_space_group_IT_number       1

loop_
  _space_group_symop_operation_xyz
  'x, y, z'

loop_
  _atom_site_type_symbol
  _atom_site_label
  _atom_site_symmetry_multiplicity
  _atom_site_fract_x
  _atom_site_fract_y
  _atom_site_fract_z
  _atom_site_occupancy
  Fe  Fe1       1.0  0.20642  0.24642  0.30380  1.0000
  S   S1        1.0  0.26466  0.28190  0.27339  1.0000
  S   S2        1.0  0.14938  0.26004  0.30340  1.0000
  N   N1        1.0  0.14105  0.45939  0.32247  1.0000
  S   S3        1.0  0.29638  0.21260  0.29562  1.0000
  H   H1        1.0  0.24984  0.11049  0.29492  1.0000
  Fe  Fe2       1.0  0.30358  0.27767  0.31054  1.0000
  H   H2        1.0  0.42510  0.36382  0.02953  1.0000
  Fe  Fe3       1.0  0.25233  0.21373  0.26108  1.0000
  S   S4        1.0  0.24348  0.18738  0.21474  1.0000
  C   C1        1.0  0.46330  0.07829  0.34156  1.0000
  S   S5        1.0  0.19129  0.17871  0.28878  1.0000
  Fe  Fe4       1.0  0.32238  0.06239  0.10474  1.0000
  S   S6        1.0  0.37998  0.08877  0.07380  1.0000
  S   S7        1.0  0.33644  0.09451  0.14956  1.0000
  Fe  Fe5       1.0  0.33114  0.08197  0.04003  1.0000
  H   H3        1.0  0.18210  0.27459  0.05951  1.0000
  Fe  Fe6       1.0  0.35895  0.01767  0.06354  1.0000
  S   S8        1.0  0.27497  0.06002  0.07151  1.0000
  H   H4        1.0  0.03754  0.15305  0.05030  1.0000
  H   H5        1.0  0.16639  0.08494  0.26521  1.0000
  H   H6        1.0  0.14474  0.19941  0.08112  1.0000
  S   S9        1.0  0.37184  0.32902  0.32587  1.0000
  H   H7        1.0  0.02781  0.32804  0.04315  1.0000
  H   H8        1.0  0.00208  0.24091  0.27568  1.0000
  C   C2        1.0  0.40338  0.01116  0.32202  1.0000
  H   H9        1.0  0.27916  0.10540  0.26402  1.0000
  H   H10       1.0  0.23708  0.05052  0.22534  1.0000
  H   H11       1.0  0.16013  0.18198  0.04847  1.0000
  C   C3        1.0  0.41524  0.33491  0.04313  1.0000
  H   H12       1.0  0.19522  0.36437  0.30140  1.0000
  C   C4        1.0  0.46847  0.00085  0.29122  1.0000
  C   C5        1.0  0.40910  0.43710  0.02138  1.0000
  C   C6        1.0  0.24726  0.02883  0.29883  1.0000
  H   H13       1.0  0.38725  0.22708  0.03740  1.0000
  H   H14       1.0  0.13005  0.29308  0.06773  1.0000
  H   H15       1.0  0.17771  0.01952  0.22663  1.0000
  H   H16       1.0  0.39612  0.30505  0.11353  1.0000
  C   C7        1.0  0.04767  0.31939  0.02969  1.0000
  C   C8        1.0  0.26954  0.16128  0.19725  1.0000
  C   C9        1.0  0.30560  0.16063  0.20935  1.0000
  C   C10       1.0  0.32502  0.13918  0.19472  1.0000
  C   C11       1.0  0.30872  0.11826  0.16786  1.0000
  C   C12       1.0  0.27245  0.11862  0.15586  1.0000
  C   C13       1.0  0.25314  0.14021  0.17044  1.0000
  H   H17       1.0  0.31895  0.17723  0.22976  1.0000
  H   H18       1.0  0.35332  0.13940  0.20405  1.0000
  H   H19       1.0  0.25931  0.10239  0.13533  1.0000
  H   H20       1.0  0.22514  0.14043  0.16096  1.0000
  H   H21       1.0  0.25946  0.10548  0.02453  1.0000
  C   C14       1.0  0.35833  0.40077  0.32893  1.0000
  H   H22       1.0  0.27627  0.00041  0.32614  1.0000
  H   H23       1.0  0.32468  0.37816  0.32231  1.0000
  H   H24       1.0  0.16300  0.28392  0.02540  1.0000
  C   C15       1.0  0.40620  0.29475  0.03070  1.0000
  H   H25       1.0  0.24439  0.12866  0.26006  1.0000
  H   H26       1.0  0.07358  0.26935  0.31153  1.0000
  H   H27       1.0  0.40578  0.19011  0.06900  1.0000
  H   H28       1.0  0.37415  0.41587  0.02573  1.0000
  H   H29       1.0  0.10914  0.37938  0.03956  1.0000
  C   C16       1.0  0.37235  0.44565  0.33500  1.0000
  H   H30       1.0  0.37978  0.01853  0.33342  1.0000
  C   C17       1.0  0.02146  0.23038  0.08332  1.0000
  H   H31       1.0  0.09405  0.40748  0.29413  1.0000
  Fe  Fe7       1.0  0.23615  0.18184  0.32410  1.0000
  C   C18       1.0  0.24687  0.43227  0.30709  1.0000
  C   C19       1.0  0.20295  0.39816  0.30598  1.0000
  C   C20       1.0  0.20734  0.05091  0.23358  1.0000
  H   H32       1.0  0.16895  0.06150  0.29919  1.0000
  H   H33       1.0  0.27395  0.06189  0.30385  1.0000
  C   C21       1.0  0.25694  0.47562  0.31306  1.0000
  H   H34       1.0  0.13816  0.02596  0.26948  1.0000
  C   C22       1.0  0.01248  0.18971  0.07178  1.0000
  H   H35       1.0  0.34932  0.45747  0.33309  1.0000
  S   S10       1.0  0.24625  0.24655  0.34181  1.0000
  S   S11       1.0  0.31484  0.01288  0.02684  1.0000
  H   H36       1.0  0.08325  0.45144  0.30059  1.0000
  C   C23       1.0  0.16891  0.40716  0.31102  1.0000
  H   H37       1.0  0.42740  0.44531  0.06644  1.0000
  C   C24       1.0  0.08997  0.22208  0.05640  1.0000
  H   H38       1.0  0.20598  0.07824  0.22201  1.0000
  C   C25       1.0  0.04622  0.18532  0.05883  1.0000
  C   C26       1.0  0.24749  0.10226  0.27147  1.0000
  C   C27       1.0  0.38791  0.38524  0.33176  1.0000
  H   H39       1.0  0.45450  0.40303  0.34252  1.0000
  H   H40       1.0  0.07086  0.29859  0.09060  1.0000
  H   H41       1.0  0.30904  0.16374  0.34191  1.0000
  C   C28       1.0  0.09530  0.28547  0.32966  1.0000
  C   C29       1.0  0.43428  0.07871  0.29448  1.0000
  C   C30       1.0  0.09373  0.34845  0.02759  1.0000
  C   C31       1.0  0.13499  0.28494  0.33163  1.0000
  C   C32       1.0  0.21202  0.02099  0.28008  1.0000
  H   H42       1.0  0.42089  0.06067  0.27370  1.0000
  H   H43       1.0  0.27312  0.42498  0.30338  1.0000
  C   C33       1.0  0.43940  0.45388  0.04441  1.0000
  C   C34       1.0  0.22311  0.48510  0.31793  1.0000
  N   N2        1.0  0.12478  0.21685  0.04176  1.0000
  H   H44       1.0  0.99496  0.23400  0.09259  1.0000
  C   C35       1.0  0.17784  0.45095  0.31700  1.0000
  H   H45       1.0  0.19246  0.25466  0.02673  1.0000
  H   H46       1.0  0.46371  0.11150  0.28911  1.0000
  N   N3        1.0  0.20929  0.05733  0.26546  1.0000
  C   C36       1.0  0.13373  0.18635  0.05884  1.0000
  H   H47       1.0  0.01541  0.26086  0.22370  1.0000
  C   C37       1.0  0.16888  0.05721  0.27524  1.0000
  H   H48       1.0  0.10401  0.15265  0.06093  1.0000
  H   H49       1.0  0.41879  0.36926  0.08254  1.0000
  N   N4        1.0  0.37618  0.21878  0.09639  1.0000
  C   C38       1.0  0.37524  0.22645  0.12801  1.0000
  C   C39       1.0  0.33129  0.18325  0.08792  1.0000
  C   C40       1.0  0.40733  0.20235  0.09150  1.0000
  C   C41       1.0  0.38961  0.25903  0.07859  1.0000
  C   C42       1.0  0.39868  0.30048  0.09062  1.0000
  C   C43       1.0  0.39378  0.25742  0.04809  1.0000
  H   H50       1.0  0.40909  0.08550  0.30420  1.0000
  C   C44       1.0  0.44543  0.45955  0.34633  1.0000
  C   C45       1.0  0.47837  0.04397  0.30037  1.0000
  H   H51       1.0  0.40816  0.25263  0.13594  1.0000
  H   H52       1.0  0.35003  0.23569  0.13371  1.0000
  H   H53       1.0  0.36639  0.19594  0.14073  1.0000
  H   H54       1.0  0.30680  0.19436  0.09058  1.0000
  H   H55       1.0  0.31990  0.15267  0.10119  1.0000
  H   H56       1.0  0.32995  0.17292  0.06497  1.0000
  H   H57       1.0  0.44201  0.22900  0.09565  1.0000
  H   H58       1.0  0.39973  0.17370  0.10596  1.0000
  C   C46       1.0  0.43141  0.41478  0.34046  1.0000
  N   N5        1.0  0.44525  0.05249  0.31441  1.0000
  H   H59       1.0  0.12830  0.46052  0.27706  1.0000
  C   C47       1.0  0.11047  0.44405  0.29746  1.0000
  C   C48       1.0  0.16726  0.25945  0.03828  1.0000
  C   C49       1.0  0.24896  0.99361  0.31198  1.0000
  C   C50       1.0  0.41593  0.47513  0.34379  1.0000
  C   C51       1.0  0.06427  0.26675  0.08214  1.0000
  H   H60       1.0  0.13546  0.37929  0.31050  1.0000
  C   C52       1.0  0.09814  0.26301  0.06878  1.0000
  C   C53       1.0  0.41157  0.33780  0.07301  1.0000
  H   H61       1.0  0.29332  0.48488  0.06996  1.0000
  C   C54       1.0  0.11611  0.43443  0.34855  1.0000
  H   H62       1.0  0.28249  0.45379  0.02053  1.0000
  H   H63       1.0  0.05269  0.30650  0.34932  1.0000
  H   H64       1.0  0.09965  0.39783  0.34549  1.0000
  C   C55       1.0  0.98462  0.25397  0.23384  1.0000
  C   C56       1.0  0.31524  0.47904  0.02758  1.0000
  Fe  Fe8       1.0  0.03941  0.36562  0.40089  1.0000
  S   S12       1.0  0.09907  0.35624  0.40122  1.0000
  S   S13       1.0  0.05481  0.43396  0.41432  1.0000
  H   H65       1.0  0.30237  0.32239  0.46630  1.0000
  C   C57       1.0  0.38480  0.99892  0.59152  1.0000
  H   H66       1.0  0.36073  0.35032  0.47326  1.0000
  Fe  Fe9       1.0  0.33832  0.28002  0.62754  1.0000
  S   S14       1.0  0.30744  0.30429  0.59505  1.0000
  S   S15       1.0  0.32191  0.20767  0.62924  1.0000
  Fe  Fe10      1.0  0.40311  0.37486  0.64827  1.0000
  S   S16       1.0  0.37749  0.40635  0.61771  1.0000
  H   H67       1.0  0.28569  0.42023  0.44800  1.0000
  Fe  Fe11      1.0  0.31044  0.34949  0.63099  1.0000
  S   S17       1.0  0.25921  0.36741  0.64405  1.0000
  Fe  Fe12      1.0  0.37688  0.35912  0.58435  1.0000
  S   S18       1.0  0.40230  0.37518  0.53764  1.0000
  S   S19       1.0  0.33639  0.32156  0.66414  1.0000
  S   S20       1.0  0.40749  0.33135  0.61404  1.0000
  H   H68       1.0  0.99044  0.26577  0.62418  1.0000
  S   S21       1.0  0.99839  0.36319  0.36290  1.0000
  H   H69       1.0  0.25952  0.01681  0.38747  1.0000
  H   H70       1.0  0.39649  0.30950  0.48618  1.0000
  H   H71       1.0  0.30113  0.11700  0.63284  1.0000
  C   C58       1.0  0.29719  0.16754  0.65745  1.0000
  C   C59       1.0  0.43460  0.42944  0.52300  1.0000
  C   C60       1.0  0.25330  0.10365  0.35842  1.0000
  C   C61       1.0  0.01862  0.35709  0.55227  1.0000
  C   C62       1.0  0.03377  0.33559  0.57036  1.0000
  H   H72       1.0  0.02434  0.46233  0.67232  1.0000
  C   C63       1.0  0.20600  0.32712  0.65618  1.0000
  H   H73       1.0  0.24286  0.24667  0.68227  1.0000
  C   C64       1.0  0.02418  0.27330  0.61777  1.0000
  H   H74       1.0  0.39413  0.32995  0.43878  1.0000
  C   C65       1.0  0.36775  0.30002  0.42914  1.0000
  H   H75       1.0  0.28356  0.25159  0.51406  1.0000
  H   H76       1.0  0.41751  0.46282  0.66864  1.0000
  C   C66       1.0  0.01853  0.40129  0.59250  1.0000
  C   C67       1.0  0.31478  0.07657  0.37033  1.0000
  H   H77       1.0  0.37925  0.01456  0.54647  1.0000
  C   C68       1.0  0.27018  0.04868  0.37741  1.0000
  H   H78       1.0  0.26753  0.20592  0.44155  1.0000
  C   C69       1.0  0.33922  0.25441  0.38620  1.0000
  H   H79       1.0  0.02893  0.33061  0.65870  1.0000
  C   C70       1.0  0.40130  0.01926  0.56413  1.0000
  H   H80       1.0  0.20287  0.27233  0.63246  1.0000
  C   C71       1.0  0.11159  0.32787  0.37433  1.0000
  C   C72       1.0  0.15134  0.32745  0.37625  1.0000
  C   C73       1.0  0.31547  0.99851  0.59132  1.0000
  H   H81       1.0  0.17335  0.34415  0.39412  1.0000
  H   H82       1.0  0.25546  0.24117  0.48026  1.0000
  C   C74       1.0  0.30199  0.22383  0.40171  1.0000
  H   H83       1.0  0.42148  0.46315  0.55732  1.0000
  C   C75       1.0  0.10009  0.33022  0.60910  1.0000
  H   H84       1.0  0.34259  0.24883  0.36342  1.0000
  C   C76       1.0  0.43837  0.46688  0.53691  1.0000
  C   C77       1.0  0.18544  0.28289  0.64682  1.0000
  C   C78       1.0  0.33967  0.41866  0.42523  1.0000
  H   H85       1.0  0.45844  0.05873  0.53716  1.0000
  H   H86       1.0  0.36118  0.28446  0.51654  1.0000
  H   H87       1.0  0.13815  0.44277  0.36765  1.0000
  S   S22       1.0  0.00513  0.42978  0.48816  1.0000
  H   H88       1.0  0.03350  0.25422  0.63257  1.0000
  H   H89       1.0  0.02208  0.25919  0.59586  1.0000
  C   C79       1.0  0.06054  0.33534  0.64997  1.0000
  C   C80       1.0  0.37364  0.46700  0.46702  1.0000
  Fe  Fe13      1.0  0.99466  0.40058  0.44274  1.0000
  N   N6        1.0  0.05627  0.32187  0.61910  1.0000
  H   H90       1.0  0.09913  0.31784  0.58677  1.0000
  H   H91       1.0  0.08959  0.44176  0.35429  1.0000
  C   C81       1.0  0.23950  0.06223  0.37139  1.0000
  H   H92       1.0  0.45382  0.40619  0.48541  1.0000
  H   H93       1.0  0.12569  0.21853  0.64781  1.0000
  H   H94       1.0  0.01314  0.34880  0.52939  1.0000
  C   C82       1.0  0.04125  0.34597  0.60031  1.0000
  C   C83       1.0  0.29505  0.40138  0.43407  1.0000
  C   C84       1.0  0.11861  0.26601  0.67385  1.0000
  C   C85       1.0  0.99068  0.44405  0.68033  1.0000
  H   H95       1.0  0.44392  0.00186  0.47349  1.0000
  H   H96       1.0  0.38259  0.26197  0.67356  1.0000
  H   H97       1.0  0.99899  0.40598  0.54918  1.0000
  C   C86       1.0  0.27307  0.09225  0.67520  1.0000
  H   H98       1.0  0.43865  0.27302  0.67629  1.0000
  N   N7        1.0  0.37454  0.46333  0.43498  1.0000
  H   H99       1.0  0.38054  0.40323  0.39659  1.0000
  H   H100      1.0  0.34296  0.46512  0.47522  1.0000
  H   H101      1.0  0.03891  0.39079  0.63317  1.0000
  C   C87       1.0  0.14174  0.25250  0.65552  1.0000
  H   H102      1.0  0.24438  0.30351  0.39695  1.0000
  H   H103      1.0  0.20502  0.04066  0.37668  1.0000
  C   C88       1.0  0.28515  0.24381  0.49077  1.0000
  C   C89       1.0  0.29133  0.12486  0.65323  1.0000
  C   C90       1.0  0.45629  0.43490  0.49628  1.0000
  C   C91       1.0  0.18301  0.34045  0.67470  1.0000
  H   H104      1.0  0.12505  0.36644  0.60935  1.0000
  C   C92       1.0  0.36411  0.28059  0.49278  1.0000
  H   H105      1.0  0.36587  0.24986  0.48945  1.0000
  C   C93       1.0  0.34811  0.39231  0.40553  1.0000
  C   C94       1.0  0.31400  0.35121  0.39569  1.0000
  H   H106      1.0  0.01322  0.42730  0.60091  1.0000
  H   H107      1.0  0.32292  0.32812  0.50265  1.0000
  H   H108      1.0  0.28264  0.21064  0.49036  1.0000
  C   C95       1.0  0.32817  0.32161  0.47973  1.0000
  H   H109      1.0  0.03959  0.31073  0.56067  1.0000
  H   H110      1.0  0.06921  0.31493  0.66382  1.0000
  C   C96       1.0  0.26127  0.36006  0.42427  1.0000
  H   H111      1.0  0.08674  0.37071  0.65321  1.0000
  H   H112      1.0  0.27653  0.19428  0.39087  1.0000
  C   C97       1.0  0.37200  0.29245  0.39984  1.0000
  N   N8        1.0  0.32662  0.27842  0.47667  1.0000
  H   H113      1.0  0.32102  0.33231  0.37998  1.0000
  H   H114      1.0  0.40059  0.31634  0.38738  1.0000
  C   C98       1.0  0.27074  0.33505  0.40509  1.0000
  C   C99       1.0  0.41662  0.00569  0.61288  1.0000
  C   C100      1.0  0.03354  0.37994  0.61085  1.0000
  H   H115      1.0  0.42712  0.44838  0.43477  1.0000
  H   H116      1.0  0.02275  0.48431  0.53844  1.0000
  C   C101      1.0  0.33019  0.26958  0.44565  1.0000
  C   C102      1.0  0.32853  0.11800  0.35744  1.0000
  S   S23       1.0  0.35424  0.06063  0.37660  1.0000
  C   C103      1.0  0.29726  0.23110  0.43100  1.0000
  C   C104      1.0  0.44667  0.04461  0.55850  1.0000
  H   H117      1.0  0.37705  0.44037  0.47780  1.0000
  H   H118      1.0  0.22734  0.34782  0.43100  1.0000
  H   H119      1.0  0.11275  0.31327  0.62322  1.0000
  Fe  Fe14      1.0  0.00930  0.42902  0.37896  1.0000
  C   C105      1.0  0.41985  0.47402  0.42675  1.0000
  C   C106      1.0  0.47692  0.04993  0.57974  1.0000
  C   C107      1.0  0.99284  0.48002  0.52876  1.0000
  C   C108      1.0  0.46191  0.03066  0.60688  1.0000
  C   C109      1.0  0.01076  0.38961  0.56337  1.0000
  H   H120      1.0  0.42492  0.47705  0.40294  1.0000
  H   H121      1.0  0.00163  0.48689  0.44136  1.0000
  H   H122      1.0  0.19385  0.30628  0.35657  1.0000
  H   H123      1.0  0.42786  0.31766  0.67661  1.0000
  C   C110      1.0  0.16297  0.30596  0.35508  1.0000
  H   H124      1.0  0.43796  0.08205  0.35382  1.0000
  H   H125      1.0  0.26908  0.05972  0.67168  1.0000
  S   S24       1.0  0.03429  0.49075  0.35125  1.0000
  S   S25       1.0  0.46079  0.41171  0.67884  1.0000
  H   H126      1.0  0.47920  0.48202  0.35262  1.0000
  H   H127      1.0  0.33086  0.02921  0.60484  1.0000
  H   H128      1.0  0.19882  0.37462  0.68204  1.0000
  S   S26       1.0  0.21399  0.11935  0.35068  1.0000
  S   S27       1.0  0.06266  0.22801  0.68251  1.0000
  H   H129      1.0  0.31835  0.00886  0.56829  1.0000
  C   C111      1.0  0.48209  0.47746  0.48380  1.0000
  H   H130      1.0  0.47548  0.06165  0.35617  1.0000
  C   C112      1.0  0.44658  0.48261  0.68157  1.0000
  C   C113      1.0  0.29793  0.13156  0.35155  1.0000
  H   H131      1.0  0.36305  0.13982  0.35210  1.0000
  C   C114      1.0  0.08348  0.30664  0.35097  1.0000
  Fe  Fe15      1.0  0.33444  0.99307  0.39521  1.0000
  Fe  Fe16      1.0  0.00965  0.27244  0.77181  1.0000
  H   H132      1.0  0.20322  0.30563  0.74813  1.0000
  S   S28       1.0  0.02907  0.27236  0.81896  1.0000
  Fe  Fe17      1.0  0.02293  0.24934  0.71017  1.0000
  H   H133      1.0  0.27371  0.06292  0.97837  1.0000
  S   S29       1.0  0.05337  0.31329  0.73502  1.0000
  Fe  Fe18      1.0  0.24338  0.28196  0.96992  1.0000
  C   C115      1.0  0.22668  0.28020  0.71504  1.0000
  H   H134      1.0  0.44505  0.05774  0.70536  1.0000
  Fe  Fe19      1.0  0.23642  0.33563  0.91958  1.0000
  S   S30       1.0  0.26389  0.39745  0.94689  1.0000
  S   S31       1.0  0.21997  0.34201  0.87270  1.0000
  Fe  Fe20      1.0  0.31341  0.37963  0.96313  1.0000
  S   S32       1.0  0.38712  0.43183  0.96317  1.0000
  Fe  Fe21      1.0  0.21859  0.35220  0.98170  1.0000
  C   C116      1.0  0.02766  0.27887  0.01471  1.0000
  S   S33       1.0  0.28923  0.32055  0.93317  1.0000
  S   S34       1.0  0.18844  0.29155  0.95353  1.0000
  S   S35       1.0  0.24035  0.06312  0.73092  1.0000
  H   H135      1.0  0.38888  0.25055  0.77267  1.0000
  C   C117      1.0  0.39221  0.23379  0.72744  1.0000
  C   C118      1.0  0.25859  0.19368  0.99323  1.0000
  H   H136      1.0  0.25687  0.15262  0.72652  1.0000
  H   H137      1.0  0.15530  0.35886  0.91400  1.0000
  C   C119      1.0  0.09931  0.29752  0.99474  1.0000
  H   H138      1.0  0.10302  0.31778  0.92848  1.0000
  C   C120      1.0  0.30213  0.21679  0.98294  1.0000
  C   C121      1.0  0.03482  0.33167  0.94334  1.0000
  H   H139      1.0  0.12659  0.16323  0.73108  1.0000
  C   C122      1.0  0.42400  0.44878  0.99282  1.0000
  H   H140      1.0  0.38924  0.20061  0.68611  1.0000
  H   H141      1.0  0.13672  0.19698  0.99978  1.0000
  H   H142      1.0  0.36384  0.00666  0.71097  1.0000
  S   S36       1.0  0.22158  0.21312  0.98752  1.0000
  H   H143      1.0  0.46950  0.34391  0.72052  1.0000
  H   H144      1.0  0.06489  0.18368  0.78613  1.0000
  C   C123      1.0  0.08256  0.29114  0.83299  1.0000
  C   C124      1.0  0.12072  0.32397  0.81908  1.0000
  C   C125      1.0  0.16251  0.33901  0.83149  1.0000
  C   C126      1.0  0.16660  0.32185  0.85807  1.0000
  C   C127      1.0  0.12844  0.28902  0.87198  1.0000
  C   C128      1.0  0.08666  0.27385  0.85951  1.0000
  H   H145      1.0  0.11798  0.33829  0.79900  1.0000
  H   H146      1.0  0.19187  0.36451  0.82061  1.0000
  H   H147      1.0  0.13114  0.27511  0.89225  1.0000
  H   H148      1.0  0.05729  0.24852  0.87048  1.0000
  C   C129      1.0  0.07469  0.40932  0.95741  1.0000
  H   H149      1.0  0.10240  0.44291  0.95686  1.0000
  N   N9        1.0  0.41029  0.27971  0.71637  1.0000
  C   C130      1.0  0.46954  0.47663  0.98758  1.0000
  H   H150      1.0  0.04203  0.42823  0.98946  1.0000
  H   H151      1.0  0.16224  0.43985  0.93951  1.0000
  C   C131      1.0  0.26063  0.10202  0.70181  1.0000
  H   H152      1.0  0.47757  0.29695  0.72342  1.0000
  H   H153      1.0  0.35809  0.12660  0.70604  1.0000
  C   C132      1.0  0.00320  0.35896  0.97883  1.0000
  S   S37       1.0  0.01202  0.38282  0.69800  1.0000
  H   H154      1.0  0.40868  0.29247  0.00740  1.0000
  H   H155      1.0  0.34630  0.47946  0.98730  1.0000
  S   S38       1.0  0.17792  0.37276  0.00910  1.0000
  H   H156      1.0  0.14147  0.36288  0.95083  1.0000
  C   C133      1.0  0.47260  0.46495  0.69036  1.0000
  H   H157      1.0  0.25422  0.31285  0.70948  1.0000
  H   H158      1.0  0.45338  0.31122  0.75287  1.0000
  H   H159      1.0  0.34651  0.27437  0.71718  1.0000
  H   H160      1.0  0.36364  0.21714  0.97913  1.0000
  C   C134      1.0  0.09041  0.36815  0.89006  1.0000
  C   C135      1.0  0.14554  0.42838  0.91818  1.0000
  N   N10       1.0  0.10865  0.38149  0.91969  1.0000
  H   H161      1.0  0.06525  0.33218  0.88854  1.0000
  C   C136      1.0  0.25800  0.01975  0.94145  1.0000
  N   N11       1.0  0.12773  0.23025  0.76645  1.0000
  C   C137      1.0  0.15041  0.24266  0.79482  1.0000
  C   C138      1.0  0.11123  0.26091  0.75991  1.0000
  C   C139      1.0  0.08842  0.18488  0.76929  1.0000
  C   C140      1.0  0.15925  0.23383  0.74360  1.0000
  C   C141      1.0  0.15404  0.19647  0.72763  1.0000
  C   C142      1.0  0.24346  0.15346  0.00820  1.0000
  H   H162      1.0  0.17815  0.27775  0.79523  1.0000
  C   C143      1.0  0.43044  0.02297  0.69970  1.0000
  H   H163      1.0  0.16434  0.22114  0.80024  1.0000
  H   H164      1.0  0.13749  0.29648  0.76096  1.0000
  H   H165      1.0  0.08490  0.25669  0.77538  1.0000
  H   H166      1.0  0.09683  0.25457  0.73790  1.0000
  H   H167      1.0  0.06962  0.17397  0.74860  1.0000
  H   H168      1.0  0.09779  0.16010  0.77590  1.0000
  H   H169      1.0  0.31400  0.24767  0.97121  1.0000
  H   H170      1.0  0.13380  0.45108  0.91100  1.0000
  C   C144      1.0  0.19688  0.27576  0.73686  1.0000
  S   S39       1.0  0.35177  0.13966  0.00918  1.0000
  H   H171      1.0  0.37925  0.30065  0.74864  1.0000
  H   H172      1.0  0.35556  0.17450  0.79101  1.0000
  C   C145      1.0  0.31514  0.15948  0.00274  1.0000
  H   H173      1.0  0.48137  0.48538  0.96553  1.0000
  H   H174      1.0  0.07428  0.38696  0.88291  1.0000
  Fe  Fe22      1.0  0.99480  0.31744  0.71946  1.0000
  H   H175      1.0  0.40697  0.99999  0.00310  1.0000
  C   C146      1.0  0.38264  0.22449  0.75741  1.0000
  C   C147      1.0  0.35523  0.14605  0.74971  1.0000
  C   C148      1.0  0.05361  0.26841  0.99698  1.0000
  C   C149      1.0  0.33015  0.19942  0.98742  1.0000
  C   C150      1.0  0.12775  0.35395  0.92860  1.0000
  C   C151      1.0  0.38372  0.19729  0.70924  1.0000
  C   C152      1.0  0.26619  0.14465  0.70597  1.0000
  H   H176      1.0  0.11654  0.37400  0.87389  1.0000
  C   C153      1.0  0.45737  0.00712  0.68871  1.0000
  H   H177      1.0  0.12750  0.23950  0.81271  1.0000
  C   C154      1.0  0.07297  0.37452  0.94017  1.0000
  C   C155      1.0  0.18437  0.20124  0.70608  1.0000
  H   H178      1.0  0.11858  0.28890  0.98098  1.0000
  C   C156      1.0  0.36399  0.18115  0.76823  1.0000
  H   H179      1.0  0.33938  0.11221  0.75789  1.0000
  C   C157      1.0  0.22035  0.24302  0.69965  1.0000
  S   S40       1.0  0.27044  0.33999  0.00069  1.0000
  C   C158      1.0  0.36576  0.15425  0.72042  1.0000
  H   H180      1.0  0.28562  0.04448  0.92873  1.0000
  H   H181      1.0  0.03820  0.23746  0.98501  1.0000
  H   H182      1.0  0.17155  0.43233  0.90245  1.0000
  C   C159      1.0  0.13980  0.30991  0.68386  1.0000
  C   C160      1.0  0.25136  0.03027  0.96944  1.0000
  H   H183      1.0  0.03141  0.30333  0.93148  1.0000
  H   H184      1.0  0.28861  0.20981  0.68753  1.0000
  C   C161      1.0  0.45459  0.30916  0.72888  1.0000
  C   C162      1.0  0.38084  0.29695  0.72485  1.0000
  C   C163      1.0  0.27166  0.13655  0.01309  1.0000
  H   H185      1.0  0.39251  0.33071  0.71562  1.0000
  C   C164      1.0  0.00047  0.32424  0.96226  1.0000
  C   C165      1.0  0.04014  0.40141  0.97637  1.0000
  H   H186      1.0  0.12286  0.32078  0.69828  1.0000
  H   H187      1.0  0.17961  0.17243  0.69394  1.0000
  C   C166      1.0  0.11981  0.33726  0.01038  1.0000
  H   H188      1.0  0.09892  0.21717  0.99971  1.0000
  C   C167      1.0  0.10992  0.19759  0.01241  1.0000
  H   H189      1.0  0.08220  0.16263  0.01300  1.0000
  C   C168      1.0  0.38447  0.99411  0.70289  1.0000
  H   H190      1.0  0.21178  0.00651  0.00814  1.0000
  C   C169      1.0  0.21636  0.99857  0.98610  1.0000
  C   C170      1.0  0.41499  0.28300  0.68434  1.0000
  C   C171      1.0  0.28430  0.17723  0.68393  1.0000
  H   H191      1.0  0.20970  0.13523  0.01600  1.0000
  H   H192      1.0  0.09352  0.78392  0.01940  1.0000
  C   C172      1.0  0.23284  0.79931  0.05698  1.0000
  S   S41       1.0  0.19138  0.93538  0.05516  1.0000
  C   C173      1.0  0.32839  0.88665  0.02398  1.0000
  H   H193      1.0  0.34035  0.83566  0.08287  1.0000
  S   S42       1.0  0.05563  0.77654  0.29880  1.0000
  C   C174      1.0  0.19538  0.82605  0.08807  1.0000
  C   C175      1.0  0.09292  0.79233  0.32810  1.0000
  H   H194      1.0  0.15472  0.90667  0.28534  1.0000
  H   H195      1.0  0.22913  0.77242  0.04335  1.0000
  C   C176      1.0  0.16898  0.83478  0.34572  1.0000
  H   H196      1.0  0.42248  0.61408  0.08221  1.0000
  H   H197      1.0  0.01122  0.82061  0.32383  1.0000
  H   H198      1.0  0.04587  0.57114  0.32508  1.0000
  C   C177      1.0  0.01121  0.55011  0.33035  1.0000
  C   C178      1.0  0.18026  0.88725  0.03565  1.0000
  H   H199      1.0  0.46929  0.89522  0.32854  1.0000
  C   C179      1.0  0.27355  0.84020  0.05974  1.0000
  H   H200      1.0  0.30279  0.90556  0.08029  1.0000
  C   C180      1.0  0.18049  0.94092  0.28916  1.0000
  C   C181      1.0  0.32147  0.49655  0.05544  1.0000
  C   C182      1.0  0.21582  0.94981  0.30704  1.0000
  H   H201      1.0  0.15028  0.82867  0.30073  1.0000
  H   H202      1.0  0.21762  0.92271  0.31707  1.0000
  H   H203      1.0  0.17416  0.52788  0.30837  1.0000
  H   H204      1.0  0.38127  0.86658  0.05536  1.0000
  H   H205      1.0  0.99326  0.59720  0.31445  1.0000
  C   C183      1.0  0.40126  0.54408  0.04624  1.0000
  C   C184      1.0  0.21379  0.88447  0.02104  1.0000
  H   H206      1.0  0.16526  0.82131  0.09806  1.0000
  H   H207      1.0  0.08513  0.87670  0.33752  1.0000
  H   H208      1.0  0.24729  0.91226  0.02155  1.0000
  Fe  Fe23      1.0  0.26202  0.99113  0.06108  1.0000
  C   C185      1.0  0.27330  0.87339  0.07752  1.0000
  C   C186      1.0  0.23472  0.86629  0.09139  1.0000
  H   H209      1.0  0.36000  0.89365  0.07697  1.0000
  H   H210      1.0  0.17661  0.52016  0.34707  1.0000
  N   N12       1.0  0.44574  0.57754  0.05682  1.0000
  H   H211      1.0  0.29128  0.50202  0.31399  1.0000
  N   N13       1.0  0.31459  0.84921  0.04454  1.0000
  C   C187      1.0  0.35045  0.86167  0.06587  1.0000
  H   H212      1.0  0.15048  0.96733  0.26212  1.0000
  H   H213      1.0  0.30004  0.78130  0.04198  1.0000
  C   C188      1.0  0.99629  0.50836  0.34325  1.0000
  C   C189      1.0  0.43126  0.97704  0.03764  1.0000
  H   H214      1.0  0.33483  0.91775  0.03501  1.0000
  H   H215      1.0  0.11066  0.85311  0.04582  1.0000
  C   C190      1.0  0.13850  0.81955  0.32277  1.0000
  H   H216      1.0  0.16344  0.76186  0.06768  1.0000
  C   C191      1.0  0.13678  0.85105  0.03466  1.0000
  H   H217      1.0  0.36689  0.54091  0.08658  1.0000
  C   C192      1.0  0.19448  0.79260  0.07101  1.0000
  C   C193      1.0  0.15569  0.50706  0.32741  1.0000
  C   C194      1.0  0.17846  0.97590  0.27588  1.0000
  H   H218      1.0  0.40940  0.98957  0.33675  1.0000
  C   C195      1.0  0.45649  0.56016  0.08293  1.0000
  H   H219      1.0  0.23489  0.89265  0.10405  1.0000
  C   C196      1.0  0.30984  0.81061  0.02773  1.0000
  H   H220      1.0  0.20399  0.85538  0.34140  1.0000
  H   H221      1.0  0.43528  0.55670  0.10185  1.0000
  H   H222      1.0  0.47952  0.64517  0.07259  1.0000
  C   C197      1.0  0.44641  0.61920  0.06465  1.0000
  C   C198      1.0  0.36374  0.52861  0.06470  1.0000
  H   H223      1.0  0.46032  0.95092  0.06680  1.0000
  H   H224      1.0  0.99721  0.54967  0.02314  1.0000
  C   C199      1.0  0.47580  0.94446  0.02237  1.0000
  H   H225      1.0  0.45221  0.52677  0.07869  1.0000
  H   H226      1.0  0.43660  0.97143  0.29477  1.0000
  H   H227      1.0  0.23335  0.51936  0.32250  1.0000
  H   H228      1.0  0.43811  0.63319  0.04566  1.0000
  H   H229      1.0  0.12704  0.51211  0.33107  1.0000
  C   C200      1.0  0.48152  0.58928  0.03517  1.0000
  C   C201      1.0  0.12700  0.81189  0.01970  1.0000
  C   C202      1.0  0.01717  0.83368  0.34575  1.0000
  C   C203      1.0  0.45622  0.95697  0.04438  1.0000
  H   H230      1.0  0.48364  0.55962  0.02888  1.0000
  S   S43       1.0  0.30467  0.99142  0.09719  1.0000
  S   S44       1.0  0.40563  0.99001  0.06619  1.0000
  H   H231      1.0  0.38584  0.99154  0.30250  1.0000
  C   C204      1.0  0.39367  0.52564  0.01788  1.0000
  C   C205      1.0  0.31734  0.93283  0.57681  1.0000
  C   C206      1.0  0.99347  0.61816  0.38681  1.0000
  H   H232      1.0  0.43474  0.87516  0.44048  1.0000
  H   H233      1.0  0.00952  0.56685  0.47446  1.0000
  Fe  Fe24      1.0  0.34082  0.94131  0.44677  1.0000
  S   S45       1.0  0.31392  0.87858  0.42047  1.0000
  S   S46       1.0  0.35530  0.93801  0.49451  1.0000
  Fe  Fe25      1.0  0.35935  0.92292  0.38523  1.0000
  H   H234      1.0  0.00291  0.70310  0.64470  1.0000
  Fe  Fe26      1.0  0.26440  0.89558  0.40313  1.0000
  S   S47       1.0  0.19021  0.84569  0.40416  1.0000
  S   S48       1.0  0.28817  0.95577  0.43194  1.0000
  C   C207      1.0  0.03915  0.56646  0.46602  1.0000
  S   S49       1.0  0.38935  0.98439  0.41264  1.0000
  H   H235      1.0  0.46779  0.83329  0.43354  1.0000
  H   H236      1.0  0.45157  0.91774  0.41369  1.0000
  C   C208      1.0  0.06667  0.63827  0.42078  1.0000
  C   C209      1.0  0.99756  0.51248  0.42966  1.0000
  H   H237      1.0  0.46555  0.53796  0.53475  1.0000
  C   C210      1.0  0.11328  0.95873  0.40049  1.0000
  H   H238      1.0  0.99398  0.50314  0.40636  1.0000
  H   H239      1.0  0.27947  0.97966  0.59652  1.0000
  C   C211      1.0  0.40887  0.95490  0.50765  1.0000
  H   H240      1.0  0.33285  0.91213  0.58005  1.0000
  H   H241      1.0  0.04303  0.76037  0.36101  1.0000
  C   C212      1.0  0.45527  0.95189  0.54592  1.0000
  C   C213      1.0  0.41330  0.93721  0.53389  1.0000
  C   C214      1.0  0.06463  0.71108  0.65930  1.0000
  H   H242      1.0  0.38417  0.91193  0.54497  1.0000
  H   H243      1.0  0.03667  0.87745  0.42450  1.0000
  H   H244      1.0  0.18177  0.95454  0.37816  1.0000
  C   C215      1.0  0.04449  0.76801  0.66356  1.0000
  C   C216      1.0  0.07806  0.78036  0.35661  1.0000
  C   C217      1.0  0.15401  0.82347  0.37427  1.0000
  H   H245      1.0  0.39363  0.53186  0.42703  1.0000
  H   H246      1.0  0.44826  0.92967  0.45119  1.0000
  C   C218      1.0  0.03213  0.59313  0.41898  1.0000
  H   H247      1.0  0.10647  0.89823  0.43774  1.0000
  C   C219      1.0  0.03414  0.72507  0.65504  1.0000
  N   N14       1.0  0.33654  0.97153  0.59675  1.0000
  H   H248      1.0  0.07522  0.55306  0.40032  1.0000
  C   C220      1.0  0.32476  0.95395  0.62678  1.0000
  H   H249      1.0  0.45853  0.94928  0.67360  1.0000
  H   H250      1.0  0.09654  0.78690  0.40158  1.0000
  C   C221      1.0  0.10847  0.79577  0.37956  1.0000
  C   C222      1.0  0.14837  0.92982  0.36999  1.0000
  C   C223      1.0  0.12642  0.90137  0.41819  1.0000
  H   H251      1.0  0.09201  0.70612  0.40683  1.0000
  S   S50       1.0  0.30738  0.93422  0.36531  1.0000
  H   H252      1.0  0.36555  0.49455  0.39766  1.0000
  H   H253      1.0  0.02728  0.68782  0.37645  1.0000
  H   H254      1.0  0.07864  0.53017  0.43439  1.0000
  H   H255      1.0  0.02127  0.77907  0.65951  1.0000
  H   H256      1.0  0.10684  0.58901  0.42956  1.0000
  C   C224      1.0  0.06885  0.88328  0.38276  1.0000
  H   H257      1.0  0.12245  0.86811  0.41400  1.0000
  H   H258      1.0  0.32226  0.94294  0.55361  1.0000
  S   S51       1.0  0.40104  0.90328  0.35821  1.0000
  C   C225      1.0  0.46357  0.50930  0.52416  1.0000
  C   C226      1.0  0.08490  0.79685  0.67696  1.0000
  C   C227      1.0  0.02832  0.66186  0.38861  1.0000
  H   H259      1.0  0.15034  0.90029  0.36308  1.0000
  H   H260      1.0  0.09577  0.64780  0.43359  1.0000
  H   H261      1.0  0.10389  0.97214  0.38171  1.0000
  C   C228      1.0  0.07591  0.55768  0.42427  1.0000
  H   H262      1.0  0.16165  0.92388  0.42421  1.0000
  C   C229      1.0  0.11528  0.78270  0.68130  1.0000
  N   N15       1.0  0.03579  0.55790  0.43438  1.0000
  C   C230      1.0  0.44689  0.98736  0.49341  1.0000
  H   H263      1.0  0.08958  0.95298  0.41836  1.0000
  N   N16       1.0  0.11355  0.91763  0.39246  1.0000
  H   H264      1.0  0.28110  0.91101  0.58023  1.0000
  C   C231      1.0  0.03249  0.86594  0.40237  1.0000
  S   S52       1.0  0.43211  0.53058  0.35296  1.0000
  C   C232      1.0  0.45796  0.91102  0.43615  1.0000
  H   H265      1.0  0.43764  0.53943  0.68272  1.0000
  H   H266      1.0  0.04165  0.54026  0.47822  1.0000
  H   H267      1.0  0.45824  0.93795  0.56610  1.0000
  C   C233      1.0  0.05981  0.86629  0.35400  1.0000
  C   C234      1.0  0.36675  0.49744  0.42174  1.0000
  H   H268      1.0  0.33769  0.93148  0.63204  1.0000
  C   C235      1.0  0.10522  0.73997  0.67241  1.0000
  S   S53       1.0  0.05218  0.65718  0.64928  1.0000
  C   C236      1.0  0.99005  0.83317  0.39388  1.0000
  C   C237      1.0  0.06479  0.67198  0.40566  1.0000
  C   C238      1.0  0.99517  0.58408  0.40158  1.0000
  H   H269      1.0  0.06872  0.59872  0.47183  1.0000
  H   H270      1.0  0.40120  0.49956  0.47487  1.0000
  H   H271      1.0  0.33759  0.98127  0.64306  1.0000
  H   H272      1.0  0.28834  0.93387  0.63028  1.0000
  H   H273      1.0  0.14637  0.98530  0.40803  1.0000
  C   C239      1.0  0.45831  0.94077  0.35397  1.0000
  C   C240      1.0  0.47819  0.98321  0.36617  1.0000
  H   H274      1.0  0.33504  0.49425  0.42902  1.0000
  H   H275      1.0  0.12901  0.72937  0.67559  1.0000
  H   H276      1.0  0.44553  0.50673  0.43569  1.0000
  H   H277      1.0  0.40749  0.99168  0.63432  1.0000
  H   H278      1.0  0.14257  0.94508  0.35063  1.0000
  C   C241      1.0  0.43817  0.96213  0.68152  1.0000
  H   H279      1.0  0.37795  0.89880  0.67858  1.0000
  H   H280      1.0  0.45882  0.99304  0.37893  1.0000
  Fe  Fe27      1.0  0.15999  0.89512  0.71154  1.0000
  S   S54       1.0  0.19698  0.86786  0.73448  1.0000
  H   H281      1.0  0.47294  0.67957  0.93999  1.0000
  C   C242      1.0  0.99249  0.78321  0.73288  1.0000
  S   S55       1.0  0.26642  0.96996  0.75508  1.0000
  Fe  Fe28      1.0  0.25787  0.92739  0.71638  1.0000
  C   C243      1.0  0.18937  0.87660  0.93104  1.0000
  Fe  Fe29      1.0  0.20202  0.91194  0.77135  1.0000
  S   S56       1.0  0.19618  0.88715  0.81797  1.0000
  H   H282      1.0  0.30261  0.87893  0.00755  1.0000
  S   S57       1.0  0.16097  0.93615  0.74962  1.0000
  Fe  Fe30      1.0  0.08059  0.71164  0.97377  1.0000
  S   S58       1.0  0.04026  0.73857  0.95498  1.0000
  C   C244      1.0  0.02417  0.65329  0.72969  1.0000
  H   H283      1.0  0.28491  0.80093  0.01021  1.0000
  Fe  Fe31      1.0  0.02781  0.69126  0.91840  1.0000
  S   S59       1.0  0.03051  0.71305  0.87135  1.0000
  S   S60       1.0  0.07125  0.66688  0.93593  1.0000
  C   C245      1.0  0.14994  0.83813  0.83201  1.0000
  C   C246      1.0  0.15293  0.82290  0.85959  1.0000
  C   C247      1.0  0.11656  0.78503  0.87210  1.0000
  C   C248      1.0  0.07683  0.76169  0.85695  1.0000
  C   C249      1.0  0.07403  0.77663  0.82923  1.0000
  C   C250      1.0  0.11036  0.81456  0.81674  1.0000
  H   H284      1.0  0.18371  0.84037  0.87123  1.0000
  H   H285      1.0  0.11937  0.77344  0.89326  1.0000
  H   H286      1.0  0.04343  0.75888  0.81753  1.0000
  H   H287      1.0  0.10773  0.82570  0.79539  1.0000
  H   H288      1.0  0.35930  0.89448  0.01221  1.0000
  H   H289      1.0  0.01267  0.72521  0.77354  1.0000
  C   C251      1.0  0.22954  0.97752  0.92995  1.0000
  C   C252      1.0  0.02574  0.69230  0.73890  1.0000
  C   C253      1.0  0.36539  0.94926  0.69515  1.0000
  C   C254      1.0  0.14522  0.73760  0.75926  1.0000
  S   S61       1.0  0.09571  0.84971  0.68856  1.0000
  H   H290      1.0  0.10203  0.83873  0.94142  1.0000
  H   H291      1.0  0.25723  0.87600  0.77940  1.0000
  C   C255      1.0  0.18756  0.95632  0.97479  1.0000
  H   H292      1.0  0.23670  0.97068  0.90838  1.0000
  C   C256      1.0  0.14832  0.90337  0.90454  1.0000
  H   H293      1.0  0.20388  0.87579  0.95219  1.0000
  S   S62       1.0  0.99059  0.54049  0.95961  1.0000
  H   H294      1.0  0.00384  0.78679  0.71073  1.0000
  H   H295      1.0  0.12448  0.72439  0.74028  1.0000
  C   C257      1.0  0.99314  0.61916  0.77606  1.0000
  C   C258      1.0  0.00796  0.61543  0.74803  1.0000
  H   H296      1.0  0.00577  0.58134  0.69259  1.0000
  H   H297      1.0  0.16812  0.84141  0.92399  1.0000
  C   C259      1.0  0.16078  0.80884  0.00565  1.0000
  C   C260      1.0  0.44579  0.97220  0.98659  1.0000
  Fe  Fe32      1.0  0.01131  0.61452  0.96030  1.0000
  H   H298      1.0  0.13812  0.73326  0.83257  1.0000
  H   H299      1.0  0.10431  0.88794  0.95545  1.0000
  H   H300      1.0  0.02444  0.54482  0.70381  1.0000
  H   H301      1.0  0.13312  0.86376  0.97303  1.0000
  C   C261      1.0  0.20399  0.84526  0.00621  1.0000
  N   N17       1.0  0.26632  0.81949  0.77790  1.0000
  C   C262      1.0  0.29183  0.80304  0.79382  1.0000
  C   C263      1.0  0.28278  0.82794  0.74752  1.0000
  C   C264      1.0  0.27605  0.86267  0.79056  1.0000
  C   C265      1.0  0.21835  0.78694  0.78043  1.0000
  C   C266      1.0  0.19802  0.77360  0.80813  1.0000
  C   C267      1.0  0.19044  0.76789  0.75595  1.0000
  C   C268      1.0  0.15296  0.74267  0.81116  1.0000
  H   H302      1.0  0.05635  0.83621  0.74649  1.0000
  H   H303      1.0  0.22982  0.84286  0.99507  1.0000
  H   H304      1.0  0.28341  0.76936  0.78607  1.0000
  H   H305      1.0  0.32813  0.82558  0.79092  1.0000
  H   H306      1.0  0.28549  0.80083  0.81753  1.0000
  H   H307      1.0  0.27788  0.79715  0.73679  1.0000
  H   H308      1.0  0.31870  0.85316  0.74606  1.0000
  H   H309      1.0  0.09155  0.70180  0.78942  1.0000
  H   H310      1.0  0.26693  0.85997  0.81388  1.0000
  H   H311      1.0  0.31170  0.88840  0.78865  1.0000
  C   C269      1.0  0.99498  0.65843  0.78515  1.0000
  H   H312      1.0  0.21665  0.78763  0.82773  1.0000
  H   H313      1.0  0.20246  0.77639  0.73396  1.0000
  C   C270      1.0  0.01109  0.69482  0.76652  1.0000
  H   H314      1.0  0.41996  0.53435  0.00235  1.0000
  N   N18       1.0  0.16396  0.89982  0.93371  1.0000
  C   C271      1.0  0.01097  0.80873  0.78234  1.0000
  C   C272      1.0  0.12414  0.87159  0.95173  1.0000
  H   H315      1.0  0.44170  0.97826  0.96417  1.0000
  H   H316      1.0  0.16170  0.93338  0.98922  1.0000
  S   S63       1.0  0.02457  0.65752  0.99970  1.0000
  H   H317      1.0  0.17521  0.91748  0.88800  1.0000
  C   C273      1.0  0.39243  0.93343  0.68461  1.0000
  C   C274      1.0  0.35122  0.49369  0.00886  1.0000
  C   C275      1.0  0.03204  0.56311  0.75963  1.0000
  H   H318      1.0  0.13303  0.92461  0.90518  1.0000
  S   S64       1.0  0.22024  0.95135  0.69013  1.0000
  H   H319      1.0  0.12321  0.87021  0.89588  1.0000
  H   H320      1.0  0.26596  0.84170  0.73451  1.0000
  C   C276      1.0  0.02306  0.81163  0.75331  1.0000
  C   C277      1.0  0.12659  0.72492  0.78681  1.0000
  H   H321      1.0  0.21708  0.89321  0.91523  1.0000
  H   H322      1.0  0.03876  0.72092  0.72454  1.0000
  Fe  Fe33      1.0  0.22477  0.99082  0.72997  1.0000
  S   S65       1.0  0.15064  0.75982  0.98783  1.0000
  N   N19       1.0  0.00642  0.57377  0.73904  1.0000
  H   H323      1.0  0.06677  0.59119  0.76119  1.0000
  H   H324      1.0  0.14678  0.80482  0.69106  1.0000
  S   S66       1.0  0.30786  0.91196  0.69666  1.0000
  H   H325      1.0  0.03605  0.65373  0.70809  1.0000
  C   C278      1.0  0.02501  0.57613  0.70962  1.0000
  H   H326      1.0  0.06010  0.60344  0.70788  1.0000
  H   H327      1.0  0.01759  0.55597  0.78181  1.0000
  C   C279      1.0  0.47085  0.95224  0.99333  1.0000
  H   H328      1.0  0.03480  0.83096  0.79808  1.0000
  C   C280      1.0  0.42622  0.98474  0.00860  1.0000
  H   H329      1.0  0.03308  0.53291  0.75281  1.0000
  C   C281      1.0  0.45798  0.52604  0.68964  1.0000
  C   C282      1.0  0.19300  0.94464  0.94612  1.0000
  H   H330      1.0  0.47670  0.60439  0.01536  1.0000
  H   H331      1.0  0.34142  0.81838  0.01686  1.0000
  H   H332      1.0  0.98441  0.66092  0.80692  1.0000
  Fe  Fe34      1.0  0.74926  0.05067  0.31856  1.0000
  S   S67       1.0  0.71511  0.08440  0.29986  1.0000
  H   H333      1.0  0.61972  0.12738  0.02475  1.0000
  C   C283      1.0  0.77895  0.06514  0.07089  1.0000
  Fe  Fe35      1.0  0.70540  0.04299  0.26033  1.0000
  S   S68       1.0  0.71128  0.07377  0.21567  1.0000
  S   S69       1.0  0.68805  0.99491  0.33917  1.0000
  Fe  Fe36      1.0  0.82865  0.22623  0.04991  1.0000
  S   S70       1.0  0.86891  0.19846  0.06742  1.0000
  H   H334      1.0  0.81385  0.06322  0.12223  1.0000
  Fe  Fe37      1.0  0.90073  0.32294  0.06227  1.0000
  S   S71       1.0  0.94532  0.30106  0.08216  1.0000
  S   S72       1.0  0.92285  0.39735  0.06217  1.0000
  Fe  Fe38      1.0  0.92572  0.25519  0.04402  1.0000
  Fe  Fe39      1.0  0.88419  0.24612  0.10414  1.0000
  S   S73       1.0  0.88475  0.22038  0.14958  1.0000
  C   C284      1.0  0.54327  0.02969  0.27359  1.0000
  S   S74       1.0  0.84114  0.27183  0.08787  1.0000
  C   C285      1.0  0.94673  0.43677  0.03340  1.0000
  C   C286      1.0  0.48487  0.48225  0.03919  1.0000
  H   H335      1.0  0.49101  0.11263  0.33765  1.0000
  C   C287      1.0  0.83636  0.18053  0.16827  1.0000
  C   C288      1.0  0.83998  0.15597  0.19115  1.0000
  C   C289      1.0  0.80218  0.12386  0.20635  1.0000
  C   C290      1.0  0.76032  0.11626  0.19898  1.0000
  C   C291      1.0  0.75680  0.14111  0.17630  1.0000
  C   C292      1.0  0.79453  0.17299  0.16098  1.0000
  H   H336      1.0  0.87215  0.16125  0.19683  1.0000
  H   H337      1.0  0.80528  0.10423  0.22327  1.0000
  H   H338      1.0  0.72456  0.13542  0.17038  1.0000
  H   H339      1.0  0.79123  0.19182  0.14356  1.0000
  H   H340      1.0  0.83211  0.15293  0.26631  1.0000
  C   C293      1.0  0.82947  0.22719  0.25491  1.0000
  H   H341      1.0  0.85906  0.17076  0.30046  1.0000
  H   H342      1.0  0.56848  0.02404  0.26430  1.0000
  C   C294      1.0  0.80136  0.08670  0.11988  1.0000
  C   C295      1.0  0.88787  0.47734  0.08782  1.0000
  C   C296      1.0  0.70958  0.02278  0.13967  1.0000
  H   H343      1.0  0.88686  0.28842  0.29284  1.0000
  H   H344      1.0  0.95801  0.26412  0.19466  1.0000
  H   H345      1.0  0.67727  0.09418  0.03476  1.0000
  C   C297      1.0  0.55388  0.07237  0.28193  1.0000
  H   H346      1.0  0.80612  0.09796  0.06305  1.0000
  C   C298      1.0  0.70214  0.09021  0.02355  1.0000
  H   H347      1.0  0.93246  0.22387  0.29875  1.0000
  H   H348      1.0  0.83779  0.24563  0.31048  1.0000
  H   H349      1.0  0.75232  0.05375  0.05454  1.0000
  H   H350      1.0  0.82917  0.11918  0.11202  1.0000
  C   C299      1.0  0.93704  0.23307  0.27608  1.0000
  H   H351      1.0  0.79329  0.09327  0.14192  1.0000
  H   H352      1.0  0.53178  0.11345  0.30057  1.0000
  Fe  Fe40      1.0  0.65289  0.02527  0.31691  1.0000
  H   H353      1.0  0.71797  0.08797  0.08374  1.0000
  C   C300      1.0  0.83882  0.17637  0.28456  1.0000
  S   S75       1.0  0.60599  0.04010  0.34151  1.0000
  H   H354      1.0  0.84356  0.26182  0.24673  1.0000
  N   N20       1.0  0.76292  0.06849  0.10010  1.0000
  H   H355      1.0  0.88892  0.24849  0.21629  1.0000
  H   H356      1.0  0.79194  0.04190  0.07074  1.0000
  H   H357      1.0  0.88360  0.44723  0.09787  1.0000
  H   H358      1.0  0.77304  0.13343  0.08948  1.0000
  C   C301      1.0  0.95240  0.25596  0.21757  1.0000
  H   H359      1.0  0.73702  0.10719  0.11960  1.0000
  H   H360      1.0  0.88922  0.24903  0.31643  1.0000
  S   S76       1.0  0.74383  0.01273  0.27780  1.0000
  S   S77       1.0  0.81502  0.08629  0.34159  1.0000
  C   C302      1.0  0.87493  0.47610  0.05910  1.0000
  C   C303      1.0  0.86909  0.25281  0.29948  1.0000
  C   C304      1.0  0.91241  0.24670  0.23040  1.0000
  H   H361      1.0  0.82011  0.20420  0.23607  1.0000
  H   H362      1.0  0.79799  0.21832  0.26634  1.0000
  H   H363      1.0  0.80675  0.16632  0.29549  1.0000
  H   H364      1.0  0.58741  0.09976  0.27890  1.0000
  C   C305      1.0  0.90336  0.23462  0.26012  1.0000
  H   H365      1.0  0.60253  0.04889  0.02485  1.0000
  C   C306      1.0  0.52189  0.07965  0.29477  1.0000
  C   C307      1.0  0.74710  0.10060  0.09821  1.0000
  C   C308      1.0  0.97703  0.24270  0.26308  1.0000
  N   N21       1.0  0.86088  0.22310  0.27428  1.0000
  H   H366      1.0  0.54556  0.03361  0.02278  1.0000
  H   H367      1.0  0.86055  0.44410  0.04850  1.0000
  H   H368      1.0  0.76004  0.48786  0.10092  1.0000
  C   C309      1.0  0.72679  0.02546  0.11135  1.0000
  H   H369      1.0  0.72211  0.05174  0.15343  1.0000
  C   C310      1.0  0.96716  0.48248  0.03985  1.0000
  C   C311      1.0  0.74557  0.12635  0.02213  1.0000
  H   H370      1.0  0.97891  0.16176  0.07231  1.0000
  C   C312      1.0  0.54936  0.00096  0.34567  1.0000
  S   S78       1.0  0.88400  0.27920  0.02288  1.0000
  H   H371      1.0  0.80113  0.48874  0.02565  1.0000
  S   S79       1.0  0.75766  0.17775  0.03743  1.0000
  S   S80       1.0  0.97066  0.23999  0.01749  1.0000
  H   H372      1.0  0.56240  0.10900  0.02074  1.0000
  C   C313      1.0  0.50056  0.99415  0.27790  1.0000
  H   H373      1.0  0.88711  0.47514  0.34921  1.0000
  C   C314      1.0  0.95144  0.48152  0.35001  1.0000
  H   H374      1.0  0.97073  0.49297  0.06221  1.0000
  H   H375      1.0  0.93685  0.39033  0.63076  1.0000
  S   S81       1.0  0.94998  0.40031  0.40821  1.0000
  S   S82       1.0  0.54697  0.00282  0.54507  1.0000
  H   H376      1.0  0.87791  0.25093  0.64405  1.0000
  Fe  Fe41      1.0  0.94206  0.33420  0.39503  1.0000
  S   S83       1.0  0.87249  0.28189  0.38277  1.0000
  C   C315      1.0  0.79964  0.15348  0.35751  1.0000
  H   H377      1.0  0.79995  0.35807  0.60309  1.0000
  C   C316      1.0  0.91091  0.32188  0.63859  1.0000
  Fe  Fe42      1.0  0.64237  0.04329  0.63410  1.0000
  S   S84       1.0  0.71463  0.09930  0.63356  1.0000
  S   S85       1.0  0.59238  0.06066  0.61845  1.0000
  H   H378      1.0  0.84128  0.00663  0.36290  1.0000
  H   H379      1.0  0.49959  0.48141  0.46362  1.0000
  C   C317      1.0  0.75381  0.11537  0.66185  1.0000
  C   C318      1.0  0.79751  0.14964  0.65662  1.0000
  H   H380      1.0  0.90657  0.45879  0.58941  1.0000
  H   H381      1.0  0.80665  0.16470  0.63538  1.0000
  H   H382      1.0  0.51205  0.06806  0.57493  1.0000
  C   C319      1.0  0.54301  0.48276  0.56332  1.0000
  H   H383      1.0  0.86338  0.40920  0.55274  1.0000
  H   H384      1.0  0.80978  0.29797  0.59223  1.0000
  H   H385      1.0  0.93871  0.32800  0.65203  1.0000
  H   H386      1.0  0.81368  0.23644  0.61431  1.0000
  S   S86       1.0  0.88359  0.45972  0.68216  1.0000
  H   H387      1.0  0.83322  0.35049  0.55749  1.0000
  H   H388      1.0  0.77734  0.00782  0.38035  1.0000
  C   C320      1.0  0.85709  0.22665  0.37395  1.0000
  H   H389      1.0  0.83477  0.39319  0.63170  1.0000
  H   H390      1.0  0.88707  0.46691  0.49376  1.0000
  C   C321      1.0  0.81296  0.19693  0.36662  1.0000
  Fe  Fe43      1.0  0.54925  0.01775  0.65485  1.0000
  C   C322      1.0  0.87658  0.27843  0.63427  1.0000
  H   H391      1.0  0.66721  0.47287  0.38392  1.0000
  H   H392      1.0  0.66075  0.14698  0.66193  1.0000
  C   C323      1.0  0.84046  0.27041  0.61750  1.0000
  C   C324      1.0  0.96271  0.46143  0.67645  1.0000
  C   C325      1.0  0.90942  0.35760  0.62609  1.0000
  H   H393      1.0  0.89848  0.15808  0.36197  1.0000
  H   H394      1.0  0.89229  0.37897  0.55338  1.0000
  C   C326      1.0  0.93859  0.45051  0.49059  1.0000
  C   C327      1.0  0.88787  0.21243  0.37253  1.0000
  C   C328      1.0  0.90985  0.43198  0.60007  1.0000
  N   N22       1.0  0.87018  0.38761  0.59525  1.0000
  H   H395      1.0  0.92563  0.43099  0.47106  1.0000
  C   C329      1.0  0.91677  0.47080  0.50352  1.0000
  H   H396      1.0  0.91472  0.44057  0.62348  1.0000
  H   H397      1.0  0.86311  0.19041  0.67435  1.0000
  C   C330      1.0  0.97670  0.45497  0.50323  1.0000
  C   C331      1.0  0.86444  0.38108  0.56343  1.0000
  H   H398      1.0  0.94018  0.43388  0.59095  1.0000
  H   H399      1.0  0.82916  0.41721  0.59880  1.0000
  C   C332      1.0  0.83864  0.30589  0.60487  1.0000
  C   C333      1.0  0.87322  0.35064  0.60861  1.0000
  C   C334      1.0  0.83177  0.38890  0.60769  1.0000
  H   H400      1.0  0.48555  0.03457  0.62330  1.0000
  H   H401      1.0  0.53840  0.04623  0.37122  1.0000
  H   H402      1.0  0.92199  0.23516  0.37813  1.0000
  H   H403      1.0  0.66232  0.10194  0.67896  1.0000
  C   C335      1.0  0.82957  0.16428  0.67858  1.0000
  H   H404      1.0  0.74077  0.48374  0.37819  1.0000
  C   C336      1.0  0.54463  0.48849  0.61558  1.0000
  H   H405      1.0  0.78897  0.20768  0.36778  1.0000
  H   H406      1.0  0.93938  0.44905  0.35951  1.0000
  H   H407      1.0  0.51803  0.02802  0.49476  1.0000
  C   C337      1.0  0.48882  0.00211  0.50548  1.0000
  H   H408      1.0  0.80544  0.49014  0.39846  1.0000
  S   S87       1.0  0.60131  0.00508  0.67267  1.0000
  H   H409      1.0  0.48969  0.43796  0.59122  1.0000
  Fe  Fe44      1.0  0.56314  0.99785  0.59222  1.0000
  C   C338      1.0  0.87448  0.16878  0.36342  1.0000
  H   H410      1.0  0.61101  0.10125  0.67571  1.0000
  H   H411      1.0  0.76551  0.13098  0.35196  1.0000
  C   C339      1.0  0.52335  0.01329  0.36181  1.0000
  H   H412      1.0  0.52705  0.47533  0.63580  1.0000
  C   C340      1.0  0.64691  0.12295  0.68016  1.0000
  C   C341      1.0  0.52275  0.46693  0.59015  1.0000
  H   H413      1.0  0.57665  0.49074  0.67008  1.0000
  H   H414      1.0  0.71741  0.21288  0.67547  1.0000
  C   C342      1.0  0.83040  0.13936  0.35559  1.0000
  H   H415      1.0  0.52586  0.46612  0.54363  1.0000
  H   H416      1.0  0.97508  0.49301  0.66574  1.0000
  S   S88       1.0  0.51458  0.04400  0.68336  1.0000
  S   S89       1.0  0.98216  0.33192  0.43221  1.0000
  H   H417      1.0  0.79700  0.25744  0.68341  1.0000
  C   C343      1.0  0.94326  0.42390  0.00434  1.0000
  H   H418      1.0  0.78426  0.18596  0.76144  1.0000
  C   C344      1.0  0.69083  0.04934  0.01038  1.0000
  C   C345      1.0  0.93193  0.37981  0.70482  1.0000
  Fe  Fe45      1.0  0.92904  0.21980  0.73202  1.0000
  S   S90       1.0  0.85678  0.16422  0.73485  1.0000
  S   S91       1.0  0.95323  0.28231  0.75862  1.0000
  C   C346      1.0  0.62800  0.05778  0.95490  1.0000
  H   H419      1.0  0.97693  0.35277  0.99397  1.0000
  H   H420      1.0  0.64051  0.19102  0.73012  1.0000
  H   H421      1.0  0.55939  0.09546  0.95390  1.0000
  C   C347      1.0  0.81821  0.14491  0.70607  1.0000
  C   C348      1.0  0.77463  0.11020  0.71122  1.0000
  N   N23       1.0  0.58778  0.08026  0.99009  1.0000
  H   H422      1.0  0.76560  0.09493  0.73242  1.0000
  H   H423      1.0  0.59445  0.08797  0.72533  1.0000
  C   C349      1.0  0.72312  0.04439  0.99578  1.0000
  H   H424      1.0  0.73474  0.11228  0.93138  1.0000
  H   H425      1.0  0.65724  0.02172  0.01139  1.0000
  H   H426      1.0  0.60112  0.14755  0.99503  1.0000
  C   C350      1.0  0.70265  0.17203  0.71435  1.0000
  H   H427      1.0  0.78798  0.99984  0.72619  1.0000
  C   C351      1.0  0.57546  0.04191  0.00961  1.0000
  H   H428      1.0  0.95474  0.44576  0.95973  1.0000
  H   H429      1.0  0.63241  0.12215  0.75266  1.0000
  C   C352      1.0  0.77616  0.23222  0.69907  1.0000
  C   C353      1.0  0.72319  0.16592  0.73895  1.0000
  C   C354      1.0  0.91918  0.43817  0.68666  1.0000
  H   H430      1.0  0.59880  0.02526  0.95259  1.0000
  C   C355      1.0  0.63037  0.10855  0.73053  1.0000
  H   H431      1.0  0.83074  0.24413  0.72623  1.0000
  C   C356      1.0  0.70582  0.13994  0.95963  1.0000
  H   H432      1.0  0.92758  0.38894  0.99894  1.0000
  C   C357      1.0  0.76681  0.08028  0.99492  1.0000
  C   C358      1.0  0.70493  0.10673  0.94231  1.0000
  H   H433      1.0  0.66583  0.03982  0.92675  1.0000
  H   H434      1.0  0.56783  0.01119  0.99757  1.0000
  H   H435      1.0  0.91991  0.34829  0.71577  1.0000
  C   C359      1.0  0.55066  0.06848  0.96998  1.0000
  H   H436      1.0  0.81166  0.14882  0.00682  1.0000
  C   C360      1.0  0.95860  0.45626  0.98212  1.0000
  S   S92       1.0  0.98261  0.20764  0.74785  1.0000
  N   N24       1.0  0.65455  0.14457  0.70889  1.0000
  H   H437      1.0  0.73656  0.17125  0.96225  1.0000
  H   H438      1.0  0.70509  0.14042  0.75494  1.0000
  H   H439      1.0  0.64320  0.08512  0.73091  1.0000
  C   C361      1.0  0.66604  0.06585  0.93980  1.0000
  H   H440      1.0  0.79202  0.07657  0.98382  1.0000
  C   C362      1.0  0.66804  0.13222  0.97493  1.0000
  C   C363      1.0  0.74251  0.09555  0.68927  1.0000
  H   H441      1.0  0.74399  0.01401  0.69092  1.0000
  C   C364      1.0  0.79522  0.22506  0.72324  1.0000
  C   C365      1.0  0.76880  0.19221  0.74318  1.0000
  C   C366      1.0  0.62797  0.09048  0.97331  1.0000
  H   H442      1.0  0.88881  0.46874  0.99954  1.0000
  H   H443      1.0  0.67185  0.15899  0.98873  1.0000
  H   H444      1.0  0.52947  0.47703  0.71516  1.0000
  C   C367      1.0  0.86038  0.47428  0.99809  1.0000
  S   S93       1.0  0.96701  0.25568  0.69201  1.0000
  H   H445      1.0  0.83042  0.44401  0.00632  1.0000
  H   H446      1.0  0.59808  0.15324  0.70570  1.0000
  C   C368      1.0  0.77805  0.12115  0.00805  1.0000
  H   H447      1.0  0.64814  0.19860  0.69161  1.0000
  C   C369      1.0  0.90388  0.39734  0.70093  1.0000
  H   H448      1.0  0.85461  0.47640  0.97461  1.0000
  C   C370      1.0  0.97547  0.40324  0.69449  1.0000
  C   C371      1.0  0.63454  0.17320  0.70911  1.0000
  H   H449      1.0  0.54112  0.03738  0.95772  1.0000
  H   H450      1.0  0.52028  0.06240  0.98176  1.0000
  C   C372      1.0  0.50958  0.49070  0.70782  1.0000
  C   C373      1.0  0.73056  0.20633  0.69468  1.0000
  H   H451      1.0  0.87026  0.37917  0.70900  1.0000
  C   C374      1.0  0.59319  0.11785  0.00839  1.0000
  H   H452      1.0  0.97203  0.29101  0.96475  1.0000
  H   H453      1.0  0.70914  0.06896  0.69357  1.0000
  S   S94       1.0  0.71058  0.99364  0.97921  1.0000
  Fe  Fe46      1.0  0.91634  0.62377  0.30839  1.0000
  C   C375      1.0  0.70697  0.98557  0.09471  1.0000
  C   C376      1.0  0.56929  0.72342  0.03549  1.0000
  Fe  Fe47      1.0  0.90217  0.67607  0.26024  1.0000
  S   S95       1.0  0.92989  0.73760  0.28798  1.0000
  S   S96       1.0  0.88239  0.68052  0.21385  1.0000
  H   H454      1.0  0.84222  0.60362  0.07018  1.0000
  Fe  Fe48      1.0  0.88931  0.69110  0.32393  1.0000
  H   H455      1.0  0.69445  0.80436  0.02361  1.0000
  S   S97       1.0  0.95789  0.66360  0.27041  1.0000
  S   S98       1.0  0.85840  0.63078  0.29539  1.0000
  Fe  Fe49      1.0  0.66430  0.65415  0.06136  1.0000
  H   H456      1.0  0.60975  0.63651  0.29071  1.0000
  C   C377      1.0  0.62918  0.79506  0.01977  1.0000
  Fe  Fe50      1.0  0.67390  0.60080  0.11058  1.0000
  S   S99       1.0  0.64583  0.53904  0.08301  1.0000
  S   S100      1.0  0.69093  0.59500  0.15749  1.0000
  Fe  Fe51      1.0  0.68920  0.58488  0.04761  1.0000
  H   H457      1.0  0.65195  0.69320  0.29649  1.0000
  Fe  Fe52      1.0  0.59509  0.55613  0.06837  1.0000
  C   C378      1.0  0.90820  0.51731  0.10305  1.0000
  S   S101      1.0  0.72040  0.64523  0.07599  1.0000
  S   S102      1.0  0.62003  0.61508  0.09851  1.0000
  Fe  Fe53      1.0  0.67945  0.95890  0.29711  1.0000
  H   H458      1.0  0.76311  0.59553  0.11387  1.0000
  S   S103      1.0  0.66209  0.88633  0.29359  1.0000
  C   C379      1.0  0.79323  0.51863  0.10059  1.0000
  C   C380      1.0  0.98146  0.56494  0.32431  1.0000
  C   C381      1.0  0.52986  0.95821  0.33376  1.0000
  H   H459      1.0  0.74344  0.66400  0.23992  1.0000
  H   H460      1.0  0.87297  0.69722  0.04150  1.0000
  C   C382      1.0  0.72556  0.60614  0.34298  1.0000
  C   C383      1.0  0.76402  0.95496  0.33594  1.0000
  H   H461      1.0  0.82249  0.70941  0.24923  1.0000
  H   H462      1.0  0.63666  0.79390  0.29465  1.0000
  C   C384      1.0  0.78426  0.73630  0.30900  1.0000
  C   C385      1.0  0.77163  0.63339  0.34192  1.0000
  H   H463      1.0  0.79242  0.64810  0.04733  1.0000
  H   H464      1.0  0.70983  0.57509  0.33113  1.0000
  H   H465      1.0  0.78469  0.88602  0.33372  1.0000
  S   S104      1.0  0.89797  0.55539  0.32517  1.0000
  S   S105      1.0  0.63597  0.59651  0.03044  1.0000
  C   C386      1.0  0.66279  0.60655  0.27383  1.0000
  H   H466      1.0  0.76905  0.57420  0.07982  1.0000
  C   C387      1.0  0.74411  0.62096  0.17344  1.0000
  C   C388      1.0  0.74903  0.60649  0.20085  1.0000
  C   C389      1.0  0.79096  0.62490  0.21384  1.0000
  C   C390      1.0  0.82844  0.65806  0.19949  1.0000
  C   C391      1.0  0.82340  0.67276  0.17222  1.0000
  C   C392      1.0  0.78151  0.65448  0.15928  1.0000
  H   H467      1.0  0.72033  0.58039  0.21192  1.0000
  H   H468      1.0  0.79437  0.61308  0.23476  1.0000
  H   H469      1.0  0.85219  0.69839  0.16094  1.0000
  H   H470      1.0  0.77826  0.66635  0.13835  1.0000
  H   H471      1.0  0.74152  0.50921  0.14618  1.0000
  C   C393      1.0  0.66299  0.66420  0.24489  1.0000
  H   H472      1.0  0.92345  0.66487  0.16180  1.0000
  C   C394      1.0  0.59967  0.70978  0.04231  1.0000
  C   C395      1.0  0.64486  0.73883  0.03778  1.0000
  H   H473      1.0  0.58839  0.67702  0.05111  1.0000
  H   H474      1.0  0.68090  0.59942  0.25678  1.0000
  H   H475      1.0  0.54971  0.94840  0.32125  1.0000
  H   H476      1.0  0.74885  0.80596  0.34201  1.0000
  C   C396      1.0  0.79898  0.70981  0.26447  1.0000
  H   H477      1.0  0.49506  0.92920  0.02787  1.0000
  H   H478      1.0  0.84939  0.75522  0.29355  1.0000
  C   C397      1.0  0.61546  0.76994  0.33829  1.0000
  H   H479      1.0  0.79647  0.75583  0.32863  1.0000
  H   H480      1.0  0.77732  0.99083  0.33111  1.0000
  S   S106      1.0  0.68412  0.72290  0.04502  1.0000
  C   C398      1.0  0.83837  0.59472  0.11705  1.0000
  H   H481      1.0  0.79064  0.62332  0.32905  1.0000
  S   S107      1.0  0.94473  0.68163  0.33923  1.0000
  C   C399      1.0  0.85893  0.61591  0.09056  1.0000
  H   H482      1.0  0.49137  0.58208  0.08992  1.0000
  H   H483      1.0  0.91656  0.66921  0.06937  1.0000
  C   C400      1.0  0.86330  0.61307  0.14274  1.0000
  H   H484      1.0  0.77672  0.94235  0.31851  1.0000
  H   H485      1.0  0.95729  0.70036  0.11490  1.0000
  C   C401      1.0  0.90233  0.55532  0.06101  1.0000
  H   H486      1.0  0.67093  0.59750  0.29507  1.0000
  N   N25       1.0  0.67413  0.65374  0.27367  1.0000
  H   H487      1.0  0.65810  0.91562  0.09309  1.0000
  C   C402      1.0  0.65722  0.94419  0.13422  1.0000
  H   H488      1.0  0.62677  0.64486  0.24079  1.0000
  N   N26       1.0  0.79324  0.55517  0.11713  1.0000
  H   H489      1.0  0.67394  0.70022  0.24317  1.0000
  H   H490      1.0  0.83366  0.54840  0.02490  1.0000
  C   C403      1.0  0.77596  0.53804  0.14665  1.0000
  C   C404      1.0  0.75361  0.68380  0.25940  1.0000
  C   C405      1.0  0.81424  0.73588  0.28929  1.0000
  C   C406      1.0  0.72202  0.68281  0.27922  1.0000
  H   H491      1.0  0.65022  0.64851  0.31756  1.0000
  C   C407      1.0  0.73876  0.70999  0.30432  1.0000
  Fe  Fe54      1.0  0.98277  0.72244  0.30061  1.0000
  H   H492      1.0  0.72722  0.53835  0.10473  1.0000
  C   C408      1.0  0.63186  0.80263  0.31632  1.0000
  C   C409      1.0  0.80938  0.64166  0.03017  1.0000
  C   C410      1.0  0.64176  0.84643  0.32208  1.0000
  S   S108      1.0  0.52094  0.50581  0.06910  1.0000
  C   C411      1.0  0.90145  0.65339  0.08985  1.0000
  H   H493      1.0  0.62688  0.58341  0.27014  1.0000
  H   H494      1.0  0.67856  0.65593  0.22670  1.0000
  C   C412      1.0  0.67274  0.94564  0.10614  1.0000
  H   H495      1.0  0.71710  0.98425  0.07275  1.0000
  S   S109      1.0  0.63987  0.98579  0.27597  1.0000
  C   C413      1.0  0.67558  0.98273  0.15093  1.0000
  H   H496      1.0  0.85066  0.59986  0.16406  1.0000
  C   C414      1.0  0.64551  0.65847  0.29556  1.0000
  C   C415      1.0  0.90564  0.65073  0.14179  1.0000
  H   H497      1.0  0.53437  0.70100  0.03888  1.0000
  H   H498      1.0  0.71751  0.71079  0.32102  1.0000
  H   H499      1.0  0.77481  0.56388  0.16017  1.0000
  C   C416      1.0  0.76203  0.56632  0.10324  1.0000
  C   C417      1.0  0.93661  0.53803  0.33120  1.0000
  H   H500      1.0  0.49270  0.96083  0.27189  1.0000
  C   C418      1.0  0.88278  0.51540  0.04453  1.0000
  C   C419      1.0  0.85522  0.66936  0.02693  1.0000
  H   H501      1.0  0.63080  0.91318  0.14303  1.0000
  C   C420      1.0  0.92463  0.67090  0.11544  1.0000
  C   C421      1.0  0.91513  0.55616  0.08974  1.0000
  H   H502      1.0  0.76706  0.74043  0.02405  1.0000
  H   H503      1.0  0.81735  0.51021  0.10979  1.0000
  H   H504      1.0  0.72754  0.93745  0.33367  1.0000
  H   H505      1.0  0.80207  0.52746  0.07747  1.0000
  H   H506      1.0  0.51456  0.61381  0.04390  1.0000
  H   H507      1.0  0.90845  0.58640  0.05176  1.0000
  H   H508      1.0  0.60787  0.73640  0.33353  1.0000
  C   C422      1.0  0.58399  0.76609  0.02421  1.0000
  H   H509      1.0  0.66347  0.98185  0.17278  1.0000
  C   C423      1.0  0.92178  0.49631  0.34403  1.0000
  C   C424      1.0  0.65948  0.78148  0.02663  1.0000
  H   H510      1.0  0.93115  0.58728  0.10164  1.0000
  H   H511      1.0  0.91912  0.51820  0.12508  1.0000
  C   C425      1.0  0.48435  0.92818  0.33790  1.0000
  H   H512      1.0  0.79642  0.52669  0.15795  1.0000
  C   C426      1.0  0.63542  0.85731  0.35019  1.0000
  S   S110      1.0  0.72924  0.56750  0.01711  1.0000
  C   C427      1.0  0.98224  0.51480  0.01767  1.0000
  H   H513      1.0  0.80541  0.72256  0.01795  1.0000
  Fe  Fe55      1.0  0.91766  0.54841  0.59076  1.0000
  H   H514      1.0  0.53636  0.72312  0.58669  1.0000
  H   H515      1.0  0.56787  0.98497  0.44053  1.0000
  C   C428      1.0  0.76231  0.97185  0.38597  1.0000
  H   H516      1.0  0.78299  0.71594  0.38671  1.0000
  C   C429      1.0  0.65695  0.58483  0.63819  1.0000
  Fe  Fe56      1.0  0.88775  0.59449  0.63525  1.0000
  S   S111      1.0  0.85512  0.63685  0.63826  1.0000
  S   S112      1.0  0.94265  0.62020  0.60193  1.0000
  C   C430      1.0  0.58506  0.52035  0.56181  1.0000
  S   S113      1.0  0.51628  0.95610  0.62751  1.0000
  H   H517      1.0  0.65971  0.61259  0.62476  1.0000
  S   S114      1.0  0.90302  0.51849  0.54547  1.0000
  C   C431      1.0  0.48575  0.51490  0.49766  1.0000
  Fe  Fe57      1.0  0.57173  0.94616  0.64264  1.0000
  C   C432      1.0  0.68887  0.53537  0.40504  1.0000
  S   S115      1.0  0.51831  0.56932  0.48325  1.0000
  H   H518      1.0  0.96548  0.61046  0.37313  1.0000
  S   S116      1.0  0.53062  0.54121  0.39986  1.0000
  Fe  Fe58      1.0  0.56752  0.66744  0.39356  1.0000
  S   S117      1.0  0.60469  0.64283  0.42008  1.0000
  S   S118      1.0  0.58923  0.74142  0.39515  1.0000
  Fe  Fe59      1.0  0.59390  0.59837  0.38189  1.0000
  S   S119      1.0  0.92865  0.58956  0.67078  1.0000
  Fe  Fe60      1.0  0.53790  0.58790  0.43574  1.0000
  C   C433      1.0  0.49367  0.85242  0.41797  1.0000
  H   H519      1.0  0.48844  0.87600  0.47449  1.0000
  H   H520      1.0  0.71955  0.89695  0.41127  1.0000
  H   H521      1.0  0.58418  0.91551  0.35964  1.0000
  C   C434      1.0  0.75585  0.90007  0.37145  1.0000
  H   H522      1.0  0.60770  0.73417  0.60445  1.0000
  C   C435      1.0  0.51102  0.91175  0.46949  1.0000
  H   H523      1.0  0.84767  0.62714  0.38210  1.0000
  C   C436      1.0  0.52882  0.69243  0.65706  1.0000
  H   H524      1.0  0.64302  0.89080  0.35502  1.0000
  C   C437      1.0  0.52322  0.71528  0.60920  1.0000
  H   H525      1.0  0.50779  0.53936  0.57861  1.0000
  C   C438      1.0  0.50220  0.57152  0.61677  1.0000
  C   C439      1.0  0.72495  0.57489  0.41469  1.0000
  H   H526      1.0  0.77275  0.97077  0.40850  1.0000
  S   S120      1.0  0.85087  0.70796  0.35625  1.0000
  H   H527      1.0  0.71973  0.60058  0.42384  1.0000
  C   C440      1.0  0.63244  0.88173  0.65474  1.0000
  N   N27       1.0  0.77626  0.94832  0.36539  1.0000
  C   C441      1.0  0.49326  0.98446  0.53172  1.0000
  C   C442      1.0  0.76362  0.87244  0.35256  1.0000
  C   C443      1.0  0.53495  0.65272  0.61416  1.0000
  H   H528      1.0  0.52861  0.74718  0.61863  1.0000
  C   C444      1.0  0.76777  0.58236  0.41129  1.0000
  H   H529      1.0  0.96617  0.50934  0.43773  1.0000
  H   H530      1.0  0.82544  0.54529  0.44037  1.0000
  C   C445      1.0  0.82504  0.97002  0.36682  1.0000
  H   H531      1.0  0.81106  0.51097  0.36171  1.0000
  C   C446      1.0  0.76699  0.68532  0.37442  1.0000
  C   C447      1.0  0.72053  0.65837  0.37505  1.0000
  C   C448      1.0  0.70815  0.83316  0.40029  1.0000
  C   C449      1.0  0.81127  0.63083  0.66068  1.0000
  N   N28       1.0  0.82142  0.55858  0.39535  1.0000
  Fe  Fe61      1.0  0.90582  0.52060  0.65390  1.0000
  H   H532      1.0  0.63997  0.57077  0.58433  1.0000
  H   H533      1.0  0.60031  0.53285  0.54078  1.0000
  H   H534      1.0  0.69396  0.88202  0.65061  1.0000
  H   H535      1.0  0.64357  0.91157  0.64195  1.0000
  C   C450      1.0  0.73811  0.50990  0.38883  1.0000
  C   C451      1.0  0.64660  0.82612  0.67610  1.0000
  C   C452      1.0  0.84441  0.57120  0.42367  1.0000
  H   H536      1.0  0.62587  0.49811  0.65263  1.0000
  H   H537      1.0  0.69880  0.77118  0.38407  1.0000
  H   H538      1.0  0.56525  0.68008  0.57201  1.0000
  C   C453      1.0  0.93262  0.49535  0.52926  1.0000
  C   C454      1.0  0.53575  0.85160  0.37647  1.0000
  H   H539      1.0  0.58815  0.59616  0.64225  1.0000
  S   S121      1.0  0.85966  0.52314  0.62138  1.0000
  C   C455      1.0  0.55000  0.92185  0.39667  1.0000
  H   H540      1.0  0.55045  0.54412  0.65883  1.0000
  H   H541      1.0  0.67741  0.57207  0.62828  1.0000
  H   H542      1.0  0.81474  0.69011  0.64366  1.0000
  H   H543      1.0  0.84927  0.60336  0.43192  1.0000
  H   H544      1.0  0.61071  0.71464  0.63983  1.0000
  N   N29       1.0  0.50491  0.92370  0.43974  1.0000
  H   H545      1.0  0.88019  0.60313  0.37130  1.0000
  S   S122      1.0  0.96180  0.54164  0.62255  1.0000
  C   C456      1.0  0.61039  0.51601  0.66270  1.0000
  H   H546      1.0  0.70091  0.66806  0.38792  1.0000
  C   C457      1.0  0.53218  0.97288  0.43710  1.0000
  C   C458      1.0  0.51187  0.61183  0.62964  1.0000
  C   C459      1.0  0.59311  0.72739  0.62656  1.0000
  C   C460      1.0  0.72782  0.87904  0.39577  1.0000
  H   H547      1.0  0.61401  0.83337  0.39376  1.0000
  H   H548      1.0  0.54553  0.91918  0.47270  1.0000
  S   S123      1.0  0.64199  0.58251  0.35974  1.0000
  H   H549      1.0  0.60150  0.76036  0.63560  1.0000
  H   H550      1.0  0.96283  0.82000  0.40927  1.0000
  C   C461      1.0  0.69977  0.61857  0.35932  1.0000
  N   N30       1.0  0.54469  0.69594  0.62672  1.0000
  C   C462      1.0  0.71558  0.80693  0.38092  1.0000
  C   C463      1.0  0.54797  0.65053  0.58527  1.0000
  C   C464      1.0  0.60877  0.78076  0.36635  1.0000
  H   H551      1.0  0.75643  0.68656  0.67636  1.0000
  C   C465      1.0  0.50332  0.82888  0.39745  1.0000
  C   C466      1.0  0.53840  0.61005  0.57270  1.0000
  H   H552      1.0  0.50434  0.93072  0.48627  1.0000
  C   C467      1.0  0.82386  0.51977  0.38424  1.0000
  H   H553      1.0  0.56910  0.95767  0.39476  1.0000
  H   H554      1.0  0.49243  0.66976  0.65893  1.0000
  C   C468      1.0  0.55918  0.89793  0.37618  1.0000
  Fe  Fe62      1.0  0.49808  0.57213  0.37528  1.0000
  H   H555      1.0  0.53561  0.72513  0.66562  1.0000
  H   H556      1.0  0.50055  0.60989  0.65168  1.0000
  C   C469      1.0  0.79861  0.66317  0.65913  1.0000
  C   C470      1.0  0.77568  0.54979  0.39868  1.0000
  H   H557      1.0  0.54266  0.83322  0.36032  1.0000
  H   H558      1.0  0.67258  0.60023  0.65928  1.0000
  H   H559      1.0  0.52255  0.98998  0.45339  1.0000
  S   S124      1.0  0.55190  0.87802  0.66041  1.0000
  C   C471      1.0  0.58951  0.85950  0.66616  1.0000
  C   C472      1.0  0.58798  0.52637  0.61492  1.0000
  N   N31       1.0  0.61027  0.54875  0.64221  1.0000
  S   S125      1.0  0.50162  0.61594  0.41217  1.0000
  H   H560      1.0  0.65584  0.53044  0.40681  1.0000
  H   H561      1.0  0.88974  0.72677  0.67787  1.0000
  C   C473      1.0  0.51655  0.89968  0.41815  1.0000
  C   C474      1.0  0.58606  0.56878  0.65576  1.0000
  C   C475      1.0  0.66089  0.86495  0.65967  1.0000
  C   C476      1.0  0.61889  0.82461  0.37212  1.0000
  C   C477      1.0  0.76563  0.66131  0.67765  1.0000
  H   H562      1.0  0.87807  0.57556  0.42214  1.0000
  H   H563      1.0  0.72584  0.95753  0.38559  1.0000
  H   H564      1.0  0.83566  0.96505  0.38846  1.0000
  H   H565      1.0  0.54801  0.60901  0.55040  1.0000
  C   C478      1.0  0.60747  0.54196  0.58713  1.0000
  C   C479      1.0  0.84574  0.59578  0.37471  1.0000
  H   H566      1.0  0.96759  0.55084  0.39841  1.0000
  H   H567      1.0  0.48689  0.69196  0.60794  1.0000
  H   H568      1.0  0.79471  0.61442  0.41793  1.0000
  H   H569      1.0  0.68539  0.81735  0.41828  1.0000
  H   H570      1.0  0.54543  0.68040  0.67191  1.0000
  H   H571      1.0  0.85860  0.52699  0.38289  1.0000
  H   H572      1.0  0.52808  0.98446  0.41560  1.0000
  C   C480      1.0  0.97092  0.50010  0.54174  1.0000
  H   H573      1.0  0.48391  0.54062  0.62879  1.0000
  S   S126      1.0  0.61647  0.98312  0.60504  1.0000
  C   C481      1.0  0.51561  0.57069  0.58847  1.0000
  H   H574      1.0  0.94657  0.76601  0.68192  1.0000
  H   H575      1.0  0.59942  0.58262  0.67757  1.0000
  Fe  Fe63      1.0  0.98140  0.61085  0.63673  1.0000
  C   C482      1.0  0.79270  0.67308  0.35759  1.0000
  C   C483      1.0  0.74348  0.82655  0.35719  1.0000
  H   H576      1.0  0.94958  0.79119  0.35915  1.0000
  S   S127      1.0  0.56061  0.62592  0.35442  1.0000
  H   H577      1.0  0.82942  0.58750  0.35318  1.0000
  C   C484      1.0  0.69543  0.50306  0.39203  1.0000
  H   H578      1.0  0.48538  0.79278  0.39763  1.0000
  S   S128      1.0  0.68153  0.80388  0.68071  1.0000
  C   C485      1.0  0.79019  0.59615  0.68070  1.0000
  C   C486      1.0  0.98244  0.81695  0.36564  1.0000
  H   H579      1.0  0.79962  0.57108  0.68213  1.0000
  H   H580      1.0  0.62917  0.53243  0.68281  1.0000
  C   C487      1.0  0.57536  0.82074  0.68252  1.0000
  H   H581      1.0  0.98384  0.51950  0.56130  1.0000
  H   H582      1.0  0.83848  0.95677  0.35026  1.0000
  Fe  Fe64      1.0  0.67391  0.66788  0.72702  1.0000
  S   S129      1.0  0.62016  0.64325  0.76110  1.0000
  S   S130      1.0  0.70262  0.62226  0.72138  1.0000
  Fe  Fe65      1.0  0.65857  0.74425  0.71018  1.0000
  S   S131      1.0  0.60349  0.72435  0.74224  1.0000
  H   H583      1.0  0.90762  0.58612  0.00454  1.0000
  Fe  Fe66      1.0  0.64742  0.71530  0.77303  1.0000
  S   S132      1.0  0.66301  0.74390  0.81881  1.0000
  Fe  Fe67      1.0  0.58146  0.65464  0.72732  1.0000
  C   C488      1.0  0.82858  0.51761  0.01409  1.0000
  S   S133      1.0  0.70457  0.73922  0.74168  1.0000
  C   C489      1.0  0.75230  0.97866  0.72611  1.0000
  Fe  Fe68      1.0  0.58290  0.87079  0.92551  1.0000
  S   S134      1.0  0.52328  0.84174  0.95469  1.0000
  S   S135      1.0  0.57108  0.84043  0.88027  1.0000
  Fe  Fe69      1.0  0.63996  0.93850  0.97200  1.0000
  C   C490      1.0  0.52139  0.53444  0.71555  1.0000
  Fe  Fe70      1.0  0.56954  0.84539  0.98935  1.0000
  H   H584      1.0  0.84755  0.67348  0.71270  1.0000
  Fe  Fe71      1.0  0.54330  0.91177  0.96745  1.0000
  H   H585      1.0  0.66345  0.81605  0.77536  1.0000
  S   S136      1.0  0.62808  0.87067  0.95949  1.0000
  S   S137      1.0  0.59962  0.94091  0.93526  1.0000
  H   H586      1.0  0.90659  0.77338  0.70193  1.0000
  C   C491      1.0  0.67493  0.89357  0.79666  1.0000
  H   H587      1.0  0.53480  0.51421  0.00628  1.0000
  C   C492      1.0  0.96839  0.77700  0.79111  1.0000
  H   H588      1.0  0.93308  0.67044  0.72490  1.0000
  C   C493      1.0  0.90439  0.55397  0.99785  1.0000
  H   H589      1.0  0.75206  0.93767  0.76018  1.0000
  H   H590      1.0  0.49790  0.73841  0.93574  1.0000
  C   C494      1.0  0.49989  0.49306  0.01060  1.0000
  C   C495      1.0  0.85519  0.62476  0.98675  1.0000
  H   H591      1.0  0.90798  0.66814  0.69064  1.0000
  H   H592      1.0  0.70051  0.73937  0.89926  1.0000
  H   H593      1.0  0.87272  0.61822  0.96990  1.0000
  C   C496      1.0  0.73075  0.72779  0.93625  1.0000
  C   C497      1.0  0.74812  0.74119  0.96459  1.0000
  N   N32       1.0  0.76623  0.71704  0.98042  1.0000
  C   C498      1.0  0.59331  0.65834  0.97862  1.0000
  C   C499      1.0  0.68176  0.95995  0.70609  1.0000
  H   H594      1.0  0.65804  0.86616  0.81277  1.0000
  H   H595      1.0  0.54214  0.80337  0.69134  1.0000
  H   H596      1.0  0.57458  0.78538  0.92702  1.0000
  C   C500      1.0  0.63713  0.77060  0.83561  1.0000
  C   C501      1.0  0.59848  0.76700  0.82459  1.0000
  C   C502      1.0  0.57884  0.78872  0.83855  1.0000
  C   C503      1.0  0.59743  0.81402  0.86372  1.0000
  C   C504      1.0  0.63602  0.81750  0.87485  1.0000
  C   C505      1.0  0.65571  0.79581  0.86082  1.0000
  H   H597      1.0  0.58355  0.74722  0.80542  1.0000
  H   H598      1.0  0.54886  0.78567  0.82989  1.0000
  H   H599      1.0  0.65100  0.83742  0.89396  1.0000
  H   H600      1.0  0.68592  0.79915  0.86920  1.0000
  H   H601      1.0  0.66509  0.91870  0.80151  1.0000
  H   H602      1.0  0.79107  0.56979  0.97503  1.0000
  H   H603      1.0  0.59228  0.77427  0.69999  1.0000
  C   C506      1.0  0.53947  0.70684  0.90185  1.0000
  C   C507      1.0  0.74474  0.62679  0.69779  1.0000
  H   H604      1.0  0.56588  0.58811  0.98526  1.0000
  H   H605      1.0  0.53470  0.73231  0.89053  1.0000
  H   H606      1.0  0.81731  0.51773  0.99162  1.0000
  H   H607      1.0  0.74085  0.56719  0.71455  1.0000
  S   S138      1.0  0.63316  0.67537  0.69266  1.0000
  H   H608      1.0  0.62203  0.66758  0.99197  1.0000
  C   C508      1.0  0.95993  0.53653  0.73906  1.0000
  H   H609      1.0  0.86847  0.66977  0.74670  1.0000
  S   S139      1.0  0.93656  0.69329  0.00515  1.0000
  H   H610      1.0  0.74059  0.65355  0.00157  1.0000
  C   C509      1.0  0.51886  0.63455  0.94496  1.0000
  C   C510      1.0  0.73134  0.94308  0.74555  1.0000
  H   H611      1.0  0.69789  0.80244  0.92202  1.0000
  H   H612      1.0  0.81440  0.69629  0.97427  1.0000
  C   C511      1.0  0.67941  0.84555  0.76073  1.0000
  H   H613      1.0  0.61378  0.72540  0.96951  1.0000
  H   H614      1.0  0.64092  0.82824  0.01157  1.0000
  C   C512      1.0  0.93118  0.69116  0.70733  1.0000
  C   C513      1.0  0.78985  0.73990  0.00740  1.0000
  H   H615      1.0  0.98020  0.59180  0.79126  1.0000
  H   H616      1.0  0.61246  0.76564  0.92969  1.0000
  H   H617      1.0  0.56960  0.70854  0.89238  1.0000
  C   C514      1.0  0.50300  0.71184  0.94504  1.0000
  N   N33       1.0  0.54389  0.71454  0.93361  1.0000
  H   H618      1.0  0.73029  0.69989  0.92565  1.0000
  C   C515      1.0  0.87090  0.69391  0.73003  1.0000
  C   C516      1.0  0.68469  0.91474  0.74586  1.0000
  H   H619      1.0  0.62490  0.90456  0.72361  1.0000
  N   N34       1.0  0.91671  0.72160  0.71869  1.0000
  Fe  Fe72      1.0  0.98284  0.68075  0.97750  1.0000
  C   C517      1.0  0.91494  0.74821  0.69419  1.0000
  N   N35       1.0  0.86940  0.51510  0.01412  1.0000
  H   H620      1.0  0.60008  0.87291  0.76934  1.0000
  C   C518      1.0  0.56159  0.61361  0.97504  1.0000
  H   H621      1.0  0.67241  0.83321  0.73802  1.0000
  C   C519      1.0  0.75699  0.59413  0.69909  1.0000
  C   C520      1.0  0.58064  0.76075  0.93827  1.0000
  H   H622      1.0  0.71216  0.65184  0.96918  1.0000
  C   C521      1.0  0.87849  0.66028  0.00583  1.0000
  C   C522      1.0  0.71299  0.74978  0.92108  1.0000
  S   S140      1.0  0.96630  0.63508  0.93935  1.0000
  C   C523      1.0  0.80904  0.59744  0.98969  1.0000
  H   H623      1.0  0.51068  0.67408  0.89597  1.0000
  H   H624      1.0  0.55029  0.55429  0.72868  1.0000
  C   C524      1.0  0.72922  0.67251  0.98845  1.0000
  C   C525      1.0  0.74447  0.77647  0.97727  1.0000
  C   C526      1.0  0.72659  0.79817  0.96193  1.0000
  C   C527      1.0  0.71127  0.78514  0.93384  1.0000
  S   S141      1.0  0.58485  0.91331  0.00493  1.0000
  C   C528      1.0  0.52439  0.60171  0.95829  1.0000
  C   C529      1.0  0.78619  0.60512  0.01191  1.0000
  H   H625      1.0  0.85812  0.71486  0.73919  1.0000
  H   H626      1.0  0.75464  0.78759  0.99922  1.0000
  H   H627      1.0  0.72448  0.82524  0.97197  1.0000
  H   H628      1.0  0.93715  0.55692  0.00070  1.0000
  H   H629      1.0  0.71559  0.86100  0.76389  1.0000
  H   H630      1.0  0.50464  0.71619  0.96902  1.0000
  C   C530      1.0  0.66040  0.92436  0.72548  1.0000
  H   H631      1.0  0.70415  0.67551  0.00155  1.0000
  N   N36       1.0  0.66345  0.87698  0.76649  1.0000
  H   H632      1.0  0.59946  0.82349  0.78030  1.0000
  H   H633      1.0  0.90507  0.72489  0.77914  1.0000
  C   C531      1.0  0.61446  0.85149  0.76457  1.0000
  C   C532      1.0  0.49584  0.55239  0.70617  1.0000
  H   H634      1.0  0.71084  0.90916  0.80100  1.0000
  C   C533      1.0  0.55070  0.68049  0.94793  1.0000
  C   C534      1.0  0.79807  0.71153  0.96201  1.0000
  H   H635      1.0  0.58445  0.76988  0.96161  1.0000
  H   H636      1.0  0.60333  0.83627  0.74282  1.0000
  H   H637      1.0  0.78209  0.68897  0.94334  1.0000
  H   H638      1.0  0.82454  0.74421  0.95351  1.0000
  C   C535      1.0  0.93743  0.74853  0.77080  1.0000
  H   H639      1.0  0.81658  0.77469  0.00295  1.0000
  C   C536      1.0  0.58813  0.69146  0.96539  1.0000
  H   H640      1.0  0.95935  0.77453  0.81384  1.0000
  C   C537      1.0  0.94847  0.75121  0.74084  1.0000
  H   H641      1.0  0.95733  0.50466  0.73204  1.0000
  H   H642      1.0  0.89800  0.55143  0.97414  1.0000
  C   C538      1.0  0.60384  0.80432  0.68762  1.0000
  S   S142      1.0  0.51108  0.60796  0.71376  1.0000
  C   C539      1.0  0.72756  0.98689  0.70630  1.0000
  H   H643      1.0  0.94419  0.53031  0.76082  1.0000
  H   H644      1.0  0.66263  0.96612  0.69037  1.0000
  H   H645      1.0  0.93935  0.54318  0.72393  1.0000
  H   H646      1.0  0.49979  0.56678  0.95547  1.0000
  H   H647      1.0  0.48943  0.62365  0.93220  1.0000
  H   H648      1.0  0.96422  0.70953  0.69674  1.0000
  S   S143      1.0  0.49652  0.93932  0.96478  1.0000
  C   C540      1.0  0.97724  0.50184  0.98858  1.0000
  S   S144      1.0  0.54519  0.78212  0.01548  1.0000
