data_image0
_chemical_formula_structural       HFeS2FeSCFeSFeSHSHC6H3CSC4HC2H2NCHCH2SC2HC2H2SC2H5C2H6C2HSCH3FeSFeHFeSFeHS2FeS2FeSFeSFeS3H2SH3C6H4C6H4CHCHC3H2C2SCH4CNCHCNH5FeH2CHCHC2HCH3NCH3CH2SH2CHCH2CH3C2H3CHCFeC2FeS2FeHFeHS2HSNCHSH2CH3C6H3SH2CHCHCHC2HC2H3C3H2SCH2CHCHCHC2H3SCFeS2FeHFeHCSC7H4NHCH2C2H4C2H2C2S2CHCH2CHSCH3FeHCH2CH7CH3CH2C4SFeS2FeS2Fe2S2C3H2CH3CHC7H6C2HCH3C2HCH2NC2H2CHNH2CH3CH4CH5CSC3HCH3C3HSC3SCHCHCFeHCNC2H5SHC4HCSNH2CH2C4H2NHCH4CH3C3HCH2CH4C2HC2HSFeS2FeHFeS2HCHC6H4CHCHNHSHC2H5CHCHCH2CHNCHSCH2C6H3C2HNC2H6CHC4H2C2H2SCHFeHFeS2FeHFeS3C9H4CH2C2HC3HC2H2NHS2H2SHCHC3HCHC2SCH3C2HC2HNH4CHCHSH2CHCHNH2CH2SHSHFeS2FeSH2SFeH2CHC2H6CH2CHC6H4CHC2H3CHFeHNC7NC2H5CH2CHCFeSNSFeHFeSCSFeS2FeSFeSFeS3H2C6H4C2H2C6H6CHCH6CH6NH2CH2CHCSCFeH2C4H2NC6HC2HCH2C2HC2HCHC2HCH2C2HFeS2FeCH2SHCHC6SH3CH3CHCH2CH6CSH3CH4C2H2C3HCNC8H3CH2CNS2C2H3CSC2HCH3FeCH2CHSHCH
_chemical_formula_sum              "H432 Fe48 S96 C360 N24"
_cell_length_a       34.6982
_cell_length_b       34.4186
_cell_length_c       31.1976
_cell_angle_alpha    90.6778
_cell_angle_beta     89.765
_cell_angle_gamma    119.875

_space_group_name_H-M_alt    "P 1"
_space_group_IT_number       1

loop_
  _space_group_symop_operation_xyz
  'x, y, z'

loop_
  _atom_site_type_symbol
  _atom_site_label
  _atom_site_symmetry_multiplicity
  _atom_site_fract_x
  _atom_site_fract_y
  _atom_site_fract_z
  _atom_site_occupancy
  H   H1        1.0  0.37798  0.48585  0.17208  1.0000
  Fe  Fe1       1.0  0.16172  0.39526  0.07278  1.0000
  S   S1        1.0  0.12710  0.33473  0.11465  1.0000
  S   S2        1.0  0.27910  0.35595  0.33981  1.0000
  Fe  Fe2       1.0  0.09631  0.42839  0.09590  1.0000
  S   S3        1.0  0.05734  0.36993  0.13971  1.0000
  C   C1        1.0  0.39654  0.41778  0.10678  1.0000
  Fe  Fe3       1.0  0.12366  0.38141  0.16373  1.0000
  S   S4        1.0  0.14055  0.39019  0.23557  1.0000
  Fe  Fe4       1.0  0.06400  0.32863  0.08688  1.0000
  S   S5        1.0  0.16208  0.44254  0.12336  1.0000
  H   H2        1.0  0.25776  0.17665  0.03079  1.0000
  S   S6        1.0  0.31958  0.05037  0.09542  1.0000
  H   H3        1.0  0.09178  0.47343  0.28966  1.0000
  C   C2        1.0  0.23931  0.36469  0.31224  1.0000
  C   C3        1.0  0.22055  0.34088  0.27384  1.0000
  C   C4        1.0  0.19003  0.34795  0.25017  1.0000
  C   C5        1.0  0.17829  0.37936  0.26440  1.0000
  C   C6        1.0  0.19648  0.40261  0.30317  1.0000
  C   C7        1.0  0.22685  0.39541  0.32693  1.0000
  H   H4        1.0  0.22957  0.31668  0.26242  1.0000
  H   H5        1.0  0.17520  0.32871  0.22122  1.0000
  H   H6        1.0  0.18749  0.42679  0.31468  1.0000
  C   C8        1.0  0.10345  0.43701  0.33861  1.0000
  S   S7        1.0  0.09924  0.38638  0.04154  1.0000
  C   C9        1.0  0.35320  0.13539  0.06434  1.0000
  C   C10       1.0  0.35444  0.09527  0.06165  1.0000
  C   C11       1.0  0.35288  0.38501  0.09787  1.0000
  C   C12       1.0  0.31740  0.38778  0.11610  1.0000
  H   H7        1.0  0.45164  0.17141  0.10978  1.0000
  C   C13       1.0  0.24330  0.38910  0.15489  1.0000
  C   C14       1.0  0.38062  0.17192  0.03809  1.0000
  H   H8        1.0  0.28409  0.14377  0.02815  1.0000
  H   H9        1.0  0.24035  0.35753  0.16725  1.0000
  N   N1        1.0  0.28804  0.42818  0.16359  1.0000
  C   C15       1.0  0.36972  0.45713  0.15170  1.0000
  H   H10       1.0  0.38000  0.20296  0.04094  1.0000
  C   C16       1.0  0.28835  0.46839  0.14663  1.0000
  H   H11       1.0  0.23532  0.38486  0.12008  1.0000
  H   H12       1.0  0.28411  0.46594  0.11111  1.0000
  S   S8        1.0  0.07860  0.48412  0.09535  1.0000
  C   C17       1.0  0.47068  0.15697  0.09643  1.0000
  C   C18       1.0  0.32475  0.42395  0.14385  1.0000
  H   H13       1.0  0.42389  0.41516  0.09283  1.0000
  C   C19       1.0  0.38327  0.09187  0.03237  1.0000
  C   C20       1.0  0.48404  0.09482  0.09015  1.0000
  H   H14       1.0  0.21652  0.39323  0.17039  1.0000
  H   H15       1.0  0.26550  0.43394  0.22685  1.0000
  S   S9        1.0  0.01020  0.26097  0.06091  1.0000
  C   C21       1.0  0.46045  0.11394  0.10805  1.0000
  C   C22       1.0  0.40497  0.45374  0.13374  1.0000
  H   H16       1.0  0.29589  0.40432  0.22467  1.0000
  H   H17       1.0  0.33134  0.13841  0.08727  1.0000
  H   H18       1.0  0.28454  0.36098  0.10800  1.0000
  H   H19       1.0  0.34640  0.35697  0.07686  1.0000
  H   H20       1.0  0.43368  0.09514  0.13047  1.0000
  C   C23       1.0  0.29379  0.43295  0.21088  1.0000
  C   C24       1.0  0.24420  0.37732  0.02488  1.0000
  H   H21       1.0  0.19146  0.32200  0.05848  1.0000
  H   H22       1.0  0.43908  0.47914  0.14074  1.0000
  H   H23       1.0  0.22135  0.27080  0.04481  1.0000
  H   H24       1.0  0.32407  0.46424  0.22096  1.0000
  H   H25       1.0  0.38476  0.06132  0.03012  1.0000
  H   H26       1.0  0.26057  0.47216  0.16019  1.0000
  C   C25       1.0  0.09489  0.46999  0.32383  1.0000
  C   C26       1.0  0.22170  0.33349  0.04024  1.0000
  H   H27       1.0  0.10702  0.41497  0.31569  1.0000
  S   S10       1.0  0.22664  0.41643  0.03718  1.0000
  C   C27       1.0  0.23871  0.30450  0.03240  1.0000
  H   H28       1.0  0.47606  0.06133  0.09940  1.0000
  H   H29       1.0  0.02831  0.34070  0.33670  1.0000
  H   H30       1.0  0.36526  0.46877  0.02969  1.0000
  Fe  Fe5       1.0  0.35690  0.05143  0.57396  1.0000
  S   S11       1.0  0.41334  0.08222  0.52697  1.0000
  Fe  Fe6       1.0  0.41305  0.11327  0.64782  1.0000
  H   H31       1.0  0.45224  0.41702  0.59132  1.0000
  Fe  Fe7       1.0  0.42604  0.14764  0.55641  1.0000
  S   S12       1.0  0.44134  0.20591  0.51321  1.0000
  Fe  Fe8       1.0  0.45533  0.08016  0.58071  1.0000
  H   H32       1.0  0.44115  0.37151  0.62638  1.0000
  S   S13       1.0  0.36698  0.11717  0.60001  1.0000
  S   S14       1.0  0.39756  0.04431  0.62588  1.0000
  Fe  Fe9       1.0  0.33078  0.35467  0.49107  1.0000
  S   S15       1.0  0.35307  0.42160  0.52217  1.0000
  S   S16       1.0  0.32702  0.30189  0.53620  1.0000
  Fe  Fe10      1.0  0.30701  0.38315  0.40665  1.0000
  S   S17       1.0  0.32869  0.45265  0.43178  1.0000
  Fe  Fe11      1.0  0.38750  0.45054  0.46021  1.0000
  S   S18       1.0  0.47325  0.14869  0.60594  1.0000
  Fe  Fe12      1.0  0.29254  0.41732  0.49176  1.0000
  S   S19       1.0  0.24957  0.43516  0.53294  1.0000
  S   S20       1.0  0.36884  0.38342  0.43033  1.0000
  S   S21       1.0  0.26753  0.34804  0.46528  1.0000
  H   H33       1.0  0.32935  0.08430  0.49867  1.0000
  H   H34       1.0  0.00262  0.39229  0.36234  1.0000
  S   S22       1.0  0.04170  0.30353  0.52110  1.0000
  H   H35       1.0  0.27541  0.23968  0.46546  1.0000
  H   H36       1.0  0.33204  0.10115  0.44451  1.0000
  H   H37       1.0  0.21506  0.06355  0.47268  1.0000
  C   C28       1.0  0.09935  0.33947  0.52650  1.0000
  C   C29       1.0  0.12755  0.33591  0.49642  1.0000
  C   C30       1.0  0.17363  0.36492  0.49844  1.0000
  C   C31       1.0  0.19195  0.39747  0.53085  1.0000
  C   C32       1.0  0.16383  0.40076  0.56137  1.0000
  C   C33       1.0  0.11753  0.37191  0.55913  1.0000
  H   H38       1.0  0.11365  0.31108  0.47093  1.0000
  H   H39       1.0  0.19471  0.36282  0.47409  1.0000
  H   H40       1.0  0.17780  0.42601  0.58649  1.0000
  H   H41       1.0  0.09596  0.37481  0.58253  1.0000
  C   C34       1.0  0.40924  0.23224  0.51947  1.0000
  C   C35       1.0  0.38560  0.22764  0.55724  1.0000
  C   C36       1.0  0.36050  0.24920  0.56180  1.0000
  C   C37       1.0  0.35918  0.27582  0.52881  1.0000
  C   C38       1.0  0.38298  0.28074  0.49107  1.0000
  C   C39       1.0  0.40799  0.25896  0.48645  1.0000
  H   H42       1.0  0.38724  0.20810  0.58327  1.0000
  H   H43       1.0  0.34235  0.24547  0.59118  1.0000
  H   H44       1.0  0.38184  0.30091  0.46531  1.0000
  H   H45       1.0  0.42636  0.26277  0.45719  1.0000
  C   C40       1.0  0.32716  0.10923  0.47791  1.0000
  H   H46       1.0  0.19087  0.24723  0.60974  1.0000
  C   C41       1.0  0.27910  0.17980  0.47640  1.0000
  H   H47       1.0  0.38668  0.18584  0.68519  1.0000
  C   C42       1.0  0.21529  0.27737  0.59188  1.0000
  C   C43       1.0  0.07159  0.41450  0.47450  1.0000
  C   C44       1.0  0.19664  0.32756  0.62805  1.0000
  H   H48       1.0  0.15928  0.45658  0.50168  1.0000
  H   H49       1.0  0.46141  0.32160  0.55024  1.0000
  C   C45       1.0  0.10768  0.43247  0.38259  1.0000
  C   C46       1.0  0.27913  0.21297  0.45084  1.0000
  S   S23       1.0  0.28674  0.00316  0.55142  1.0000
  C   C47       1.0  0.29064  0.17898  0.38778  1.0000
  H   H50       1.0  0.28564  0.23891  0.38722  1.0000
  H   H51       1.0  0.44280  0.37267  0.50641  1.0000
  H   H52       1.0  0.07363  0.40973  0.50951  1.0000
  H   H53       1.0  0.35586  0.14269  0.48602  1.0000
  C   C48       1.0  0.15156  0.45527  0.46695  1.0000
  N   N2        1.0  0.11008  0.45682  0.45947  1.0000
  C   C49       1.0  0.99389  0.47501  0.49810  1.0000
  H   H54       1.0  0.24096  0.41395  0.35640  1.0000
  C   C50       1.0  0.24760  0.06468  0.46988  1.0000
  N   N3        1.0  0.28459  0.10893  0.48397  1.0000
  H   H55       1.0  0.30689  0.14541  0.54382  1.0000
  H   H56       1.0  0.19828  0.28044  0.56293  1.0000
  H   H57       1.0  0.46677  0.40909  0.43736  1.0000
  H   H58       1.0  0.24582  0.03700  0.48962  1.0000
  H   H59       1.0  0.24702  0.11207  0.53798  1.0000
  Fe  Fe13      1.0  0.99216  0.31392  0.55959  1.0000
  H   H60       1.0  0.18217  0.33168  0.59772  1.0000
  H   H61       1.0  0.47519  0.03837  0.49373  1.0000
  C   C51       1.0  0.29035  0.14545  0.41296  1.0000
  H   H62       1.0  0.29635  0.35172  0.58617  1.0000
  C   C52       1.0  0.10460  0.46179  0.41313  1.0000
  H   H63       1.0  0.48338  0.08773  0.67446  1.0000
  C   C53       1.0  0.27913  0.11354  0.53070  1.0000
  C   C54       1.0  0.25349  0.31175  0.65873  1.0000
  H   H64       1.0  0.06925  0.38450  0.45809  1.0000
  C   C55       1.0  0.28507  0.21270  0.40671  1.0000
  H   H65       1.0  0.16890  0.29972  0.64575  1.0000
  H   H66       1.0  0.42178  0.35981  0.57300  1.0000
  H   H67       1.0  0.27924  0.08603  0.54915  1.0000
  N   N4        1.0  0.23344  0.31818  0.61948  1.0000
  C   C56       1.0  0.26799  0.35648  0.59512  1.0000
  H   H68       1.0  0.25450  0.36130  0.56459  1.0000
  H   H69       1.0  0.25131  0.05659  0.43609  1.0000
  H   H70       1.0  0.27541  0.18291  0.51044  1.0000
  C   C57       1.0  0.47736  0.39765  0.50298  1.0000
  H   H71       1.0  0.11355  0.40584  0.39245  1.0000
  H   H72       1.0  0.29994  0.29690  0.62471  1.0000
  S   S24       1.0  0.00127  0.35773  0.61673  1.0000
  H   H73       1.0  0.29495  0.12013  0.39678  1.0000
  H   H74       1.0  0.28160  0.38837  0.61385  1.0000
  C   C58       1.0  0.28781  0.30072  0.65554  1.0000
  H   H75       1.0  0.20839  0.35947  0.64638  1.0000
  C   C59       1.0  0.28467  0.14484  0.45812  1.0000
  H   H76       1.0  0.47466  0.32239  0.60575  1.0000
  H   H77       1.0  0.14959  0.42395  0.45456  1.0000
  C   C60       1.0  0.45037  0.38388  0.59301  1.0000
  H   H78       1.0  0.24166  0.27087  0.57950  1.0000
  H   H79       1.0  0.03973  0.41409  0.46872  1.0000
  H   H80       1.0  0.44811  0.48076  0.54654  1.0000
  C   C61       1.0  0.00209  0.48955  0.54088  1.0000
  C   C62       1.0  0.00115  0.32904  0.35947  1.0000
  H   H81       1.0  0.99400  0.26448  0.36197  1.0000
  H   H82       1.0  0.18065  0.48406  0.45163  1.0000
  H   H83       1.0  0.11861  0.49030  0.52082  1.0000
  C   C63       1.0  0.48645  0.34134  0.57531  1.0000
  H   H84       1.0  0.29548  0.17903  0.35341  1.0000
  C   C64       1.0  0.42928  0.47680  0.92064  1.0000
  Fe  Fe14      1.0  0.36330  0.30111  0.96564  1.0000
  C   C65       1.0  0.30213  0.11374  0.95187  1.0000
  C   C66       1.0  0.26030  0.31049  0.73711  1.0000
  Fe  Fe15      1.0  0.40006  0.29349  0.87795  1.0000
  S   S25       1.0  0.46693  0.31381  0.90579  1.0000
  S   S26       1.0  0.38182  0.27478  0.80766  1.0000
  Fe  Fe16      1.0  0.42948  0.26739  0.95982  1.0000
  H   H85       1.0  0.47684  0.07661  0.73008  1.0000
  Fe  Fe17      1.0  0.45947  0.36618  0.94327  1.0000
  H   H86       1.0  0.35710  0.11765  0.85995  1.0000
  S   S27       1.0  0.36327  0.24422  0.92954  1.0000
  S   S28       1.0  0.39463  0.34921  0.91125  1.0000
  H   H87       1.0  0.98961  0.40345  0.96369  1.0000
  S   S29       1.0  0.42048  0.12947  0.71923  1.0000
  N   N5        1.0  0.25038  0.14321  0.96948  1.0000
  C   C67       1.0  0.05363  0.48435  0.01071  1.0000
  H   H88       1.0  0.31473  0.15284  0.83403  1.0000
  S   S30       1.0  0.44796  0.21530  0.97904  1.0000
  H   H89       1.0  0.21478  0.32521  0.70664  1.0000
  H   H90       1.0  0.30929  0.29488  0.76092  1.0000
  C   C68       1.0  0.29377  0.29952  0.73272  1.0000
  H   H91       1.0  0.33033  0.37379  0.97452  1.0000
  H   H92       1.0  0.30800  0.19642  0.00103  1.0000
  H   H93       1.0  0.26105  0.20478  0.94153  1.0000
  C   C69       1.0  0.40995  0.17043  0.74287  1.0000
  C   C70       1.0  0.41832  0.18023  0.78686  1.0000
  C   C71       1.0  0.41024  0.21238  0.80693  1.0000
  C   C72       1.0  0.39336  0.23486  0.78322  1.0000
  C   C73       1.0  0.38490  0.22502  0.73921  1.0000
  C   C74       1.0  0.39330  0.19309  0.71905  1.0000
  H   H94       1.0  0.06772  0.46322  0.00336  1.0000
  H   H95       1.0  0.41684  0.21957  0.84084  1.0000
  H   H96       1.0  0.37181  0.24219  0.72065  1.0000
  S   S31       1.0  0.42773  0.32127  0.00008  1.0000
  H   H97       1.0  0.29950  0.42459  0.98762  1.0000
  H   H98       1.0  0.29986  0.10213  0.98432  1.0000
  C   C75       1.0  0.30017  0.36249  0.99290  1.0000
  H   H99       1.0  0.34883  0.09210  0.93503  1.0000
  C   C76       1.0  0.27836  0.13523  0.93858  1.0000
  H   H100      1.0  0.24987  0.31436  0.76895  1.0000
  C   C77       1.0  0.28238  0.14765  0.89469  1.0000
  H   H101      1.0  0.46824  0.43913  0.01713  1.0000
  C   C78       1.0  0.31058  0.14133  0.86688  1.0000
  C   C79       1.0  0.33465  0.12163  0.88146  1.0000
  H   H102      1.0  0.20994  0.15532  0.92492  1.0000
  C   C80       1.0  0.33006  0.10743  0.92373  1.0000
  C   C81       1.0  0.28299  0.39135  0.00065  1.0000
  H   H103      1.0  0.43119  0.16293  0.80557  1.0000
  H   H104      1.0  0.26552  0.16393  0.88132  1.0000
  H   H105      1.0  0.19189  0.08117  0.95270  1.0000
  C   C82       1.0  0.24033  0.31661  0.70082  1.0000
  C   C83       1.0  0.21178  0.09957  0.98148  1.0000
  C   C84       1.0  0.23326  0.17182  0.95217  1.0000
  H   H106      1.0  0.21469  0.17967  0.97678  1.0000
  H   H107      1.0  0.18946  0.10396  0.00432  1.0000
  S   S32       1.0  0.29932  0.28205  0.00176  1.0000
  C   C85       1.0  0.41114  0.12858  0.00656  1.0000
  H   H108      1.0  0.43387  0.12586  0.98460  1.0000
  H   H109      1.0  0.22232  0.07748  0.99727  1.0000
  C   C86       1.0  0.40649  0.48673  0.95197  1.0000
  H   H110      1.0  0.41329  0.44442  0.90454  1.0000
  C   C87       1.0  0.41002  0.16876  0.00939  1.0000
  H   H111      1.0  0.45393  0.00663  0.00919  1.0000
  C   C88       1.0  0.27817  0.31898  0.00904  1.0000
  H   H112      1.0  0.37271  0.46127  0.95859  1.0000
  C   C89       1.0  0.30747  0.29466  0.69201  1.0000
  C   C90       1.0  0.27614  0.16577  0.00892  1.0000
  H   H113      1.0  0.03580  0.48743  0.94514  1.0000
  H   H114      1.0  0.33361  0.28621  0.68881  1.0000
  H   H115      1.0  0.32224  0.94235  0.34504  1.0000
  S   S33       1.0  0.37113  0.98346  0.14788  1.0000
  C   C91       1.0  0.38744  0.50325  0.04205  1.0000
  Fe  Fe18      1.0  0.31466  0.91329  0.15836  1.0000
  S   S34       1.0  0.33959  0.88457  0.10770  1.0000
  S   S35       1.0  0.30078  0.87724  0.22228  1.0000
  Fe  Fe19      1.0  0.39239  0.95500  0.09355  1.0000
  H   H116      1.0  0.14559  0.80614  0.10969  1.0000
  Fe  Fe20      1.0  0.29650  0.89584  0.06214  1.0000
  H   H117      1.0  0.15634  0.81656  0.16568  1.0000
  C   C92       1.0  0.45068  0.94477  0.30230  1.0000
  S   S36       1.0  0.26780  0.92009  0.11360  1.0000
  C   C93       1.0  0.08853  0.68227  0.05000  1.0000
  C   C94       1.0  0.24843  0.84979  0.24801  1.0000
  C   C95       1.0  0.21564  0.86113  0.24008  1.0000
  C   C96       1.0  0.17575  0.84084  0.26371  1.0000
  C   C97       1.0  0.16841  0.80929  0.29556  1.0000
  C   C98       1.0  0.20075  0.79718  0.30266  1.0000
  C   C99       1.0  0.24055  0.81734  0.27900  1.0000
  H   H118      1.0  0.22140  0.88625  0.21647  1.0000
  H   H119      1.0  0.15071  0.85015  0.25779  1.0000
  H   H120      1.0  0.22480  0.81702  0.15516  1.0000
  H   H121      1.0  0.26554  0.80800  0.28500  1.0000
  N   N6        1.0  0.16038  0.75962  0.14123  1.0000
  H   H122      1.0  0.14798  0.63161  0.07391  1.0000
  C   C100      1.0  0.03695  0.52723  0.06175  1.0000
  H   H123      1.0  0.17246  0.72206  0.18949  1.0000
  H   H124      1.0  0.11862  0.71752  0.19182  1.0000
  C   C101      1.0  0.43375  0.94422  0.26170  1.0000
  C   C102      1.0  0.14024  0.72268  0.10914  1.0000
  H   H125      1.0  0.09285  0.73958  0.07982  1.0000
  H   H126      1.0  0.40269  0.94436  0.25826  1.0000
  H   H127      1.0  0.18050  0.69270  0.12682  1.0000
  H   H128      1.0  0.19497  0.77210  0.32630  1.0000
  C   C103      1.0  0.10617  0.71713  0.08031  1.0000
  C   C104      1.0  0.13669  0.65587  0.07567  1.0000
  H   H129      1.0  0.43300  0.94586  0.33060  1.0000
  H   H130      1.0  0.30647  0.88694  0.32699  1.0000
  C   C105      1.0  0.14067  0.78932  0.14111  1.0000
  C   C106      1.0  0.29651  0.90644  0.34833  1.0000
  S   S37       1.0  0.11818  0.78524  0.32501  1.0000
  S   S38       1.0  0.46361  0.96899  0.08950  1.0000
  C   C107      1.0  0.15483  0.69079  0.10597  1.0000
  H   H131      1.0  0.10447  0.77037  0.14841  1.0000
  C   C108      1.0  0.20861  0.78797  0.13250  1.0000
  H   H132      1.0  0.44367  0.94342  0.19372  1.0000
  H   H133      1.0  0.16719  0.76748  0.21006  1.0000
  C   C109      1.0  0.45681  0.94352  0.22532  1.0000
  H   H134      1.0  0.33985  0.82496  0.02909  1.0000
  S   S39       1.0  0.35152  0.96437  0.04347  1.0000
  C   C110      1.0  0.15441  0.74078  0.18490  1.0000
  H   H135      1.0  0.22685  0.76926  0.13557  1.0000
  H   H136      1.0  0.03767  0.53887  0.09426  1.0000
  H   H137      1.0  0.21434  0.80150  0.09936  1.0000
  Fe  Fe21      1.0  0.32652  0.98833  0.09855  1.0000
  H   H138      1.0  0.31965  0.49977  0.15440  1.0000
  C   C111      1.0  0.10396  0.65196  0.04743  1.0000
  H   H139      1.0  0.26475  0.90181  0.33483  1.0000
  H   H140      1.0  0.19942  0.86991  0.04423  1.0000
  C   C112      1.0  0.05454  0.49893  0.05292  1.0000
  H   H141      1.0  0.08350  0.52407  0.34144  1.0000
  H   H142      1.0  0.41642  0.50334  0.05709  1.0000
  H   H143      1.0  0.48047  0.50118  0.06708  1.0000
  H   H144      1.0  0.36866  0.50921  0.06780  1.0000
  H   H145      1.0  0.00396  0.56143  0.03637  1.0000
  H   H146      1.0  0.06321  0.67928  0.02776  1.0000
  H   H147      1.0  0.39571  0.85598  0.04756  1.0000
  C   C113      1.0  0.01798  0.54025  0.02895  1.0000
  H   H148      1.0  0.46432  0.90724  0.02595  1.0000
  H   H149      1.0  0.40964  0.58813  0.05459  1.0000
  H   H150      1.0  0.45883  0.58490  0.04574  1.0000
  C   C114      1.0  0.18040  0.83940  0.02579  1.0000
  H   H151      1.0  0.11837  0.83879  0.03429  1.0000
  H   H152      1.0  0.09060  0.62547  0.02336  1.0000
  C   C115      1.0  0.42896  0.58210  0.02943  1.0000
  C   C116      1.0  0.37479  0.83493  0.02038  1.0000
  C   C117      1.0  0.09039  0.49849  0.35297  1.0000
  C   C118      1.0  0.13448  0.82183  0.01994  1.0000
  S   S40       1.0  0.01323  0.74462  0.51987  1.0000
  Fe  Fe22      1.0  0.15362  0.75774  0.47461  1.0000
  S   S41       1.0  0.11786  0.79128  0.44869  1.0000
  S   S42       1.0  0.21744  0.79725  0.51258  1.0000
  Fe  Fe23      1.0  0.08363  0.66553  0.43991  1.0000
  S   S43       1.0  0.04269  0.69328  0.41152  1.0000
  S   S44       1.0  0.05931  0.59094  0.43125  1.0000
  Fe  Fe24      1.0  0.10861  0.75034  0.38907  1.0000
  Fe  Fe25      1.0  0.05621  0.73171  0.47357  1.0000
  S   S45       1.0  0.14870  0.72022  0.41327  1.0000
  S   S46       1.0  0.09276  0.70025  0.50334  1.0000
  C   C119      1.0  0.03703  0.55261  0.47395  1.0000
  C   C120      1.0  0.04550  0.56700  0.51670  1.0000
  C   C121      1.0  0.46486  0.62069  0.51332  1.0000
  H   H153      1.0  0.10203  0.85635  0.62261  1.0000
  H   H154      1.0  0.06601  0.60227  0.52418  1.0000
  C   C122      1.0  0.02788  0.53563  0.54996  1.0000
  H   H155      1.0  0.20219  0.93143  0.52546  1.0000
  H   H156      1.0  0.34234  0.94202  0.46562  1.0000
  H   H157      1.0  0.44002  0.61139  0.48707  1.0000
  C   C123      1.0  0.27482  0.91827  0.41792  1.0000
  H   H158      1.0  0.16866  0.80279  0.65806  1.0000
  C   C124      1.0  0.11234  0.76667  0.59331  1.0000
  C   C125      1.0  0.26804  0.94574  0.54293  1.0000
  C   C126      1.0  0.29597  0.92768  0.54826  1.0000
  C   C127      1.0  0.27995  0.88187  0.53957  1.0000
  C   C128      1.0  0.23610  0.85403  0.52534  1.0000
  C   C129      1.0  0.20813  0.87210  0.52079  1.0000
  C   C130      1.0  0.22403  0.91772  0.52948  1.0000
  H   H159      1.0  0.32994  0.94900  0.55879  1.0000
  H   H160      1.0  0.30181  0.86813  0.54333  1.0000
  H   H161      1.0  0.17422  0.85106  0.51057  1.0000
  H   H162      1.0  0.07456  0.81592  0.58028  1.0000
  H   H163      1.0  0.03434  0.54713  0.58298  1.0000
  H   H164      1.0  0.25399  0.83172  0.42968  1.0000
  C   C131      1.0  0.33414  0.89829  0.41021  1.0000
  C   C132      1.0  0.35494  0.87654  0.38954  1.0000
  H   H165      1.0  0.22356  0.83820  0.38662  1.0000
  C   C133      1.0  0.41509  0.90719  0.44117  1.0000
  H   H166      1.0  0.24280  0.91304  0.40459  1.0000
  H   H167      1.0  0.16213  0.85159  0.66565  1.0000
  H   H168      1.0  0.09146  0.51811  0.41755  1.0000
  C   C134      1.0  0.99870  0.73283  0.67476  1.0000
  C   C135      1.0  0.07813  0.77715  0.65671  1.0000
  H   H169      1.0  0.18434  0.84305  0.61680  1.0000
  C   C136      1.0  0.03256  0.75452  0.64459  1.0000
  H   H170      1.0  0.48620  0.70747  0.51313  1.0000
  H   H171      1.0  0.46701  0.58993  0.51892  1.0000
  N   N7        1.0  0.11328  0.80025  0.62406  1.0000
  C   C137      1.0  0.10522  0.83267  0.60024  1.0000
  C   C138      1.0  0.15894  0.82547  0.64224  1.0000
  H   H172      1.0  0.00046  0.61571  0.53262  1.0000
  H   H173      1.0  0.07999  0.74825  0.57624  1.0000
  C   C139      1.0  0.35566  0.92458  0.44732  1.0000
  H   H174      1.0  0.00448  0.49508  0.43176  1.0000
  N   N8        1.0  0.29145  0.89218  0.39371  1.0000
  H   H175      1.0  0.11785  0.74133  0.60980  1.0000
  H   H176      1.0  0.13846  0.78253  0.56821  1.0000
  C   C140      1.0  0.39544  0.92868  0.46244  1.0000
  H   H177      1.0  0.26809  0.90770  0.45189  1.0000
  H   H178      1.0  0.26450  0.82251  0.37533  1.0000
  H   H179      1.0  0.13266  0.85284  0.57750  1.0000
  C   C141      1.0  0.25699  0.84417  0.39634  1.0000
  H   H180      1.0  0.14043  0.52714  0.47586  1.0000
  H   H181      1.0  0.34015  0.85533  0.36164  1.0000
  H   H182      1.0  0.02275  0.75348  0.61159  1.0000
  H   H183      1.0  0.41116  0.94861  0.49101  1.0000
  C   C142      1.0  0.48315  0.50165  0.54010  1.0000
  H   H184      1.0  0.47638  0.68461  0.45978  1.0000
  H   H185      1.0  0.45105  0.62766  0.54279  1.0000
  H   H186      1.0  0.41024  0.86431  0.38855  1.0000
  H   H187      1.0  0.44608  0.91067  0.45300  1.0000
  H   H188      1.0  0.29892  0.95488  0.41711  1.0000
  C   C143      1.0  0.39491  0.88119  0.40478  1.0000
  S   S47       1.0  0.45865  0.50918  0.45750  1.0000
  C   C144      1.0  0.01120  0.50648  0.46478  1.0000
  C   C145      1.0  0.11284  0.49407  0.48638  1.0000
  C   C146      1.0  0.09514  0.49465  0.39698  1.0000
  H   H189      1.0  0.08139  0.49505  0.48573  1.0000
  C   C147      1.0  0.08763  0.77561  0.70080  1.0000
  H   H190      1.0  0.37747  0.80405  0.01901  1.0000
  H   H191      1.0  0.11125  0.73049  0.95845  1.0000
  H   H192      1.0  0.12113  0.79122  0.71316  1.0000
  C   C148      1.0  0.05345  0.75342  0.73065  1.0000
  C   C149      1.0  0.46952  0.89547  0.99543  1.0000
  C   C150      1.0  0.36265  0.53625  0.98875  1.0000
  H   H193      1.0  0.37238  0.56071  0.96219  1.0000
  S   S48       1.0  0.05122  0.76063  0.99157  1.0000
  C   C151      1.0  0.38670  0.90122  0.98362  1.0000
  C   C152      1.0  0.00914  0.73233  0.71771  1.0000
  C   C153      1.0  0.13039  0.76090  0.97708  1.0000
  S   S49       1.0  0.01550  0.65724  0.90534  1.0000
  C   C154      1.0  0.35354  0.83044  0.94673  1.0000
  H   H194      1.0  0.35963  0.84756  0.91534  1.0000
  C   C155      1.0  0.42713  0.52826  0.97468  1.0000
  H   H195      1.0  0.06118  0.75249  0.76419  1.0000
  C   C156      1.0  0.43345  0.86944  0.96726  1.0000
  Fe  Fe26      1.0  0.00389  0.69425  0.95918  1.0000
  H   H196      1.0  0.35231  0.89472  0.98950  1.0000
  C   C157      1.0  0.01721  0.52579  0.98673  1.0000
  N   N9        1.0  0.38783  0.85889  0.97894  1.0000
  C   C158      1.0  0.44379  0.85576  0.92768  1.0000
  C   C159      1.0  0.17640  0.77849  0.98297  1.0000
  H   H197      1.0  0.35200  0.79759  0.94210  1.0000
  H   H198      1.0  0.40731  0.92204  0.01103  1.0000
  H   H199      1.0  0.31960  0.82284  0.95693  1.0000
  H   H200      1.0  0.19244  0.76144  0.96870  1.0000
  H   H201      1.0  0.41873  0.83599  0.90410  1.0000
  S   S50       1.0  0.25910  0.83864  0.01494  1.0000
  H   H202      1.0  0.39930  0.92194  0.95427  1.0000
  C   C160      1.0  0.03537  0.49803  0.97781  1.0000
  C   C161      1.0  0.47181  0.55948  0.96345  1.0000
  C   C162      1.0  0.47303  0.50796  0.91061  1.0000
  C   C163      1.0  0.10921  0.78240  0.99584  1.0000
  H   H203      1.0  0.44022  0.60993  0.00615  1.0000
  C   C164      1.0  0.20152  0.81770  0.00746  1.0000
  S   S51       1.0  0.99289  0.54025  0.94426  1.0000
  N   N10       1.0  0.40230  0.53762  0.00815  1.0000
  H   H204      1.0  0.33888  0.50268  0.97526  1.0000
  H   H205      1.0  0.34356  0.54414  0.01271  1.0000
  C   C165      1.0  0.95747  0.25083  0.04352  1.0000
  H   H206      1.0  0.83883  0.08434  0.17031  1.0000
  H   H207      1.0  0.79906  0.01702  0.21277  1.0000
  C   C166      1.0  0.54545  0.00887  0.05081  1.0000
  C   C167      1.0  0.52777  0.16175  0.04637  1.0000
  C   C168      1.0  0.89495  0.26414  0.04740  1.0000
  C   C169      1.0  0.80901  0.05234  0.10845  1.0000
  H   H208      1.0  0.88180  0.07637  0.06126  1.0000
  H   H209      1.0  0.84561  0.14296  0.12949  1.0000
  N   N11       1.0  0.83174  0.09238  0.08092  1.0000
  H   H210      1.0  0.61424  0.21632  0.06137  1.0000
  C   C170      1.0  0.79814  0.10054  0.06007  1.0000
  H   H211      1.0  0.89040  0.13098  0.11985  1.0000
  H   H212      1.0  0.87622  0.11475  0.02665  1.0000
  H   H213      1.0  0.95638  0.30195  0.08301  1.0000
  H   H214      1.0  0.88010  0.28275  0.06080  1.0000
  C   C171      1.0  0.81613  0.05383  0.15350  1.0000
  H   H215      1.0  0.77606  0.07262  0.03812  1.0000
  H   H216      1.0  0.53456  0.10156  0.04780  1.0000
  H   H217      1.0  0.59568  0.01181  0.28734  1.0000
  C   C172      1.0  0.51750  0.11834  0.06004  1.0000
  C   C173      1.0  0.77812  0.01007  0.09033  1.0000
  C   C174      1.0  0.86304  0.13399  0.10465  1.0000
  H   H218      1.0  0.50979  0.21357  0.05768  1.0000
  C   C175      1.0  0.50387  0.18067  0.06617  1.0000
  H   H219      1.0  0.87938  0.16339  0.08304  1.0000
  H   H220      1.0  0.58932  0.24980  0.04936  1.0000
  C   C176      1.0  0.93823  0.27519  0.05997  1.0000
  H   H221      1.0  0.77669  0.10466  0.08419  1.0000
  H   H222      1.0  0.81379  0.13128  0.04015  1.0000
  H   H223      1.0  0.55603  0.99798  0.07852  1.0000
  H   H224      1.0  0.83573  0.05686  0.02473  1.0000
  C   C177      1.0  0.85745  0.08467  0.04706  1.0000
  C   C178      1.0  0.50117  0.99936  0.04786  1.0000
  H   H225      1.0  0.77072  0.00635  0.05644  1.0000
  C   C179      1.0  0.79353  0.01528  0.17842  1.0000
  C   C180      1.0  0.59989  0.22682  0.03507  1.0000
  H   H226      1.0  0.61045  0.04024  0.02119  1.0000
  S   S52       1.0  0.76585  0.02985  0.48560  1.0000
  Fe  Fe27      1.0  0.89339  0.28103  0.55288  1.0000
  S   S53       1.0  0.93196  0.25418  0.58662  1.0000
  S   S54       1.0  0.83199  0.23726  0.51254  1.0000
  Fe  Fe28      1.0  0.95812  0.37810  0.58086  1.0000
  H   H227      1.0  0.86726  0.19855  0.37666  1.0000
  Fe  Fe29      1.0  0.93679  0.30008  0.64075  1.0000
  S   S55       1.0  0.95333  0.33806  0.52199  1.0000
  S   S56       1.0  0.89410  0.32343  0.60888  1.0000
  H   H228      1.0  0.57545  0.10969  0.65954  1.0000
  C   C181      1.0  0.55292  0.44192  0.52904  1.0000
  H   H229      1.0  0.77080  0.05050  0.58191  1.0000
  C   C182      1.0  0.78262  0.08711  0.49287  1.0000
  C   C183      1.0  0.82026  0.11375  0.51817  1.0000
  C   C184      1.0  0.83464  0.15927  0.52552  1.0000
  C   C185      1.0  0.81246  0.17914  0.50648  1.0000
  C   C186      1.0  0.77490  0.15261  0.48088  1.0000
  C   C187      1.0  0.75976  0.10662  0.47434  1.0000
  H   H230      1.0  0.83827  0.09898  0.53242  1.0000
  H   H231      1.0  0.86316  0.17894  0.54562  1.0000
  H   H232      1.0  0.75735  0.16763  0.46615  1.0000
  H   H233      1.0  0.73062  0.08638  0.45486  1.0000
  C   C188      1.0  0.52221  0.03660  0.53724  1.0000
  H   H234      1.0  0.53466  0.44670  0.61709  1.0000
  C   C189      1.0  0.56452  0.00271  0.50821  1.0000
  H   H235      1.0  0.55038  0.14126  0.64335  1.0000
  N   N12       1.0  0.49310  0.38718  0.57957  1.0000
  H   H236      1.0  0.96569  0.24248  0.47530  1.0000
  S   S57       1.0  0.51022  0.06211  0.58115  1.0000
  H   H237      1.0  0.51773  0.34203  0.56568  1.0000
  C   C190      1.0  0.76395  0.14229  0.61707  1.0000
  C   C191      1.0  0.87406  0.19952  0.41159  1.0000
  H   H238      1.0  0.57232  0.03040  0.57217  1.0000
  H   H239      1.0  0.84015  0.22865  0.67858  1.0000
  H   H240      1.0  0.94045  0.36585  0.41407  1.0000
  H   H241      1.0  0.90390  0.28916  0.44010  1.0000
  H   H242      1.0  0.78303  0.20967  0.59856  1.0000
  C   C192      1.0  0.68932  0.11628  0.56545  1.0000
  H   H243      1.0  0.66966  0.04937  0.58064  1.0000
  C   C193      1.0  0.50782  0.40968  0.53762  1.0000
  H   H244      1.0  0.91413  0.24114  0.48454  1.0000
  C   C194      1.0  0.93078  0.29906  0.41735  1.0000
  H   H245      1.0  0.85648  0.16442  0.42351  1.0000
  H   H246      1.0  0.91524  0.18998  0.48119  1.0000
  C   C195      1.0  0.77779  0.06114  0.61623  1.0000
  H   H247      1.0  0.54517  0.46588  0.42498  1.0000
  N   N13       1.0  0.73963  0.06251  0.63614  1.0000
  C   C196      1.0  0.93953  0.19385  0.40137  1.0000
  H   H248      1.0  0.67043  0.01546  0.64750  1.0000
  S   S58       1.0  0.97831  0.45194  0.58390  1.0000
  C   C197      1.0  0.94465  0.26849  0.40353  1.0000
  H   H249      1.0  0.71704  0.18661  0.55294  1.0000
  H   H250      1.0  0.79422  0.15404  0.63533  1.0000
  C   C198      1.0  0.75790  0.17449  0.59608  1.0000
  C   C199      1.0  0.69485  0.08376  0.58660  1.0000
  C   C200      1.0  0.72074  0.16153  0.57024  1.0000
  C   C201      1.0  0.73226  0.09592  0.61359  1.0000
  C   C202      1.0  0.53509  0.44972  0.45583  1.0000
  C   C203      1.0  0.49996  0.02841  0.49800  1.0000
  H   H251      1.0  0.69369  0.00292  0.60066  1.0000
  H   H252      1.0  0.66088  0.10627  0.54455  1.0000
  H   H253      1.0  0.97356  0.43965  0.49074  1.0000
  C   C204      1.0  0.74982  0.07517  0.68219  1.0000
  C   C205      1.0  0.55483  0.02405  0.54201  1.0000
  H   H254      1.0  0.80862  0.09448  0.61708  1.0000
  N   N14       1.0  0.92256  0.22224  0.42033  1.0000
  C   C206      1.0  0.52583  0.41085  0.61458  1.0000
  C   C207      1.0  0.92966  0.22403  0.46729  1.0000
  H   H255      1.0  0.92153  0.15912  0.41418  1.0000
  H   H256      1.0  0.60043  0.48686  0.48327  1.0000
  H   H257      1.0  0.55697  0.40955  0.60982  1.0000
  H   H258      1.0  0.57862  0.45345  0.55317  1.0000
  H   H259      1.0  0.78531  0.03715  0.63267  1.0000
  H   H260      1.0  0.51286  0.39543  0.64640  1.0000
  C   C208      1.0  0.95163  0.34318  0.40276  1.0000
  H   H261      1.0  0.85769  0.21639  0.42779  1.0000
  C   C209      1.0  0.50976  0.00721  0.46416  1.0000
  C   C210      1.0  0.98076  0.28492  0.37414  1.0000
  C   C211      1.0  0.56610  0.46149  0.48869  1.0000
  C   C212      1.0  0.49085  0.41781  0.46294  1.0000
  H   H262      1.0  0.60120  0.16909  0.67270  1.0000
  H   H263      1.0  0.49238  0.00104  0.43396  1.0000
  C   C213      1.0  0.56912  0.13705  0.67011  1.0000
  C   C214      1.0  0.70069  0.01640  0.63415  1.0000
  H   H264      1.0  0.93506  0.19084  0.36594  1.0000
  H   H265      1.0  0.97531  0.20737  0.40919  1.0000
  S   S59       1.0  0.67129  0.99556  0.39403  1.0000
  C   C215      1.0  0.98669  0.35813  0.37380  1.0000
  H   H266      1.0  0.61549  0.48539  0.90048  1.0000
  Fe  Fe30      1.0  0.73864  0.05884  0.94294  1.0000
  H   H267      1.0  0.53598  0.22895  0.99138  1.0000
  Fe  Fe31      1.0  0.74492  0.11976  0.86919  1.0000
  S   S60       1.0  0.72466  0.15939  0.91205  1.0000
  S   S61       1.0  0.75167  0.13229  0.79716  1.0000
  Fe  Fe32      1.0  0.77116  0.15678  0.96068  1.0000
  H   H268      1.0  0.59785  0.15031  0.01571  1.0000
  Fe  Fe33      1.0  0.67262  0.09282  0.93798  1.0000
  S   S62       1.0  0.60129  0.07955  0.94198  1.0000
  S   S63       1.0  0.79527  0.12213  0.91592  1.0000
  S   S64       1.0  0.69011  0.05290  0.89218  1.0000
  C   C216      1.0  0.51860  0.03691  0.97911  1.0000
  C   C217      1.0  0.94630  0.39580  0.80767  1.0000
  C   C218      1.0  0.54660  0.10692  0.78820  1.0000
  C   C219      1.0  0.88059  0.24022  0.73454  1.0000
  C   C220      1.0  0.88065  0.22863  0.77760  1.0000
  C   C221      1.0  0.84126  0.19630  0.79746  1.0000
  C   C222      1.0  0.80143  0.17508  0.77429  1.0000
  C   C223      1.0  0.80123  0.18707  0.73138  1.0000
  C   C224      1.0  0.84063  0.21947  0.71153  1.0000
  H   H269      1.0  0.91145  0.24447  0.79556  1.0000
  H   H270      1.0  0.84187  0.18729  0.83045  1.0000
  H   H271      1.0  0.77042  0.17145  0.71350  1.0000
  H   H272      1.0  0.62765  0.10285  0.84589  1.0000
  C   C225      1.0  0.92123  0.33459  0.85755  1.0000
  H   H273      1.0  0.87667  0.31096  0.98162  1.0000
  H   H274      1.0  0.50802  0.04781  0.95139  1.0000
  C   C226      1.0  0.61090  0.10728  0.81862  1.0000
  C   C227      1.0  0.95338  0.38323  0.97038  1.0000
  H   H275      1.0  0.72440  0.08170  0.69733  1.0000
  C   C228      1.0  0.87079  0.22917  0.01783  1.0000
  C   C229      1.0  0.61077  0.12524  0.74375  1.0000
  C   C230      1.0  0.50056  0.08450  0.70311  1.0000
  H   H276      1.0  0.56774  0.21893  0.95282  1.0000
  C   C231      1.0  0.53526  0.16309  0.72149  1.0000
  C   C232      1.0  0.63211  0.11942  0.77905  1.0000
  H   H277      1.0  0.94962  0.30693  0.97443  1.0000
  H   H278      1.0  0.56671  0.19458  0.72897  1.0000
  N   N15       1.0  0.93048  0.34742  0.93738  1.0000
  H   H279      1.0  0.92845  0.28443  0.92305  1.0000
  S   S65       1.0  0.81659  0.21667  0.00281  1.0000
  S   S66       1.0  0.93103  0.28097  0.71100  1.0000
  H   H280      1.0  0.87240  0.17874  0.97766  1.0000
  H   H281      1.0  0.90509  0.29874  0.86186  1.0000
  S   S67       1.0  0.51943  0.43701  0.94342  1.0000
  H   H282      1.0  0.91583  0.32656  0.78867  1.0000
  C   C233      1.0  0.92674  0.35010  0.81549  1.0000
  H   H283      1.0  0.55367  0.13055  0.97644  1.0000
  C   C234      1.0  0.88249  0.32264  0.94788  1.0000
  C   C235      1.0  0.93608  0.36468  0.89318  1.0000
  C   C236      1.0  0.57632  0.03266  0.01828  1.0000
  H   H284      1.0  0.60543  0.18035  0.96765  1.0000
  C   C237      1.0  0.56822  0.10099  0.82320  1.0000
  H   H285      1.0  0.55204  0.09159  0.85423  1.0000
  C   C238      1.0  0.89036  0.20537  0.00079  1.0000
  C   C239      1.0  0.52754  0.47962  0.98081  1.0000
  S   S68       1.0  0.71714  0.09384  0.99060  1.0000
  C   C240      1.0  0.49702  0.47207  0.01355  1.0000
  H   H286      1.0  0.66551  0.12452  0.77587  1.0000
  H   H287      1.0  0.51367  0.10209  0.79341  1.0000
  H   H288      1.0  0.86368  0.29225  0.92730  1.0000
  C   C241      1.0  0.54401  0.20315  0.97974  1.0000
  C   C242      1.0  0.95484  0.41107  0.88411  1.0000
  H   H289      1.0  0.86719  0.34413  0.94373  1.0000
  C   C243      1.0  0.56308  0.04699  0.98235  1.0000
  C   C244      1.0  0.56717  0.11915  0.74730  1.0000
  H   H290      1.0  0.51271  0.15549  0.74946  1.0000
  N   N16       1.0  0.54377  0.12587  0.71096  1.0000
  H   H291      1.0  0.62930  0.13467  0.71416  1.0000
  H   H292      1.0  0.51279  0.17498  0.96617  1.0000
  H   H293      1.0  0.94807  0.19702  0.00095  1.0000
  H   H294      1.0  0.93927  0.40602  0.97255  1.0000
  C   C245      1.0  0.94870  0.31656  0.94071  1.0000
  H   H295      1.0  0.95059  0.40758  0.77497  1.0000
  C   C246      1.0  0.58045  0.16090  0.99273  1.0000
  H   H296      1.0  0.75113  0.04862  0.70109  1.0000
  S   S69       1.0  0.75761  0.00854  0.96639  1.0000
  H   H297      1.0  0.51856  0.16991  0.69454  1.0000
  H   H298      1.0  0.62705  0.24681  0.01196  1.0000
  C   C247      1.0  0.93333  0.21591  0.01391  1.0000
  H   H299      1.0  0.96572  0.43654  0.90894  1.0000
  C   C248      1.0  0.95997  0.42617  0.84191  1.0000
  H   H300      1.0  0.50517  0.05510  0.69723  1.0000
  N   N17       1.0  0.56241  0.18736  0.01398  1.0000
  H   H301      1.0  0.95010  0.36923  0.00311  1.0000
  H   H302      1.0  0.97464  0.46176  0.83586  1.0000
  C   C249      1.0  0.48780  0.01341  0.01178  1.0000
  H   H303      1.0  0.98336  0.33248  0.92833  1.0000
  H   H304      1.0  0.78276  0.10570  0.68715  1.0000
  S   S70       1.0  0.67084  0.92803  0.28990  1.0000
  H   H305      1.0  0.57701  0.97918  0.33526  1.0000
  S   S71       1.0  0.70403  0.78770  0.07352  1.0000
  H   H306      1.0  0.80759  0.74416  0.20669  1.0000
  Fe  Fe34      1.0  0.60474  0.66527  0.06909  1.0000
  S   S72       1.0  0.66816  0.68445  0.10475  1.0000
  S   S73       1.0  0.54444  0.59483  0.06957  1.0000
  Fe  Fe35      1.0  0.66450  0.74484  0.12852  1.0000
  S   S74       1.0  0.68278  0.76717  0.19819  1.0000
  H   H307      1.0  0.92869  0.80441  0.03353  1.0000
  H   H308      1.0  0.86463  0.77259  0.18927  1.0000
  S   S75       1.0  0.59831  0.72247  0.09735  1.0000
  Fe  Fe36      1.0  0.63836  0.76174  0.04052  1.0000
  H   H309      1.0  0.74617  0.94465  0.17894  1.0000
  H   H310      1.0  0.62074  0.97981  0.30499  1.0000
  C   C250      1.0  0.57789  0.94110  0.23464  1.0000
  H   H311      1.0  0.72740  0.64482  0.03861  1.0000
  C   C251      1.0  0.54033  0.55064  0.03652  1.0000
  C   C252      1.0  0.91824  0.74153  0.05676  1.0000
  H   H312      1.0  0.83385  0.71256  0.19186  1.0000
  H   H313      1.0  0.74763  0.69805  0.15430  1.0000
  H   H314      1.0  0.58747  0.97215  0.21631  1.0000
  H   H315      1.0  0.78229  0.77711  0.15379  1.0000
  H   H316      1.0  0.83937  0.81179  0.13957  1.0000
  H   H317      1.0  0.77505  0.66827  0.13793  1.0000
  C   C253      1.0  0.75582  0.97177  0.11547  1.0000
  H   H318      1.0  0.73224  0.93994  0.10072  1.0000
  H   H319      1.0  0.68211  0.85517  0.32334  1.0000
  C   C254      1.0  0.51464  0.94292  0.27026  1.0000
  H   H320      1.0  0.57525  0.89479  0.30101  1.0000
  C   C255      1.0  0.67194  0.88177  0.26512  1.0000
  C   C256      1.0  0.67858  0.85136  0.28887  1.0000
  C   C257      1.0  0.68135  0.81627  0.26792  1.0000
  C   C258      1.0  0.67694  0.81075  0.22312  1.0000
  C   C259      1.0  0.66943  0.84066  0.19942  1.0000
  C   C260      1.0  0.66714  0.87607  0.22034  1.0000
  H   H321      1.0  0.87117  0.80506  0.07741  1.0000
  H   H322      1.0  0.68676  0.79314  0.28654  1.0000
  H   H323      1.0  0.66590  0.83681  0.16495  1.0000
  H   H324      1.0  0.66175  0.89922  0.20165  1.0000
  C   C261      1.0  0.76354  0.97437  0.15945  1.0000
  H   H325      1.0  0.84235  0.67685  0.13039  1.0000
  C   C262      1.0  0.89330  0.70560  0.08370  1.0000
  C   C263      1.0  0.54544  0.89891  0.29833  1.0000
  H   H326      1.0  0.79809  0.77965  0.09896  1.0000
  H   H327      1.0  0.76135  0.69723  0.09902  1.0000
  H   H328      1.0  0.51933  0.86892  0.28100  1.0000
  C   C264      1.0  0.75939  0.65597  0.02373  1.0000
  H   H329      1.0  0.89906  0.67735  0.08365  1.0000
  Fe  Fe37      1.0  0.70215  0.72576  0.04693  1.0000
  H   H330      1.0  0.51252  0.94227  0.19963  1.0000
  N   N18       1.0  0.81689  0.74081  0.13859  1.0000
  C   C265      1.0  0.83136  0.74258  0.18356  1.0000
  C   C266      1.0  0.80909  0.77914  0.13238  1.0000
  C   C267      1.0  0.77355  0.69924  0.13225  1.0000
  C   C268      1.0  0.85079  0.74103  0.10927  1.0000
  C   C269      1.0  0.87648  0.77693  0.08092  1.0000
  C   C270      1.0  0.86035  0.70539  0.10985  1.0000
  C   C271      1.0  0.90980  0.77705  0.05532  1.0000
  N   N19       1.0  0.55594  0.94075  0.27579  1.0000
  C   C272      1.0  0.50371  0.50736  0.04149  1.0000
  C   C273      1.0  0.58860  0.97956  0.30189  1.0000
  H   H331      1.0  0.53358  0.89838  0.33164  1.0000
  H   H332      1.0  0.60908  0.93998  0.23995  1.0000
  H   H333      1.0  0.55627  0.91130  0.21433  1.0000
  H   H334      1.0  0.50210  0.94422  0.33887  1.0000
  H   H335      1.0  0.74104  0.79791  0.34255  1.0000
  C   C274      1.0  0.49665  0.94288  0.22928  1.0000
  H   H336      1.0  0.94350  0.74132  0.03622  1.0000
  H   H337      1.0  0.75870  0.59371  0.03442  1.0000
  C   C275      1.0  0.49044  0.94402  0.30666  1.0000
  H   H338      1.0  0.71206  0.86003  0.02273  1.0000
  C   C276      1.0  0.77713  0.62704  0.02128  1.0000
  Fe  Fe38      1.0  0.70407  0.98070  0.44846  1.0000
  S   S76       1.0  0.64064  0.93774  0.48471  1.0000
  N   N20       1.0  0.50849  0.65984  0.50193  1.0000
  S   S77       1.0  0.59875  0.88837  0.39251  1.0000
  Fe  Fe39      1.0  0.60764  0.94946  0.42823  1.0000
  H   H339      1.0  0.56002  0.67530  0.45552  1.0000
  Fe  Fe40      1.0  0.63797  0.88093  0.44562  1.0000
  S   S78       1.0  0.61680  0.80978  0.46474  1.0000
  C   C277      1.0  0.94206  0.57589  0.59593  1.0000
  S   S79       1.0  0.70380  0.92265  0.41357  1.0000
  Fe  Fe41      1.0  0.72889  0.70764  0.60285  1.0000
  S   S80       1.0  0.70376  0.65279  0.55318  1.0000
  S   S81       1.0  0.73526  0.77592  0.59608  1.0000
  Fe  Fe42      1.0  0.75140  0.65519  0.66726  1.0000
  S   S82       1.0  0.72778  0.59572  0.62246  1.0000
  Fe  Fe43      1.0  0.76366  0.64731  0.57140  1.0000
  S   S83       1.0  0.80240  0.63941  0.51650  1.0000
  Fe  Fe44      1.0  0.66987  0.60599  0.60760  1.0000
  S   S84       1.0  0.59807  0.54878  0.60749  1.0000
  S   S85       1.0  0.79138  0.70588  0.61710  1.0000
  S   S86       1.0  0.69061  0.66154  0.65640  1.0000
  H   H340      1.0  0.93787  0.51005  0.59031  1.0000
  H   H341      1.0  0.75337  0.86259  0.46384  1.0000
  C   C278      1.0  0.86098  0.66962  0.51728  1.0000
  C   C279      1.0  0.88458  0.66549  0.48249  1.0000
  C   C280      1.0  0.93135  0.68832  0.48271  1.0000
  C   C281      1.0  0.95470  0.71585  0.51755  1.0000
  C   C282      1.0  0.93110  0.72030  0.55210  1.0000
  C   C283      1.0  0.88441  0.69712  0.55208  1.0000
  H   H342      1.0  0.86661  0.64427  0.45542  1.0000
  H   H343      1.0  0.94929  0.68489  0.45583  1.0000
  H   H344      1.0  0.94892  0.74166  0.57912  1.0000
  H   H345      1.0  0.86665  0.70039  0.57913  1.0000
  C   C284      1.0  0.57432  0.55718  0.52461  1.0000
  C   C285      1.0  0.56013  0.53922  0.56544  1.0000
  H   H346      1.0  0.73448  0.85432  0.38682  1.0000
  H   H347      1.0  0.82106  0.74045  0.40310  1.0000
  C   C286      1.0  0.65316  0.80218  0.49828  1.0000
  C   C287      1.0  0.68154  0.83594  0.52676  1.0000
  C   C288      1.0  0.70702  0.82758  0.55621  1.0000
  C   C289      1.0  0.70427  0.78552  0.55733  1.0000
  C   C290      1.0  0.67710  0.75227  0.52781  1.0000
  C   C291      1.0  0.65167  0.76067  0.49832  1.0000
  H   H348      1.0  0.68299  0.86808  0.52684  1.0000
  H   H349      1.0  0.72835  0.85356  0.57873  1.0000
  H   H350      1.0  0.67477  0.71980  0.52838  1.0000
  H   H351      1.0  0.63021  0.73471  0.47602  1.0000
  H   H352      1.0  0.83681  0.72679  0.45253  1.0000
  H   H353      1.0  0.60941  0.57822  0.51828  1.0000
  C   C292      1.0  0.97042  0.61942  0.53140  1.0000
  H   H354      1.0  0.85462  0.78437  0.44066  1.0000
  C   C293      1.0  0.54296  0.54704  0.49160  1.0000
  H   H355      1.0  0.76497  0.74889  0.37451  1.0000
  H   H356      1.0  0.53139  0.72539  0.47518  1.0000
  H   H357      1.0  0.71734  0.69474  0.46605  1.0000
  H   H358      1.0  0.82352  0.78671  0.51260  1.0000
  H   H359      1.0  0.55423  0.56052  0.45994  1.0000
  H   H360      1.0  0.80441  0.72840  0.51894  1.0000
  C   C294      1.0  0.94387  0.53796  0.61092  1.0000
  H   H361      1.0  0.94940  0.53437  0.52126  1.0000
  H   H362      1.0  0.58604  0.62944  0.60604  1.0000
  H   H363      1.0  0.89986  0.61975  0.56433  1.0000
  H   H364      1.0  0.50321  0.49842  0.60473  1.0000
  H   H365      1.0  0.53267  0.60749  0.54742  1.0000
  H   H366      1.0  0.74264  0.68843  0.41819  1.0000
  N   N21       1.0  0.93163  0.58032  0.55086  1.0000
  H   H367      1.0  0.88207  0.58793  0.51601  1.0000
  H   H368      1.0  0.75563  0.67386  0.46842  1.0000
  C   C295      1.0  0.53933  0.67337  0.53898  1.0000
  H   H369      1.0  0.62548  0.70769  0.63307  1.0000
  H   H370      1.0  0.95079  0.64050  0.61728  1.0000
  C   C296      1.0  0.89276  0.58734  0.54949  1.0000
  H   H371      1.0  0.91281  0.54471  0.49005  1.0000
  C   C297      1.0  0.74593  0.83330  0.40116  1.0000
  S   S87       1.0  0.55058  0.96435  0.42674  1.0000
  C   C298      1.0  0.59204  0.72961  0.58999  1.0000
  Fe  Fe45      1.0  0.66475  0.93314  0.36237  1.0000
  H   H372      1.0  0.96438  0.62360  0.49716  1.0000
  H   H373      1.0  0.96411  0.71637  0.66487  1.0000
  C   C299      1.0  0.52727  0.64692  0.46531  1.0000
  C   C300      1.0  0.74953  0.80138  0.37634  1.0000
  C   C301      1.0  0.57894  0.65403  0.59226  1.0000
  C   C302      1.0  0.51445  0.51171  0.57304  1.0000
  H   H374      1.0  0.77744  0.81533  0.49757  1.0000
  H   H375      1.0  0.61019  0.76407  0.60135  1.0000
  N   N22       1.0  0.78593  0.74519  0.45868  1.0000
  C   C303      1.0  0.79529  0.75259  0.50540  1.0000
  C   C304      1.0  0.74882  0.69864  0.45249  1.0000
  C   C305      1.0  0.82629  0.74945  0.43771  1.0000
  C   C306      1.0  0.77375  0.77676  0.43936  1.0000
  C   C307      1.0  0.76330  0.77354  0.39499  1.0000
  C   C308      1.0  0.77046  0.81027  0.46361  1.0000
  H   H376      1.0  0.86377  0.56021  0.56660  1.0000
  C   C309      1.0  0.75665  0.83793  0.44457  1.0000
  C   C310      1.0  0.95115  0.61048  0.62640  1.0000
  H   H377      1.0  0.76569  0.74801  0.52353  1.0000
  C   C311      1.0  0.92082  0.54043  0.52360  1.0000
  H   H378      1.0  0.97884  0.65138  0.54806  1.0000
  H   H379      1.0  0.55830  0.74467  0.54266  1.0000
  C   C312      1.0  0.56192  0.71783  0.55598  1.0000
  C   C313      1.0  0.60087  0.69793  0.60780  1.0000
  H   H380      1.0  0.53223  0.61835  0.47310  1.0000
  C   C314      1.0  0.54851  0.64181  0.55853  1.0000
  C   C315      1.0  0.49723  0.51920  0.49916  1.0000
  H   H381      1.0  0.50489  0.63613  0.43683  1.0000
  C   C316      1.0  0.50027  0.69596  0.48707  1.0000
  H   H382      1.0  0.95556  0.50579  0.66406  1.0000
  C   C317      1.0  0.96077  0.60692  0.66922  1.0000
  C   C318      1.0  0.95399  0.53499  0.65366  1.0000
  H   H383      1.0  0.58920  0.99263  0.51252  1.0000
  C   C319      1.0  0.96215  0.56924  0.68282  1.0000
  H   H384      1.0  0.89155  0.50970  0.53614  1.0000
  H   H385      1.0  0.70647  0.99236  0.65280  1.0000
  C   C320      1.0  0.54164  0.99374  0.46924  1.0000
  C   C321      1.0  0.70109  0.88023  0.00640  1.0000
  H   H386      1.0  0.83056  0.63164  0.69598  1.0000
  Fe  Fe46      1.0  0.95021  0.64574  0.87843  1.0000
  S   S88       1.0  0.90990  0.58168  0.91419  1.0000
  S   S89       1.0  0.93759  0.64594  0.80666  1.0000
  Fe  Fe47      1.0  0.90601  0.62535  0.96625  1.0000
  C   C322      1.0  0.67331  0.93375  0.96446  1.0000
  H   H387      1.0  0.55624  0.90359  0.93720  1.0000
  H   H388      1.0  0.74339  0.59369  0.81350  1.0000
  S   S90       1.0  0.94243  0.68854  0.92860  1.0000
  H   H389      1.0  0.75580  0.79740  0.82112  1.0000
  C   C323      1.0  0.84176  0.68390  0.98450  1.0000
  H   H390      1.0  0.67255  0.81325  0.92427  1.0000
  C   C324      1.0  0.82166  0.66047  0.75413  1.0000
  C   C325      1.0  0.84254  0.64299  0.72824  1.0000
  C   C326      1.0  0.87836  0.63918  0.74455  1.0000
  C   C327      1.0  0.89331  0.65240  0.78692  1.0000
  C   C328      1.0  0.87304  0.67077  0.81242  1.0000
  C   C329      1.0  0.83761  0.67505  0.79594  1.0000
  S   S91       1.0  0.63912  0.70280  0.00957  1.0000
  H   H391      1.0  0.89391  0.62505  0.72454  1.0000
  H   H392      1.0  0.88489  0.68199  0.84473  1.0000
  H   H393      1.0  0.82242  0.68970  0.81576  1.0000
  C   C330      1.0  0.71778  0.95228  0.97689  1.0000
  H   H394      1.0  0.71179  0.65925  0.90347  1.0000
  H   H395      1.0  0.58890  0.52868  0.95164  1.0000
  H   H396      1.0  0.82899  0.62108  0.90570  1.0000
  C   C331      1.0  0.71646  0.56943  0.83302  1.0000
  H   H397      1.0  0.66007  0.75661  0.92936  1.0000
  C   C332      1.0  0.56505  0.52256  0.97676  1.0000
  H   H398      1.0  0.78284  0.85643  0.87511  1.0000
  H   H399      1.0  0.87357  0.69517  0.96953  1.0000
  C   C333      1.0  0.79415  0.60984  0.89562  1.0000
  H   H400      1.0  0.98284  0.71546  0.74111  1.0000
  H   H401      1.0  0.82928  0.56581  0.85257  1.0000
  H   H402      1.0  0.76111  0.73572  0.78876  1.0000
  H   H403      1.0  0.70494  0.71952  0.93757  1.0000
  H   H404      1.0  0.60369  0.52010  0.83678  1.0000
  H   H405      1.0  0.66078  0.77828  0.87727  1.0000
  C   C334      1.0  0.52225  0.89385  0.94554  1.0000
  S   S92       1.0  0.77378  0.66194  0.73702  1.0000
  H   H406      1.0  0.66246  0.95426  0.94824  1.0000
  H   H407      1.0  0.84312  0.74637  0.97457  1.0000
  H   H408      1.0  0.74431  0.87126  0.89796  1.0000
  C   C335      1.0  0.57137  0.55799  0.00437  1.0000
  H   H409      1.0  0.77715  0.52257  0.83092  1.0000
  H   H410      1.0  0.52855  0.57301  0.92456  1.0000
  H   H411      1.0  0.54022  0.92812  0.00643  1.0000
  H   H412      1.0  0.59984  0.59107  0.00035  1.0000
  C   C336      1.0  0.48763  0.86785  0.91724  1.0000
  C   C337      1.0  0.67775  0.78678  0.90899  1.0000
  H   H413      1.0  0.73939  0.66676  0.82875  1.0000
  H   H414      1.0  0.73031  0.84054  0.84894  1.0000
  C   C338      1.0  0.81872  0.64116  0.00219  1.0000
  C   C339      1.0  0.73153  0.92534  0.99777  1.0000
  C   C340      1.0  0.64390  0.50884  0.88159  1.0000
  H   H415      1.0  0.79577  0.63277  0.87019  1.0000
  C   C341      1.0  0.65679  0.86138  0.99342  1.0000
  N   N23       1.0  0.72563  0.80151  0.90456  1.0000
  C   C342      1.0  0.74616  0.81147  0.94794  1.0000
  C   C343      1.0  0.74684  0.84417  0.88040  1.0000
  C   C344      1.0  0.73032  0.76524  0.88343  1.0000
  C   C345      1.0  0.74588  0.76824  0.84061  1.0000
  C   C346      1.0  0.71762  0.72461  0.90522  1.0000
  C   C347      1.0  0.74908  0.73295  0.82145  1.0000
  C   C348      1.0  0.72120  0.68968  0.88585  1.0000
  C   C349      1.0  0.73684  0.69385  0.84400  1.0000
  H   H416      1.0  0.72649  0.78452  0.97116  1.0000
  H   H417      1.0  0.74855  0.84230  0.96242  1.0000
  H   H418      1.0  0.78023  0.81592  0.94699  1.0000
  C   C350      1.0  0.67335  0.55877  0.82154  1.0000
  H   H419      1.0  0.77682  0.61489  0.92337  1.0000
  H   H420      1.0  0.79887  0.58021  0.81720  1.0000
  C   C351      1.0  0.64300  0.88827  0.97239  1.0000
  N   N24       1.0  0.77072  0.56242  0.88116  1.0000
  S   S93       1.0  0.84034  0.60430  0.99986  1.0000
  S   S94       1.0  0.96663  0.63337  0.00047  1.0000
  C   C352      1.0  0.79481  0.55745  0.84388  1.0000
  C   C353      1.0  0.82434  0.71291  0.98735  1.0000
  H   H421      1.0  0.49495  0.85732  0.88687  1.0000
  H   H422      1.0  0.76011  0.54072  0.94711  1.0000
  H   H423      1.0  0.80831  0.54442  0.92365  1.0000
  C   C354      1.0  0.68692  0.51926  0.89336  1.0000
  S   S95       1.0  0.76572  0.73908  0.01393  1.0000
  C   C355      1.0  0.77329  0.53513  0.91643  1.0000
  C   C356      1.0  0.72461  0.54960  0.86902  1.0000
  H   H424      1.0  0.76588  0.93946  0.00744  1.0000
  C   C357      1.0  0.51318  0.90758  0.98457  1.0000
  H   H425      1.0  0.60879  0.87382  0.96219  1.0000
  H   H426      1.0  0.68967  0.50321  0.92179  1.0000
  H   H427      1.0  0.96712  0.63339  0.69219  1.0000
  Fe  Fe48      1.0  0.97436  0.59551  0.94485  1.0000
  C   C358      1.0  0.78361  0.69947  0.00770  1.0000
  H   H428      1.0  0.96959  0.56661  0.71605  1.0000
  H   H429      1.0  0.75516  0.49877  0.90818  1.0000
  C   C359      1.0  0.63713  0.52845  0.84573  1.0000
  H   H430      1.0  0.66815  0.57419  0.79364  1.0000
  S   S96       1.0  0.61854  0.80394  0.00108  1.0000
  H   H431      1.0  0.49096  0.59146  0.97957  1.0000
  C   C360      1.0  0.49407  0.54934  0.93166  1.0000
  H   H432      1.0  0.49108  0.49945  0.88741  1.0000
