data_image0
_chemical_formula_structural       FeS2FeSFeSHS2FeS2FeHFeSHSHSC2SCHC6H4C2HC2HC6H4C6H3C2HCNSH4CH2CH3C2HC2H2CH5C3SH4CSCH2SH2C2NC2HCHCNC8H13FeHNH3SHC2H4CHCFeHFeCHC3H2C2HCSHC2HCHNH2FeS2FeSHSHS2FeS2FeHFeSHSC3HCHCHC6H4C2HC8H4C6H2FeCHSC3H2CH2CHC2NCSC3S2CFeHCH3FeH2SHCHCSC2SHNH5CH3CSC2H2CH6CHFeH2CHC2NCHCH2NC2H2SH5C2H5S2FeSH2FeS2FeS2FeSFeS3CS2CHFeSHSC6H4C6H4C6H4C2H9CHNC8H10SCNH3C4H3C4H2FeH5NHCHCH2C3HCH3CH2CH2FeHCH2C2H4CH4FeSH2NCHC2HC2H2CH2S3H2FeS2FeS2FeSFeS3HS2H2FeSHSC6H4C6H4C6H11C3SH2NC9HCNH4C2HNCHCH3CHC2HC4H2NHFe2H2C3H2CH2C2HCHC3H12CHFeCH4C2HSC2H3C3HCH3CNHSC3S2FeS2FeSFeCSHFeS2FeS2FeSFeS3FeS2FeS2FeSFeS3CS2HCHFeCH2CHC7H7C6H4C6H4C6H4C6H6C2H2CHCNC4H4CH3C3NC6H7CH2NC9H7CH6C2H2CH6CH2NCHCH3CH5CH2C2H2SH5CH2CHCH2CH6NH6C2H2C5HFeS2C4H6C2H2C2H2CHCHFeH2SCH2S2FeS2FeSFeCSHFeS2FeS2FeSFeS3FeS2FeS2FeSFeS3NSH4C3H2C8H4CH2C6H4C6H4C6H4C6H6FeC3HC2NC6H16SHC2H5CHSHCH3NC9H7CH6C4H2CHC5HCHC2HC2SCH2CSC2FeCNH3C4H2CHNCH2CH4CH2FeCNHCH5CHC2HC2H6CH2C2HCHCHCH2CSHSFeSFeS2H2C3H2CH4C3SHCHC2H2CFeCHNC2HNCH2C5H3CH3C2HC2H2C2HSCHC2HC2HC2HCHC3H2CHCSHCHCH3C2HFeCHCH3CHCH2CNCH2NH2SHSFeSFeSC5H3CH2CHCHNSHCH6C4HC2FeC4HCHC2HCH4CHCSFeHCH2CHC2HSCH3CH2CHCH3CH2CHFeHCH3CHCNCS3HC7H6C2SC4H2CSH2CH2CH2CHC2H3C2H8CH2SCH2C2NFeH3CSCHC2HCSH2CHC5HCSNHC2HC2HSCH5SC2H2C6H2FeH2CH5NHC2H2CH7C2H2NH3SH2C2HCNHC2FeS2FeS2FeHFeS3FeS3HFeS2FeS2FeSFeS3FeS2FeCHFeSHS3FeSFeCS2FeCHC6H4C6H4C6H4CHC2HC5H5C3HC2HCH2C6H6CFeH2CHCH2C2NSHCH2CHCHCH2NCNC9H13C4H3NC2NCNH2NC4H12CH2SHCH3C2H3SHCH3CHC2H4NCHC2SCH2CHCHCH3CHCH3C5HNC2HCHCH3C2HCH2C5HSCHCHFeH2C2H9C3H2CH2CFeS2FeS2FeCFeS3FeHSCSFeS2FeS2FeSFeS3FeS2FeCHFeSCS3FeSFeS3HC8H4C6H4C6H4CHC2H2C3H2CH2C4HC2H4C6H4C2HC2NC6HCH12SH2CH2FeC2H3NC2H7NC2NHC2HC2H3C4H2CH4CH5CHN2C9H13C2H3CHCHCH2CH2CNHCHCHC2H2SH2CHCHCNHCH2CSH2CH2CH2CH2C2H2C2HC2HCHC2H2SCSCSHC2H2CH3CHC2Fe2CHC2HS2FeSFeSFeS2FeS2FeSFeS3CH3SFeSHSC6H4C6H4C6H4CHC2H3C2HC3HSNH3CHCH2CH6SFe2HC4NH3CH2CH9CHCHCH3C6H3C2H2C2NC2H3C2HCHCHCHCH4C2HNHCHCH4C2HCHCH2C5H2SH2SHSCSFeSFeS2FeS2FeSFeS3H2CS2FeSHSC6H4C6H4C6H4C3NFeHC2H2C2H3CH2C2NH2CHCH4CNC8H11CHNC6HCFeH9CHCH2CFeCH4CH2CH2SH2CH2CH8CH2FeS2HS2FeHFeSHSFeS2FeSHSFeSH2CSHCHC8H3C6H4C6H4CHCH6CH6CHSH3CH5CHNHSC4HCH2NCHFeH3FeSC2HCH2NHCHCHS2H2CH2C2H3C2HFeC5HCH5NC7HCH4CHC4HSC2H3FeS2HS2FeHFeSHSFeS2FeSHSFeSFeHS2C2H3C5H3FeC6H4C6H4C2H3CHCH4NC2H5CHSH4SHCH4NC8H13CHNC10H2FeHCH2CSCH4C
_chemical_formula_sum              "Fe144 S288 H1296 C1080 N72"
_cell_length_a       65.7576
_cell_length_b       65.1643
_cell_length_c       40.9018
_cell_angle_alpha    90.6877
_cell_angle_beta     89.2118
_cell_angle_gamma    117.308

_space_group_name_H-M_alt    "P 1"
_space_group_IT_number       1

loop_
  _space_group_symop_operation_xyz
  'x, y, z'

loop_
  _atom_site_type_symbol
  _atom_site_label
  _atom_site_symmetry_multiplicity
  _atom_site_fract_x
  _atom_site_fract_y
  _atom_site_fract_z
  _atom_site_occupancy
  Fe  Fe1       1.0  0.18715  0.31100  0.32246  1.0000
  S   S1        1.0  0.16710  0.27596  0.29960  1.0000
  S   S2        1.0  0.17621  0.32421  0.36826  1.0000
  Fe  Fe2       1.0  0.17921  0.29465  0.25143  1.0000
  S   S3        1.0  0.15458  0.28144  0.20801  1.0000
  Fe  Fe3       1.0  0.20033  0.27377  0.29980  1.0000
  S   S4        1.0  0.19806  0.33022  0.27435  1.0000
  H   H1        1.0  0.98431  0.25482  0.11034  1.0000
  S   S5        1.0  0.08817  0.32490  0.02266  1.0000
  S   S6        1.0  0.08624  0.27845  0.45886  1.0000
  Fe  Fe4       1.0  0.03883  0.26804  0.05881  1.0000
  S   S7        1.0  0.04744  0.30320  0.07860  1.0000
  S   S8        1.0  0.01276  0.23393  0.08085  1.0000
  Fe  Fe5       1.0  0.05023  0.31386  0.02578  1.0000
  H   H2        1.0  0.13255  0.28183  0.36148  1.0000
  Fe  Fe6       1.0  0.08422  0.31019  0.07366  1.0000
  S   S9        1.0  0.11007  0.32764  0.11430  1.0000
  H   H3        1.0  0.09799  0.26462  0.39745  1.0000
  S   S10       1.0  0.07557  0.27441  0.05676  1.0000
  H   H4        1.0  0.20644  0.23645  0.47636  1.0000
  S   S11       1.0  0.00273  0.36793  0.38732  1.0000
  C   C1        1.0  0.04067  0.38667  0.03714  1.0000
  C   C2        1.0  0.13143  0.27469  0.03973  1.0000
  S   S12       1.0  0.98955  0.42476  0.38655  1.0000
  C   C3        1.0  0.97148  0.36779  0.48311  1.0000
  H   H5        1.0  0.99345  0.44623  0.01035  1.0000
  C   C4        1.0  0.17573  0.26678  0.38724  1.0000
  C   C5        1.0  0.03600  0.34740  0.45170  1.0000
  C   C6        1.0  0.02236  0.34816  0.42605  1.0000
  C   C7        1.0  0.01953  0.36796  0.42074  1.0000
  C   C8        1.0  0.03082  0.38723  0.44111  1.0000
  C   C9        1.0  0.04492  0.38663  0.46641  1.0000
  H   H6        1.0  0.03761  0.33186  0.45565  1.0000
  H   H7        1.0  0.01379  0.33325  0.41026  1.0000
  H   H8        1.0  0.02903  0.40269  0.43696  1.0000
  H   H9        1.0  0.07115  0.32902  0.41690  1.0000
  C   C10       1.0  0.98651  0.22302  0.10340  1.0000
  C   C11       1.0  0.97439  0.45689  0.26739  1.0000
  H   H10       1.0  0.08705  0.37817  0.43487  1.0000
  C   C12       1.0  0.98742  0.21570  0.19672  1.0000
  C   C13       1.0  0.04748  0.36668  0.47190  1.0000
  H   H11       1.0  0.18486  0.27720  0.40894  1.0000
  C   C14       1.0  0.14262  0.29487  0.18226  1.0000
  C   C15       1.0  0.14704  0.31788  0.18642  1.0000
  C   C16       1.0  0.13697  0.32762  0.16540  1.0000
  C   C17       1.0  0.12235  0.31454  0.14005  1.0000
  C   C18       1.0  0.11797  0.29154  0.13582  1.0000
  C   C19       1.0  0.12804  0.28180  0.15680  1.0000
  H   H12       1.0  0.15823  0.32818  0.20581  1.0000
  H   H13       1.0  0.14054  0.34545  0.16886  1.0000
  H   H14       1.0  0.10686  0.28126  0.11643  1.0000
  H   H15       1.0  0.12454  0.26400  0.15334  1.0000
  C   C20       1.0  0.15107  0.31096  0.39317  1.0000
  C   C21       1.0  0.14996  0.32184  0.42261  1.0000
  C   C22       1.0  0.13036  0.31212  0.44304  1.0000
  C   C23       1.0  0.11148  0.29143  0.43414  1.0000
  C   C24       1.0  0.11255  0.28056  0.40466  1.0000
  C   C25       1.0  0.13219  0.29022  0.38429  1.0000
  H   H16       1.0  0.16443  0.33789  0.42972  1.0000
  H   H17       1.0  0.12996  0.32048  0.46585  1.0000
  H   H18       1.0  0.00249  0.46805  0.23295  1.0000
  C   C26       1.0  0.09575  0.37442  0.41378  1.0000
  C   C27       1.0  0.20738  0.98783  0.04682  1.0000
  H   H19       1.0  0.07731  0.34007  0.45747  1.0000
  C   C28       1.0  0.14019  0.34754  0.33984  1.0000
  N   N1        1.0  0.15996  0.24246  0.39541  1.0000
  S   S13       1.0  0.02744  0.32969  0.01026  1.0000
  H   H20       1.0  0.00761  0.36611  0.05856  1.0000
  H   H21       1.0  0.16652  0.27568  0.37641  1.0000
  H   H22       1.0  0.14428  0.38947  0.39268  1.0000
  H   H23       1.0  0.12203  0.27241  0.06333  1.0000
  C   C29       1.0  0.97628  0.23651  0.11532  1.0000
  H   H24       1.0  0.15046  0.25328  0.44105  1.0000
  H   H25       1.0  0.13546  0.21247  0.36938  1.0000
  C   C30       1.0  0.02079  0.41260  0.00839  1.0000
  H   H26       1.0  0.98566  0.46414  0.45225  1.0000
  H   H27       1.0  0.12677  0.31100  0.05804  1.0000
  H   H28       1.0  0.07120  0.40879  0.01074  1.0000
  C   C31       1.0  0.11654  0.35416  0.39431  1.0000
  C   C32       1.0  0.97601  0.46513  0.47333  1.0000
  H   H29       1.0  0.12571  0.30956  0.01404  1.0000
  C   C33       1.0  0.08512  0.33670  0.43512  1.0000
  C   C34       1.0  0.14877  0.36901  0.35524  1.0000
  H   H30       1.0  0.11193  0.37003  0.47303  1.0000
  H   H31       1.0  0.18425  0.33951  0.01251  1.0000
  C   C35       1.0  0.12080  0.36826  0.45051  1.0000
  H   H32       1.0  0.13116  0.24845  0.40869  1.0000
  H   H33       1.0  0.16479  0.38297  0.34674  1.0000
  H   H34       1.0  0.17476  0.29552  0.06320  1.0000
  H   H35       1.0  0.12903  0.35722  0.45669  1.0000
  H   H36       1.0  0.18428  0.25405  0.45260  1.0000
  C   C36       1.0  0.01784  0.38094  0.04343  1.0000
  C   C37       1.0  0.14767  0.23093  0.36502  1.0000
  C   C38       1.0  0.11973  0.32948  0.35072  1.0000
  S   S14       1.0  0.20498  0.24222  0.31202  1.0000
  H   H37       1.0  0.13456  0.38588  0.44528  1.0000
  H   H38       1.0  0.10955  0.39130  0.40546  1.0000
  H   H39       1.0  0.13760  0.23932  0.35528  1.0000
  H   H40       1.0  0.97535  0.19756  0.19402  1.0000
  C   C39       1.0  0.14262  0.24203  0.41943  1.0000
  S   S15       1.0  0.98740  0.44542  0.29466  1.0000
  C   C40       1.0  0.99550  0.25393  0.21509  1.0000
  H   H41       1.0  0.09270  0.31755  0.38532  1.0000
  H   H42       1.0  0.14934  0.33236  0.03462  1.0000
  S   S16       1.0  0.21060  0.28896  0.24971  1.0000
  H   H43       1.0  0.11332  0.31271  0.33893  1.0000
  H   H44       1.0  0.01463  0.44622  0.03755  1.0000
  C   C41       1.0  0.16233  0.30269  0.00409  1.0000
  C   C42       1.0  0.00087  0.43533  0.02025  1.0000
  N   N2        1.0  0.10468  0.35813  0.42290  1.0000
  C   C43       1.0  0.98604  0.46740  0.23832  1.0000
  C   C44       1.0  0.16479  0.30547  0.06336  1.0000
  H   H45       1.0  0.14966  0.34475  0.31983  1.0000
  C   C45       1.0  0.13704  0.37243  0.38183  1.0000
  H   H46       1.0  0.08307  0.36723  0.39369  1.0000
  C   C46       1.0  0.00799  0.39369  0.02939  1.0000
  N   N3        1.0  0.04887  0.25788  0.17190  1.0000
  C   C47       1.0  0.05187  0.27591  0.14783  1.0000
  C   C48       1.0  0.06601  0.26852  0.19815  1.0000
  C   C49       1.0  0.05397  0.24053  0.15467  1.0000
  C   C50       1.0  0.02545  0.24805  0.18604  1.0000
  C   C51       1.0  0.01778  0.26260  0.20249  1.0000
  C   C52       1.0  0.00953  0.22422  0.18357  1.0000
  C   C53       1.0  0.98033  0.23053  0.21208  1.0000
  C   C54       1.0  0.20023  0.98937  0.07853  1.0000
  H   H47       1.0  0.05384  0.40170  0.48179  1.0000
  H   H48       1.0  0.05117  0.29113  0.15922  1.0000
  H   H49       1.0  0.06871  0.28275  0.13496  1.0000
  H   H50       1.0  0.03822  0.26879  0.12904  1.0000
  H   H51       1.0  0.06389  0.25565  0.21727  1.0000
  H   H52       1.0  0.06474  0.28321  0.21038  1.0000
  H   H53       1.0  0.08387  0.27562  0.18844  1.0000
  H   H54       1.0  0.07165  0.24847  0.14424  1.0000
  H   H55       1.0  0.05272  0.22670  0.17149  1.0000
  H   H56       1.0  0.04219  0.23251  0.13369  1.0000
  H   H57       1.0  0.02887  0.28091  0.20520  1.0000
  H   H58       1.0  0.01346  0.21183  0.17089  1.0000
  H   H59       1.0  0.16812  0.20617  0.37046  1.0000
  Fe  Fe7       1.0  0.97194  0.42058  0.33772  1.0000
  H   H60       1.0  0.20388  0.01018  0.12017  1.0000
  N   N4        1.0  0.14912  0.29899  0.03502  1.0000
  H   H61       1.0  0.09065  0.32354  0.44191  1.0000
  H   H62       1.0  0.18880  0.26771  0.36904  1.0000
  H   H63       1.0  0.13918  0.26268  0.04010  1.0000
  S   S17       1.0  0.03978  0.27806  0.00621  1.0000
  H   H64       1.0  0.98350  0.18874  0.10122  1.0000
  C   C55       1.0  0.10804  0.33255  0.37764  1.0000
  C   C56       1.0  0.97663  0.47707  0.21610  1.0000
  H   H65       1.0  0.15528  0.30211  0.08710  1.0000
  H   H66       1.0  0.17720  0.32413  0.06365  1.0000
  H   H67       1.0  0.15983  0.23194  0.34506  1.0000
  H   H68       1.0  0.04803  0.37630  0.04733  1.0000
  C   C57       1.0  0.13727  0.31362  0.03541  1.0000
  H   H69       1.0  0.11828  0.26905  0.02015  1.0000
  C   C58       1.0  0.18805  0.20310  0.40827  1.0000
  Fe  Fe8       1.0  0.07751  0.28837  0.00605  1.0000
  H   H70       1.0  0.99013  0.38835  0.03463  1.0000
  Fe  Fe9       1.0  0.98190  0.38744  0.38040  1.0000
  C   C59       1.0  0.17317  0.23150  0.40962  1.0000
  H   H71       1.0  0.98687  0.42161  0.03458  1.0000
  C   C60       1.0  0.18470  0.23966  0.43977  1.0000
  C   C61       1.0  0.97590  0.19938  0.11021  1.0000
  C   C62       1.0  0.17542  0.21299  0.39405  1.0000
  H   H72       1.0  0.13164  0.22419  0.42837  1.0000
  H   H73       1.0  0.98983  0.26544  0.22685  1.0000
  C   C63       1.0  0.05367  0.40497  0.01646  1.0000
  C   C64       1.0  0.18009  0.32496  0.99626  1.0000
  H   H74       1.0  0.20812  0.04812  0.12766  1.0000
  C   C65       1.0  0.19897  0.21140  0.43800  1.0000
  S   S18       1.0  0.21953  0.30741  0.32564  1.0000
  H   H75       1.0  0.97902  0.37904  0.46225  1.0000
  C   C66       1.0  0.19738  0.22970  0.45366  1.0000
  C   C67       1.0  0.20967  0.01052  0.09525  1.0000
  H   H76       1.0  0.21749  0.06616  0.07026  1.0000
  C   C68       1.0  0.04397  0.41774  0.00204  1.0000
  H   H77       1.0  0.99824  0.35826  0.48480  1.0000
  N   N5        1.0  0.00990  0.42581  0.99388  1.0000
  H   H78       1.0  0.20937  0.20417  0.44836  1.0000
  H   H79       1.0  0.19005  0.18940  0.39564  1.0000
  Fe  Fe10      1.0  0.18817  0.31371  0.82224  1.0000
  S   S19       1.0  0.16713  0.27803  0.80152  1.0000
  S   S20       1.0  0.17603  0.32980  0.86346  1.0000
  Fe  Fe11      1.0  0.18026  0.29500  0.75255  1.0000
  S   S21       1.0  0.15977  0.28337  0.70510  1.0000
  H   H80       1.0  0.09310  0.30825  0.89217  1.0000
  S   S22       1.0  0.20004  0.33111  0.77280  1.0000
  H   H81       1.0  0.12645  0.32591  0.95706  1.0000
  S   S23       1.0  0.09821  0.32935  0.52336  1.0000
  S   S24       1.0  0.09326  0.27668  0.96423  1.0000
  Fe  Fe12      1.0  0.03540  0.28614  0.55000  1.0000
  S   S25       1.0  0.05548  0.32131  0.57231  1.0000
  S   S26       1.0  0.99649  0.26876  0.55866  1.0000
  Fe  Fe13      1.0  0.06628  0.33388  0.52111  1.0000
  H   H82       1.0  0.14200  0.28115  0.86963  1.0000
  Fe  Fe14      1.0  0.08541  0.31321  0.57294  1.0000
  S   S27       1.0  0.10860  0.32632  0.61785  1.0000
  H   H83       1.0  0.11026  0.26119  0.90946  1.0000
  S   S28       1.0  0.06467  0.27692  0.55327  1.0000
  C   C69       1.0  0.98180  0.45037  0.59188  1.0000
  C   C70       1.0  0.97954  0.42606  0.53280  1.0000
  C   C71       1.0  0.01708  0.33791  0.87289  1.0000
  H   H84       1.0  0.15824  0.34583  0.91715  1.0000
  C   C72       1.0  0.05000  0.28551  0.90886  1.0000
  H   H85       1.0  0.99112  0.47826  0.84045  1.0000
  C   C73       1.0  0.08249  0.31638  0.88352  1.0000
  H   H86       1.0  0.19693  0.31442  0.92155  1.0000
  C   C74       1.0  0.04870  0.36285  0.96196  1.0000
  C   C75       1.0  0.04862  0.37850  0.93845  1.0000
  C   C76       1.0  0.02823  0.37934  0.93066  1.0000
  C   C77       1.0  0.00790  0.36423  0.94639  1.0000
  C   C78       1.0  0.04690  0.32000  0.89337  1.0000
  C   C79       1.0  0.97451  0.45745  0.76487  1.0000
  H   H87       1.0  0.06444  0.39014  0.92644  1.0000
  H   H88       1.0  0.99203  0.36435  0.94046  1.0000
  H   H89       1.0  0.18290  0.30028  0.64370  1.0000
  H   H90       1.0  0.00702  0.30562  0.71861  1.0000
  C   C80       1.0  0.98663  0.24237  0.61530  1.0000
  C   C81       1.0  0.00755  0.33490  0.74226  1.0000
  H   H91       1.0  0.00397  0.24457  0.61385  1.0000
  C   C82       1.0  0.13862  0.29100  0.88849  1.0000
  C   C83       1.0  0.99896  0.45996  0.56712  1.0000
  C   C84       1.0  0.14487  0.29526  0.68213  1.0000
  C   C85       1.0  0.14569  0.31659  0.68991  1.0000
  C   C86       1.0  0.13448  0.32574  0.66997  1.0000
  C   C87       1.0  0.12219  0.31370  0.64214  1.0000
  C   C88       1.0  0.12139  0.29237  0.63437  1.0000
  C   C89       1.0  0.13272  0.28328  0.65419  1.0000
  H   H92       1.0  0.15490  0.32603  0.71129  1.0000
  H   H93       1.0  0.13521  0.34224  0.67625  1.0000
  H   H94       1.0  0.11205  0.28288  0.61310  1.0000
  H   H95       1.0  0.13198  0.26679  0.64786  1.0000
  C   C90       1.0  0.15239  0.31489  0.89052  1.0000
  C   C91       1.0  0.14766  0.32735  0.91530  1.0000
  C   C92       1.0  0.12965  0.31607  0.93806  1.0000
  C   C93       1.0  0.11610  0.29210  0.93623  1.0000
  C   C94       1.0  0.12063  0.27972  0.91121  1.0000
  C   C95       1.0  0.99646  0.31198  0.73114  1.0000
  H   H96       1.0  0.20517  0.30118  0.61713  1.0000
  H   H97       1.0  0.98288  0.30391  0.57325  1.0000
  Fe  Fe15      1.0  0.99636  0.39929  0.88226  1.0000
  C   C96       1.0  0.99069  0.41028  0.97287  1.0000
  H   H98       1.0  0.01069  0.45569  0.51922  1.0000
  S   S29       1.0  0.02888  0.39988  0.90197  1.0000
  C   C97       1.0  0.17057  0.28901  0.95170  1.0000
  C   C98       1.0  0.99778  0.44782  0.53818  1.0000
  C   C99       1.0  0.01067  0.32223  0.89850  1.0000
  H   H99       1.0  0.00395  0.36227  0.76760  1.0000
  H   H100      1.0  0.16653  0.27527  0.93383  1.0000
  C   C100      1.0  0.02543  0.31364  0.90899  1.0000
  H   H101      1.0  0.97702  0.39584  0.98663  1.0000
  H   H102      1.0  0.06921  0.34258  0.85465  1.0000
  C   C101      1.0  0.21976  0.24068  0.85064  1.0000
  H   H103      1.0  0.99192  0.47930  0.88432  1.0000
  C   C102      1.0  0.07118  0.32146  0.93785  1.0000
  C   C103      1.0  0.98150  0.44868  0.65124  1.0000
  N   N6        1.0  0.98504  0.32801  0.53592  1.0000
  C   C104      1.0  0.98554  0.48149  0.98144  1.0000
  S   S30       1.0  0.20308  0.24239  0.81802  1.0000
  C   C105      1.0  0.18777  0.31109  0.94473  1.0000
  C   C106      1.0  0.03822  0.34492  0.85746  1.0000
  C   C107      1.0  0.97900  0.25266  0.59191  1.0000
  S   S31       1.0  0.21993  0.30914  0.82837  1.0000
  S   S32       1.0  0.99151  0.43130  0.88051  1.0000
  C   C108      1.0  0.97301  0.34062  0.52302  1.0000
  Fe  Fe16      1.0  0.97641  0.41915  0.83042  1.0000
  H   H104      1.0  0.06455  0.36277  0.96837  1.0000
  C   C109      1.0  0.97533  0.26477  0.71045  1.0000
  H   H105      1.0  0.03686  0.27990  0.92867  1.0000
  H   H106      1.0  0.01785  0.33583  0.55680  1.0000
  H   H107      1.0  0.08268  0.31493  0.94814  1.0000
  Fe  Fe17      1.0  0.19970  0.27461  0.80478  1.0000
  H   H108      1.0  0.05708  0.31757  0.95590  1.0000
  H   H109      1.0  0.20424  0.29402  0.65976  1.0000
  S   S33       1.0  0.04508  0.29934  0.49848  1.0000
  H   H110      1.0  0.00750  0.35650  0.56620  1.0000
  C   C110      1.0  0.98240  0.35578  0.49618  1.0000
  H   H111      1.0  0.07701  0.30979  0.85826  1.0000
  C   C111      1.0  0.20635  0.34343  0.63098  1.0000
  S   S34       1.0  0.98914  0.44655  0.79014  1.0000
  C   C112      1.0  0.02839  0.34814  0.97817  1.0000
  C   C113      1.0  0.97255  0.29804  0.73637  1.0000
  S   S35       1.0  0.06544  0.36662  0.50381  1.0000
  H   H112      1.0  0.19503  0.33001  0.69150  1.0000
  N   N7        1.0  0.06245  0.31104  0.90541  1.0000
  H   H113      1.0  0.98935  0.26643  0.72692  1.0000
  H   H114      1.0  0.01907  0.35569  0.52668  1.0000
  H   H115      1.0  0.06171  0.27814  0.91549  1.0000
  H   H116      1.0  0.99591  0.44417  0.65027  1.0000
  H   H117      1.0  0.09430  0.33524  0.88260  1.0000
  C   C114      1.0  0.21308  0.33440  0.68508  1.0000
  H   H118      1.0  0.04336  0.35767  0.83820  1.0000
  H   H119      1.0  0.08100  0.34060  0.93627  1.0000
  H   H120      1.0  0.97831  0.41716  0.50976  1.0000
  C   C115      1.0  0.00828  0.34472  0.54689  1.0000
  S   S36       1.0  0.98500  0.38927  0.83034  1.0000
  C   C116      1.0  0.97153  0.22846  0.63993  1.0000
  C   C117      1.0  0.05298  0.33613  0.86736  1.0000
  H   H121      1.0  0.98282  0.27382  0.68704  1.0000
  H   H122      1.0  0.20748  0.34091  0.60418  1.0000
  C   C118      1.0  0.98727  0.31317  0.50976  1.0000
  H   H123      1.0  0.98272  0.45797  0.67476  1.0000
  H   H124      1.0  0.02014  0.30259  0.93020  1.0000
  H   H125      1.0  0.98453  0.46109  0.93873  1.0000
  H   H126      1.0  0.21672  0.20774  0.83461  1.0000
  H   H127      1.0  0.04142  0.27709  0.88566  1.0000
  H   H128      1.0  0.00595  0.34523  0.86574  1.0000
  C   C119      1.0  0.00806  0.34897  0.97026  1.0000
  H   H129      1.0  0.98230  0.41963  0.96092  1.0000
  Fe  Fe18      1.0  0.07625  0.29373  0.50348  1.0000
  H   H130      1.0  0.99692  0.40261  0.95316  1.0000
  H   H131      1.0  0.01315  0.47707  0.56901  1.0000
  C   C120      1.0  0.02574  0.44542  0.97326  1.0000
  H   H132      1.0  0.99454  0.31744  0.91118  1.0000
  C   C121      1.0  0.20154  0.30546  0.64225  1.0000
  C   C122      1.0  0.97550  0.46211  0.96044  1.0000
  N   N8        1.0  0.98219  0.46281  0.62263  1.0000
  C   C123      1.0  0.99530  0.34459  0.75873  1.0000
  H   H133      1.0  0.14428  0.26743  0.98387  1.0000
  C   C124      1.0  0.98740  0.47636  0.74440  1.0000
  H   H134      1.0  0.99643  0.30354  0.51842  1.0000
  H   H135      1.0  0.97142  0.32298  0.58514  1.0000
  N   N9        1.0  0.21571  0.33036  0.64987  1.0000
  C   C125      1.0  0.97185  0.33153  0.76375  1.0000
  C   C126      1.0  0.15786  0.28477  0.98076  1.0000
  H   H136      1.0  0.97747  0.22009  0.65738  1.0000
  H   H137      1.0  0.02581  0.34520  0.73818  1.0000
  S   S37       1.0  0.21075  0.28801  0.75393  1.0000
  H   H138      1.0  0.01710  0.45514  0.96311  1.0000
  H   H139      1.0  0.03212  0.43925  0.95175  1.0000
  H   H140      1.0  0.18786  0.33759  0.63683  1.0000
  H   H141      1.0  0.21529  0.36221  0.63688  1.0000
  H   H142      1.0  0.20558  0.34628  0.96099  1.0000
  C   C127      1.0  0.19251  0.32903  0.96694  1.0000
  C   C128      1.0  0.97317  0.31289  0.56413  1.0000
  H   H143      1.0  0.99230  0.33775  0.98279  1.0000
  H   H144      1.0  0.21784  0.32368  0.70110  1.0000
  H   H145      1.0  0.05486  0.43118  0.98548  1.0000
  H   H146      1.0  0.04058  0.45803  0.98756  1.0000
  H   H147      1.0  0.99720  0.32323  0.48834  1.0000
  S   S38       1.0  0.21493  0.88952  0.99659  1.0000
  S   S39       1.0  0.99236  0.52499  0.12940  1.0000
  Fe  Fe19      1.0  0.99362  0.56021  0.13092  1.0000
  S   S40       1.0  0.02464  0.59411  0.14448  1.0000
  H   H148      1.0  0.02050  0.62997  0.11000  1.0000
  H   H149      1.0  0.02468  0.60211  0.30951  1.0000
  Fe  Fe20      1.0  0.03284  0.73344  0.29489  1.0000
  S   S41       1.0  0.04833  0.71340  0.31934  1.0000
  S   S42       1.0  0.99607  0.72730  0.30354  1.0000
  Fe  Fe21      1.0  0.07238  0.75322  0.24343  1.0000
  S   S43       1.0  0.08921  0.73298  0.26418  1.0000
  S   S44       1.0  0.08496  0.77919  0.20117  1.0000
  Fe  Fe22      1.0  0.05345  0.70310  0.26818  1.0000
  S   S45       1.0  0.03615  0.66375  0.26169  1.0000
  Fe  Fe23      1.0  0.08230  0.74524  0.31329  1.0000
  S   S46       1.0  0.11165  0.75818  0.35049  1.0000
  S   S47       1.0  0.03732  0.72259  0.24401  1.0000
  S   S48       1.0  0.06638  0.76626  0.29229  1.0000
  C   C129      1.0  0.97393  0.48334  0.00964  1.0000
  S   S49       1.0  0.19657  0.83653  0.02287  1.0000
  S   S50       1.0  0.15255  0.84055  0.45601  1.0000
  C   C130      1.0  0.97853  0.71720  0.33902  1.0000
  H   H150      1.0  0.14514  0.79131  0.27866  1.0000
  Fe  Fe24      1.0  0.18892  0.84901  0.07105  1.0000
  S   S51       1.0  0.17576  0.82241  0.11242  1.0000
  H   H151      1.0  0.99651  0.68261  0.43057  1.0000
  S   S52       1.0  0.17239  0.86916  0.04899  1.0000
  C   C131      1.0  0.10968  0.79001  0.17534  1.0000
  C   C132      1.0  0.11423  0.80903  0.15515  1.0000
  C   C133      1.0  0.13419  0.81904  0.13546  1.0000
  C   C134      1.0  0.14986  0.81008  0.13567  1.0000
  C   C135      1.0  0.14515  0.79084  0.15546  1.0000
  C   C136      1.0  0.12516  0.78079  0.17507  1.0000
  H   H152      1.0  0.10238  0.81631  0.15513  1.0000
  H   H153      1.0  0.13757  0.83388  0.12053  1.0000
  H   H154      1.0  0.15714  0.78374  0.15580  1.0000
  H   H155      1.0  0.12186  0.76606  0.19021  1.0000
  C   C137      1.0  0.12154  0.78024  0.38124  1.0000
  C   C138      1.0  0.13929  0.78226  0.40204  1.0000
  C   C139      1.0  0.14844  0.80006  0.42579  1.0000
  C   C140      1.0  0.14045  0.81656  0.42841  1.0000
  C   C141      1.0  0.12251  0.81436  0.40790  1.0000
  C   C142      1.0  0.11286  0.79614  0.38486  1.0000
  H   H156      1.0  0.14582  0.76979  0.39993  1.0000
  H   H157      1.0  0.16157  0.80098  0.44215  1.0000
  H   H158      1.0  0.11590  0.82678  0.41001  1.0000
  H   H159      1.0  0.09880  0.79451  0.36981  1.0000
  C   C143      1.0  0.02588  0.61437  0.17495  1.0000
  C   C144      1.0  0.00923  0.60863  0.19958  1.0000
  C   C145      1.0  0.01213  0.62441  0.22517  1.0000
  C   C146      1.0  0.03130  0.64637  0.22596  1.0000
  C   C147      1.0  0.04731  0.65258  0.20035  1.0000
  C   C148      1.0  0.04472  0.63655  0.17521  1.0000
  H   H160      1.0  0.99453  0.59178  0.19968  1.0000
  H   H161      1.0  0.99976  0.61934  0.24499  1.0000
  H   H162      1.0  0.06230  0.66925  0.20087  1.0000
  H   H163      1.0  0.05774  0.64118  0.15634  1.0000
  C   C149      1.0  0.00951  0.62918  0.08909  1.0000
  C   C150      1.0  0.97169  0.65081  0.06450  1.0000
  H   H164      1.0  0.20043  0.97121  0.03442  1.0000
  H   H165      1.0  0.20156  0.93123  0.11571  1.0000
  H   H166      1.0  0.11545  0.78364  0.28282  1.0000
  H   H167      1.0  0.02594  0.53038  0.18773  1.0000
  H   H168      1.0  0.14762  0.78391  0.06920  1.0000
  H   H169      1.0  0.20758  0.95801  0.16263  1.0000
  H   H170      1.0  0.02003  0.64357  0.07228  1.0000
  H   H171      1.0  0.99382  0.68635  0.37424  1.0000
  H   H172      1.0  0.99917  0.74690  0.36851  1.0000
  C   C151      1.0  0.02127  0.53279  0.25179  1.0000
  H   H173      1.0  0.21947  0.87195  0.21722  1.0000
  N   N10       1.0  0.13741  0.81994  0.27484  1.0000
  C   C152      1.0  0.13144  0.79527  0.26960  1.0000
  C   C153      1.0  0.13645  0.82366  0.31062  1.0000
  C   C154      1.0  0.11968  0.82471  0.25951  1.0000
  C   C155      1.0  0.16003  0.83459  0.25971  1.0000
  C   C156      1.0  0.17930  0.85021  0.27797  1.0000
  C   C157      1.0  0.16337  0.83317  0.22556  1.0000
  C   C158      1.0  0.20046  0.86356  0.26266  1.0000
  C   C159      1.0  0.18455  0.84648  0.21052  1.0000
  H   H174      1.0  0.01541  0.51543  0.24046  1.0000
  H   H175      1.0  0.12851  0.79011  0.24343  1.0000
  H   H176      1.0  0.14814  0.81879  0.32422  1.0000
  H   H177      1.0  0.14052  0.84183  0.31658  1.0000
  H   H178      1.0  0.11793  0.82077  0.23290  1.0000
  H   H179      1.0  0.10237  0.81390  0.27020  1.0000
  H   H180      1.0  0.12368  0.84317  0.26255  1.0000
  H   H181      1.0  0.17847  0.85241  0.30407  1.0000
  H   H182      1.0  0.14957  0.82165  0.21019  1.0000
  H   H183      1.0  0.12591  0.75283  0.99318  1.0000
  S   S53       1.0  0.98758  0.50818  0.03520  1.0000
  C   C160      1.0  0.98799  0.66508  0.33259  1.0000
  N   N11       1.0  0.02158  0.54994  0.22792  1.0000
  H   H184      1.0  0.98663  0.54265  0.23952  1.0000
  H   H185      1.0  0.19908  0.83331  0.44158  1.0000
  H   H186      1.0  0.12087  0.81672  0.03393  1.0000
  C   C161      1.0  0.03197  0.57326  0.24302  1.0000
  C   C162      1.0  0.02277  0.57735  0.27257  1.0000
  C   C163      1.0  0.05100  0.59249  0.22896  1.0000
  C   C164      1.0  0.03222  0.59920  0.28734  1.0000
  H   H187      1.0  0.98573  0.48494  0.19376  1.0000
  H   H188      1.0  0.09215  0.78384  0.06404  1.0000
  H   H189      1.0  0.18779  0.97388  0.09067  1.0000
  C   C165      1.0  0.98322  0.73113  0.36700  1.0000
  C   C166      1.0  0.13865  0.77610  0.04588  1.0000
  C   C167      1.0  0.10439  0.77652  0.06586  1.0000
  C   C168      1.0  0.05105  0.61756  0.27319  1.0000
  H   H190      1.0  0.03863  0.53812  0.26185  1.0000
  H   H191      1.0  0.11307  0.78246  0.08984  1.0000
  Fe  Fe25      1.0  0.18104  0.85753  0.00069  1.0000
  H   H192      1.0  0.09425  0.75738  0.06693  1.0000
  H   H193      1.0  0.14473  0.81507  0.01504  1.0000
  H   H194      1.0  0.00936  0.53024  0.27267  1.0000
  H   H195      1.0  0.15222  0.78164  0.02658  1.0000
  H   H196      1.0  0.11900  0.81268  0.32071  1.0000
  N   N12       1.0  0.12105  0.78361  0.03826  1.0000
  H   H197      1.0  0.05860  0.59143  0.20585  1.0000
  C   C169      1.0  0.13286  0.80918  0.03647  1.0000
  H   H198      1.0  0.13094  0.75706  0.04896  1.0000
  C   C170      1.0  0.09184  0.77984  0.99636  1.0000
  H   H199      1.0  0.98280  0.60916  0.14270  1.0000
  H   H200      1.0  0.18655  0.84489  0.18431  1.0000
  C   C171      1.0  0.99777  0.54358  0.21833  1.0000
  C   C172      1.0  0.03397  0.54820  0.19818  1.0000
  C   C173      1.0  0.99594  0.65103  0.12224  1.0000
  H   H201      1.0  0.05208  0.55274  0.20360  1.0000
  C   C174      1.0  0.21559  0.94856  0.11514  1.0000
  H   H202      1.0  0.00780  0.66726  0.10963  1.0000
  H   H203      1.0  0.19080  0.79508  0.41377  1.0000
  H   H204      1.0  0.97737  0.66566  0.08049  1.0000
  C   C175      1.0  0.97633  0.64320  0.31866  1.0000
  H   H205      1.0  0.20202  0.80132  0.46828  1.0000
  H   H206      1.0  0.99987  0.67930  0.31766  1.0000
  C   C176      1.0  0.20307  0.86168  0.22903  1.0000
  H   H207      1.0  0.97404  0.67973  0.45840  1.0000
  H   H208      1.0  0.14305  0.81712  0.05884  1.0000
  Fe  Fe26      1.0  0.20803  0.89935  0.04698  1.0000
  H   H209      1.0  0.21494  0.87540  0.27697  1.0000
  C   C177      1.0  0.10881  0.77383  0.00729  1.0000
  H   H210      1.0  0.05794  0.63465  0.28418  1.0000
  H   H211      1.0  0.08774  0.79174  0.01011  1.0000
  C   C178      1.0  0.98421  0.66886  0.36536  1.0000
  C   C179      1.0  0.06038  0.61422  0.24408  1.0000
  H   H212      1.0  0.99742  0.55639  0.20092  1.0000
  H   H213      1.0  0.07447  0.62882  0.23255  1.0000
  H   H214      1.0  0.97961  0.64051  0.29329  1.0000
  H   H215      1.0  0.00797  0.56371  0.28420  1.0000
  C   C180      1.0  0.21898  0.96382  0.14165  1.0000
  H   H216      1.0  0.00544  0.61266  0.07609  1.0000
  H   H217      1.0  0.00533  0.64952  0.14388  1.0000
  H   H218      1.0  0.98943  0.52635  0.20617  1.0000
  H   H219      1.0  0.03363  0.55963  0.17833  1.0000
  Fe  Fe27      1.0  0.97459  0.51980  0.08069  1.0000
  S   S54       1.0  0.97939  0.55639  0.08037  1.0000
  H   H220      1.0  0.20757  0.81297  0.38149  1.0000
  H   H221      1.0  0.98556  0.64016  0.43717  1.0000
  N   N13       1.0  0.98863  0.63064  0.10014  1.0000
  C   C181      1.0  0.20869  0.80463  0.40444  1.0000
  H   H222      1.0  0.21464  0.79159  0.39800  1.0000
  C   C182      1.0  0.21724  0.84016  0.43340  1.0000
  C   C183      1.0  0.97579  0.63163  0.07118  1.0000
  H   H223      1.0  0.98094  0.65281  0.13207  1.0000
  C   C184      1.0  0.97422  0.60989  0.11977  1.0000
  C   C185      1.0  0.97795  0.67776  0.43231  1.0000
  H   H224      1.0  0.21908  0.85002  0.41064  1.0000
  H   H225      1.0  0.97476  0.69063  0.41859  1.0000
  C   C186      1.0  0.22032  0.80929  0.46044  1.0000
  H   H226      1.0  0.00156  0.49917  0.48784  1.0000
  H   H227      1.0  0.11170  0.77737  0.58437  1.0000
  S   S55       1.0  0.98663  0.53470  0.63905  1.0000
  S   S56       1.0  0.98541  0.51190  0.54649  1.0000
  S   S57       1.0  0.99542  0.60367  0.64649  1.0000
  H   H228      1.0  0.12062  0.71625  0.64381  1.0000
  H   H229      1.0  0.17905  0.87113  0.62885  1.0000
  Fe  Fe28      1.0  0.03765  0.73193  0.80132  1.0000
  S   S58       1.0  0.05442  0.71312  0.82604  1.0000
  S   S59       1.0  0.00037  0.72406  0.81031  1.0000
  Fe  Fe29      1.0  0.07825  0.75559  0.75230  1.0000
  S   S60       1.0  0.09690  0.73757  0.77385  1.0000
  S   S61       1.0  0.09029  0.78034  0.70861  1.0000
  Fe  Fe30      1.0  0.06256  0.70578  0.77491  1.0000
  S   S62       1.0  0.05677  0.66944  0.76129  1.0000
  Fe  Fe31      1.0  0.08694  0.74687  0.82291  1.0000
  S   S63       1.0  0.11433  0.75923  0.86282  1.0000
  S   S64       1.0  0.04457  0.72315  0.75022  1.0000
  S   S65       1.0  0.06969  0.76643  0.80124  1.0000
  H   H230      1.0  0.14533  0.87099  0.60415  1.0000
  S   S66       1.0  0.19562  0.83257  0.51950  1.0000
  S   S67       1.0  0.15373  0.84603  0.96082  1.0000
  H   H231      1.0  0.07377  0.70473  0.70756  1.0000
  H   H232      1.0  0.15149  0.74312  0.60867  1.0000
  Fe  Fe32      1.0  0.18880  0.84524  0.56813  1.0000
  S   S68       1.0  0.17807  0.82204  0.61353  1.0000
  H   H233      1.0  0.14727  0.77369  0.57887  1.0000
  S   S69       1.0  0.17054  0.86351  0.54589  1.0000
  C   C187      1.0  0.11446  0.79089  0.68165  1.0000
  C   C188      1.0  0.11614  0.80647  0.65691  1.0000
  C   C189      1.0  0.13531  0.81602  0.63564  1.0000
  C   C190      1.0  0.15314  0.81015  0.63894  1.0000
  C   C191      1.0  0.15139  0.79447  0.66356  1.0000
  C   C192      1.0  0.13211  0.78472  0.68458  1.0000
  H   H234      1.0  0.10247  0.81117  0.65415  1.0000
  H   H235      1.0  0.13626  0.82784  0.61667  1.0000
  H   H236      1.0  0.16505  0.78974  0.66627  1.0000
  H   H237      1.0  0.13111  0.77268  0.70323  1.0000
  C   C193      1.0  0.12438  0.78306  0.89066  1.0000
  C   C194      1.0  0.14261  0.78669  0.91155  1.0000
  C   C195      1.0  0.15163  0.80564  0.93343  1.0000
  C   C196      1.0  0.14264  0.82137  0.93451  1.0000
  C   C197      1.0  0.12443  0.81775  0.91361  1.0000
  C   C198      1.0  0.11530  0.79872  0.89187  1.0000
  H   H238      1.0  0.14982  0.77473  0.91082  1.0000
  H   H239      1.0  0.16566  0.80818  0.94923  1.0000
  H   H240      1.0  0.11728  0.82976  0.91433  1.0000
  H   H241      1.0  0.10121  0.79616  0.87620  1.0000
  C   C199      1.0  0.01126  0.62084  0.68015  1.0000
  C   C200      1.0  0.01248  0.64282  0.68491  1.0000
  C   C201      1.0  0.02571  0.65759  0.71026  1.0000
  C   C202      1.0  0.03840  0.65079  0.73064  1.0000
  C   C203      1.0  0.03695  0.62871  0.72619  1.0000
  C   C204      1.0  0.02336  0.61374  0.70124  1.0000
  H   H242      1.0  0.00304  0.64840  0.66890  1.0000
  H   H243      1.0  0.02629  0.67431  0.71370  1.0000
  H   H244      1.0  0.04666  0.62324  0.74187  1.0000
  H   H245      1.0  0.02271  0.59697  0.69780  1.0000
  H   H246      1.0  0.06520  0.68873  0.61881  1.0000
  H   H247      1.0  0.08476  0.68519  0.64562  1.0000
  H   H248      1.0  0.06290  0.73636  0.66866  1.0000
  H   H249      1.0  0.10149  0.71156  0.69214  1.0000
  H   H250      1.0  0.09394  0.73441  0.69997  1.0000
  H   H251      1.0  0.04486  0.70630  0.67491  1.0000
  H   H252      1.0  0.05659  0.67784  0.65949  1.0000
  C   C205      1.0  0.19330  0.84773  0.77719  1.0000
  C   C206      1.0  0.12669  0.85816  0.70204  1.0000
  C   C207      1.0  0.99110  0.70501  0.87278  1.0000
  S   S70       1.0  0.21214  0.93155  0.55416  1.0000
  H   H253      1.0  0.00937  0.71140  0.87523  1.0000
  H   H254      1.0  0.08071  0.75184  0.61954  1.0000
  N   N14       1.0  0.07877  0.71459  0.65672  1.0000
  C   C208      1.0  0.05841  0.71883  0.65852  1.0000
  C   C209      1.0  0.07105  0.69063  0.64459  1.0000
  C   C210      1.0  0.08742  0.71643  0.69048  1.0000
  C   C211      1.0  0.09727  0.73095  0.63517  1.0000
  C   C212      1.0  0.09546  0.74874  0.61757  1.0000
  C   C213      1.0  0.11794  0.72925  0.63114  1.0000
  C   C214      1.0  0.11321  0.76365  0.59713  1.0000
  C   C215      1.0  0.13567  0.74443  0.61092  1.0000
  C   C216      1.0  0.13329  0.76157  0.59392  1.0000
  H   H255      1.0  0.05046  0.71701  0.63412  1.0000
  C   C217      1.0  0.15956  0.88785  0.72903  1.0000
  N   N15       1.0  0.15700  0.81279  0.79664  1.0000
  H   H256      1.0  0.19500  0.93116  0.65269  1.0000
  H   H257      1.0  0.00265  0.49433  0.64940  1.0000
  H   H258      1.0  0.18455  0.93088  0.61326  1.0000
  H   H259      1.0  0.98678  0.50039  0.70869  1.0000
  C   C218      1.0  0.17908  0.92320  0.63803  1.0000
  C   C219      1.0  0.15158  0.78941  0.78406  1.0000
  H   H260      1.0  0.01251  0.67292  0.77405  1.0000
  N   N16       1.0  0.16837  0.89751  0.63710  1.0000
  C   C220      1.0  0.19660  0.86123  0.72147  1.0000
  H   H261      1.0  0.16697  0.92935  0.64794  1.0000
  C   C221      1.0  0.08466  0.75562  0.94825  1.0000
  H   H262      1.0  0.14232  0.77583  0.80272  1.0000
  H   H263      1.0  0.00643  0.68347  0.81182  1.0000
  H   H264      1.0  0.13843  0.83113  0.81249  1.0000
  C   C222      1.0  0.17055  0.83022  0.77174  1.0000
  H   H265      1.0  0.20005  0.89689  0.64833  1.0000
  C   C223      1.0  0.15764  0.88762  0.66902  1.0000
  C   C224      1.0  0.16932  0.89715  0.69870  1.0000
  H   H266      1.0  0.07590  0.74912  0.92525  1.0000
  C   C225      1.0  0.17425  0.84459  0.71557  1.0000
  C   C226      1.0  0.98231  0.70868  0.84372  1.0000
  C   C227      1.0  0.13616  0.86750  0.67159  1.0000
  C   C228      1.0  0.08006  0.77091  0.96721  1.0000
  H   H267      1.0  0.11031  0.84272  0.70341  1.0000
  H   H268      1.0  0.13714  0.89331  0.61482  1.0000
  N   N17       1.0  0.98470  0.64747  0.80209  1.0000
  H   H269      1.0  0.12398  0.80933  0.78181  1.0000
  Fe  Fe33      1.0  0.97800  0.56465  0.63631  1.0000
  Fe  Fe34      1.0  0.20545  0.89455  0.54289  1.0000
  H   H270      1.0  0.13076  0.86119  0.75421  1.0000
  H   H271      1.0  0.20178  0.84991  0.80034  1.0000
  C   C229      1.0  0.99850  0.67153  0.79087  1.0000
  C   C230      1.0  0.13521  0.81370  0.80357  1.0000
  C   C231      1.0  0.20603  0.86295  0.75229  1.0000
  H   H272      1.0  0.20666  0.87275  0.70205  1.0000
  H   H273      1.0  0.01510  0.64309  0.80762  1.0000
  C   C232      1.0  0.97630  0.69397  0.89937  1.0000
  H   H274      1.0  0.97581  0.58660  0.73103  1.0000
  H   H275      1.0  0.97275  0.65694  0.84658  1.0000
  C   C233      1.0  0.10109  0.74924  0.95830  1.0000
  C   C234      1.0  0.15186  0.88970  0.60964  1.0000
  H   H276      1.0  0.19462  0.89704  0.60565  1.0000
  C   C235      1.0  0.16130  0.82946  0.74035  1.0000
  H   H277      1.0  0.99213  0.61031  0.77907  1.0000
  C   C236      1.0  0.16908  0.81598  0.82819  1.0000
  C   C237      1.0  0.18629  0.89032  0.62974  1.0000
  C   C238      1.0  0.13824  0.86846  0.73070  1.0000
  H   H278      1.0  0.16002  0.89865  0.58635  1.0000
  H   H279      1.0  0.18527  0.81464  0.82509  1.0000
  H   H280      1.0  0.14040  0.78460  0.76224  1.0000
  H   H281      1.0  0.17277  0.83280  0.84002  1.0000
  H   H282      1.0  0.15859  0.80237  0.84606  1.0000
  H   H283      1.0  0.12489  0.80101  0.82267  1.0000
  H   H284      1.0  0.14403  0.81687  0.73456  1.0000
  H   H285      1.0  0.00683  0.65326  0.84348  1.0000
  H   H286      1.0  0.12636  0.85852  0.65043  1.0000
  H   H287      1.0  0.00363  0.49762  0.60612  1.0000
  H   H288      1.0  0.16745  0.78824  0.77707  1.0000
  H   H289      1.0  0.10499  0.73782  0.94285  1.0000
  C   C239      1.0  0.99989  0.64144  0.82204  1.0000
  H   H290      1.0  0.18617  0.91179  0.69873  1.0000
  Fe  Fe35      1.0  0.17914  0.85255  0.49704  1.0000
  C   C240      1.0  0.97662  0.48574  0.72405  1.0000
  H   H291      1.0  0.16871  0.89560  0.75136  1.0000
  H   H292      1.0  0.98338  0.69194  0.92211  1.0000
  H   H293      1.0  0.99937  0.50496  0.86088  1.0000
  H   H294      1.0  0.98814  0.67837  0.77796  1.0000
  C   C241      1.0  0.98040  0.61396  0.76504  1.0000
  C   C242      1.0  0.00278  0.48558  0.62587  1.0000
  H   H295      1.0  0.16691  0.84329  0.69158  1.0000
  S   S71       1.0  0.21236  0.88545  0.49197  1.0000
  C   C243      1.0  0.98498  0.48501  0.49359  1.0000
  C   C244      1.0  0.97281  0.48662  0.52129  1.0000
  H   H296      1.0  0.00235  0.49526  0.97570  1.0000
  H   H297      1.0  0.06751  0.77612  0.95900  1.0000
  H   H298      1.0  0.99054  0.62361  0.83185  1.0000
  C   C245      1.0  0.98737  0.48626  0.86244  1.0000
  C   C246      1.0  0.11312  0.75818  0.98730  1.0000
  C   C247      1.0  0.97496  0.63215  0.77335  1.0000
  H   H299      1.0  0.00588  0.48387  0.74440  1.0000
  C   C248      1.0  0.97199  0.51368  0.90469  1.0000
  H   H300      1.0  0.97954  0.53986  0.94200  1.0000
  H   H301      1.0  0.98586  0.52543  0.88937  1.0000
  H   H302      1.0  0.01880  0.48375  0.62530  1.0000
  C   C249      1.0  0.97112  0.60011  0.73736  1.0000
  N   N18       1.0  0.23731  0.05359  0.09740  1.0000
  H   H303      1.0  0.25845  0.98508  0.06553  1.0000
  S   S72       1.0  0.26788  0.34333  0.27067  1.0000
  C   C250      1.0  0.28989  0.31345  0.18641  1.0000
  C   C251      1.0  0.30018  0.33406  0.37085  1.0000
  C   C252      1.0  0.22915  0.22390  0.34482  1.0000
  S   S73       1.0  0.32898  0.19823  0.46761  1.0000
  S   S74       1.0  0.27630  0.15791  0.02691  1.0000
  Fe  Fe36      1.0  0.28262  0.21613  0.44109  1.0000
  S   S75       1.0  0.31757  0.23042  0.41817  1.0000
  S   S76       1.0  0.26148  0.23527  0.43274  1.0000
  Fe  Fe37      1.0  0.31262  0.19381  0.41807  1.0000
  S   S77       1.0  0.32650  0.18018  0.37591  1.0000
  Fe  Fe38      1.0  0.33034  0.23346  0.46959  1.0000
  C   C253      1.0  0.39766  0.47204  0.27114  1.0000
  S   S78       1.0  0.27650  0.17904  0.43767  1.0000
  H   H304      1.0  0.35147  0.14524  0.44861  1.0000
  Fe  Fe39      1.0  0.29175  0.08025  0.23537  1.0000
  S   S79       1.0  0.32670  0.09491  0.21115  1.0000
  S   S80       1.0  0.27881  0.09284  0.27982  1.0000
  Fe  Fe40      1.0  0.27130  0.03940  0.18628  1.0000
  S   S81       1.0  0.30446  0.05171  0.15928  1.0000
  S   S82       1.0  0.24001  0.00525  0.17465  1.0000
  Fe  Fe41      1.0  0.32073  0.05783  0.20894  1.0000
  S   S83       1.0  0.34470  0.04143  0.21382  1.0000
  Fe  Fe42      1.0  0.30712  0.08731  0.16360  1.0000
  S   S84       1.0  0.31965  0.10855  0.11660  1.0000
  S   S85       1.0  0.28716  0.04369  0.23582  1.0000
  S   S86       1.0  0.27257  0.07456  0.18787  1.0000
  Fe  Fe43      1.0  0.38839  0.36643  0.11071  1.0000
  S   S87       1.0  0.37208  0.38594  0.08682  1.0000
  S   S88       1.0  0.37096  0.32706  0.10436  1.0000
  Fe  Fe44      1.0  0.41823  0.40887  0.15455  1.0000
  S   S89       1.0  0.40316  0.43037  0.13292  1.0000
  S   S90       1.0  0.44312  0.42014  0.19784  1.0000
  Fe  Fe45      1.0  0.36921  0.39825  0.13736  1.0000
  S   S91       1.0  0.33589  0.39831  0.15393  1.0000
  Fe  Fe46      1.0  0.40765  0.41597  0.08423  1.0000
  S   S92       1.0  0.41684  0.43811  0.03768  1.0000
  S   S93       1.0  0.38396  0.37762  0.16159  1.0000
  S   S94       1.0  0.42442  0.39570  0.10558  1.0000
  C   C254      1.0  0.31144  0.31542  0.17904  1.0000
  S   S95       1.0  0.37746  0.01410  0.34517  1.0000
  S   S96       1.0  0.29768  0.21791  0.98908  1.0000
  H   H305      1.0  0.29522  0.14442  0.46789  1.0000
  C   C255      1.0  0.41029  0.44262  0.27522  1.0000
  H   H306      1.0  0.41066  0.42677  0.26807  1.0000
  Fe  Fe47      1.0  0.39045  0.98733  0.35038  1.0000
  C   C256      1.0  0.44184  0.45076  0.01216  1.0000
  H   H307      1.0  0.31261  0.27210  0.43182  1.0000
  H   H308      1.0  0.31303  0.00195  0.16574  1.0000
  C   C257      1.0  0.45492  0.44584  0.22228  1.0000
  H   H309      1.0  0.35301  0.44444  0.25096  1.0000
  C   C258      1.0  0.42666  0.47643  0.31030  1.0000
  C   C259      1.0  0.35285  0.03333  0.25078  1.0000
  C   C260      1.0  0.36432  0.01966  0.24922  1.0000
  C   C261      1.0  0.37140  0.01308  0.27791  1.0000
  C   C262      1.0  0.36751  0.02055  0.30847  1.0000
  C   C263      1.0  0.35587  0.03406  0.31005  1.0000
  C   C264      1.0  0.34835  0.04023  0.28139  1.0000
  H   H310      1.0  0.36801  0.01437  0.22565  1.0000
  H   H311      1.0  0.38045  0.00281  0.27632  1.0000
  H   H312      1.0  0.35296  0.04013  0.33351  1.0000
  H   H313      1.0  0.33966  0.05085  0.28294  1.0000
  H   H314      1.0  0.22968  0.00614  0.00700  1.0000
  H   H315      1.0  0.45856  0.98884  0.27614  1.0000
  H   H316      1.0  0.26528  0.01126  0.11296  1.0000
  C   C265      1.0  0.28873  0.14440  0.05155  1.0000
  C   C266      1.0  0.30750  0.14141  0.04087  1.0000
  C   C267      1.0  0.31659  0.13028  0.06106  1.0000
  C   C268      1.0  0.30716  0.12212  0.09219  1.0000
  C   C269      1.0  0.28844  0.12520  0.10294  1.0000
  C   C270      1.0  0.27922  0.13615  0.08262  1.0000
  H   H317      1.0  0.31486  0.14744  0.01691  1.0000
  H   H318      1.0  0.33106  0.12797  0.05249  1.0000
  H   H319      1.0  0.28122  0.11938  0.12703  1.0000
  H   H320      1.0  0.26475  0.13846  0.09116  1.0000
  C   C271      1.0  0.31265  0.15619  0.34884  1.0000
  C   C272      1.0  0.28930  0.14086  0.35142  1.0000
  C   C273      1.0  0.27931  0.12164  0.33009  1.0000
  C   C274      1.0  0.29243  0.11754  0.30577  1.0000
  C   C275      1.0  0.31578  0.13289  0.30319  1.0000
  C   C276      1.0  0.32580  0.15202  0.32467  1.0000
  H   H321      1.0  0.27889  0.14381  0.36972  1.0000
  H   H322      1.0  0.26124  0.10992  0.33228  1.0000
  H   H323      1.0  0.32613  0.12999  0.28472  1.0000
  H   H324      1.0  0.34389  0.16370  0.32248  1.0000
  C   C277      1.0  0.36501  0.27872  0.01770  1.0000
  C   C278      1.0  0.34642  0.27377  0.03881  1.0000
  C   C279      1.0  0.34833  0.28908  0.06464  1.0000
  C   C280      1.0  0.36856  0.30983  0.06919  1.0000
  C   C281      1.0  0.38695  0.31506  0.04758  1.0000
  C   C282      1.0  0.38521  0.29949  0.02218  1.0000
  H   H325      1.0  0.33074  0.25795  0.03576  1.0000
  H   H326      1.0  0.33414  0.28468  0.08151  1.0000
  H   H327      1.0  0.40276  0.33073  0.05107  1.0000
  H   H328      1.0  0.27052  0.07710  0.11598  1.0000
  C   C283      1.0  0.31636  0.38044  0.18436  1.0000
  C   C284      1.0  0.29386  0.37774  0.18499  1.0000
  C   C285      1.0  0.27840  0.36543  0.21032  1.0000
  C   C286      1.0  0.28554  0.35635  0.23598  1.0000
  C   C287      1.0  0.30802  0.35896  0.23530  1.0000
  C   C288      1.0  0.32317  0.37046  0.20931  1.0000
  H   H329      1.0  0.28842  0.38547  0.16594  1.0000
  H   H330      1.0  0.26126  0.36379  0.21065  1.0000
  H   H331      1.0  0.31370  0.35191  0.25493  1.0000
  H   H332      1.0  0.34023  0.37198  0.20904  1.0000
  H   H333      1.0  0.32776  0.36738  0.38239  1.0000
  H   H334      1.0  0.35944  0.30508  0.45168  1.0000
  C   C289      1.0  0.29617  0.13503  0.44545  1.0000
  C   C290      1.0  0.24808  0.23806  0.39696  1.0000
  H   H335      1.0  0.24635  0.26825  0.41579  1.0000
  H   H336      1.0  0.26082  0.29962  0.21800  1.0000
  C   C291      1.0  0.22991  0.25825  0.36898  1.0000
  H   H337      1.0  0.33885  0.16152  0.43168  1.0000
  C   C292      1.0  0.22673  0.05343  0.12982  1.0000
  N   N19       1.0  0.38062  0.43812  0.23246  1.0000
  C   C293      1.0  0.38506  0.45346  0.20382  1.0000
  C   C294      1.0  0.38311  0.41768  0.22099  1.0000
  C   C295      1.0  0.35658  0.42997  0.24341  1.0000
  C   C296      1.0  0.39628  0.45082  0.25949  1.0000
  H   H338      1.0  0.34949  0.30132  0.41052  1.0000
  H   H339      1.0  0.37436  0.44391  0.18246  1.0000
  H   H340      1.0  0.29594  0.29994  0.99938  1.0000
  H   H341      1.0  0.29804  0.09951  0.41390  1.0000
  C   C297      1.0  0.29877  0.30192  0.40175  1.0000
  H   H342      1.0  0.37185  0.40912  0.19986  1.0000
  H   H343      1.0  0.40094  0.42262  0.21262  1.0000
  H   H344      1.0  0.26387  0.04722  0.11752  1.0000
  C   C298      1.0  0.35116  0.31130  0.43349  1.0000
  C   C299      1.0  0.42512  0.45528  0.30033  1.0000
  C   C300      1.0  0.23687  0.98656  0.14109  1.0000
  N   N20       1.0  0.27205  0.27435  0.26097  1.0000
  C   C301      1.0  0.28367  0.26364  0.28022  1.0000
  C   C302      1.0  0.26649  0.28897  0.28379  1.0000
  C   C303      1.0  0.25038  0.25543  0.24853  1.0000
  C   C304      1.0  0.28591  0.28842  0.23312  1.0000
  C   C305      1.0  0.30794  0.29065  0.22480  1.0000
  C   C306      1.0  0.32042  0.30402  0.19814  1.0000
  H   H345      1.0  0.29991  0.27698  0.29093  1.0000
  H   H346      1.0  0.28365  0.99562  0.16003  1.0000
  H   H347      1.0  0.28734  0.25140  0.26506  1.0000
  H   H348      1.0  0.28223  0.30446  0.29179  1.0000
  H   H349      1.0  0.35105  0.98425  0.44649  1.0000
  H   H350      1.0  0.25525  0.29537  0.27254  1.0000
  H   H351      1.0  0.25376  0.24477  0.22987  1.0000
  C   C307      1.0  0.23353  0.02875  0.04800  1.0000
  H   H352      1.0  0.31597  0.28236  0.23852  1.0000
  H   H353      1.0  0.33727  0.30573  0.19221  1.0000
  N   N21       1.0  0.35196  0.21185  0.07002  1.0000
  C   C308      1.0  0.33053  0.20672  0.05260  1.0000
  C   C309      1.0  0.36931  0.21373  0.04496  1.0000
  C   C310      1.0  0.34793  0.19207  0.09144  1.0000
  C   C311      1.0  0.35882  0.23305  0.09003  1.0000
  C   C312      1.0  0.37939  0.25370  0.08427  1.0000
  C   C313      1.0  0.34445  0.23355  0.11595  1.0000
  C   C314      1.0  0.38518  0.27340  0.10364  1.0000
  C   C315      1.0  0.35036  0.25341  0.13499  1.0000
  C   C316      1.0  0.37070  0.27329  0.12886  1.0000
  H   H354      1.0  0.32507  0.19123  0.03656  1.0000
  H   H355      1.0  0.31589  0.20309  0.06948  1.0000
  H   H356      1.0  0.33285  0.22146  0.03688  1.0000
  H   H357      1.0  0.37219  0.22744  0.02678  1.0000
  H   H358      1.0  0.36370  0.19744  0.03055  1.0000
  H   H359      1.0  0.38593  0.21745  0.05636  1.0000
  H   H360      1.0  0.36291  0.19617  0.10738  1.0000
  C   C317      1.0  0.33653  0.14875  0.45112  1.0000
  H   H361      1.0  0.34483  0.17633  0.07704  1.0000
  H   H362      1.0  0.39105  0.25535  0.06446  1.0000
  H   H363      1.0  0.32837  0.21862  0.12135  1.0000
  H   H364      1.0  0.40063  0.28919  0.09835  1.0000
  H   H365      1.0  0.33897  0.25354  0.15430  1.0000
  H   H366      1.0  0.37500  0.28891  0.14301  1.0000
  C   C318      1.0  0.45236  0.46537  0.21443  1.0000
  C   C319      1.0  0.34566  0.99536  0.43233  1.0000
  H   H367      1.0  0.25705  0.27929  0.30588  1.0000
  H   H368      1.0  0.27280  0.25340  0.30113  1.0000
  C   C320      1.0  0.31450  0.11547  0.41726  1.0000
  H   H369      1.0  0.37823  0.40429  0.24025  1.0000
  H   H370      1.0  0.29948  0.14701  0.42462  1.0000
  H   H371      1.0  0.43615  0.44905  0.31134  1.0000
  H   H372      1.0  0.32373  0.98515  0.21162  1.0000
  H   H373      1.0  0.31701  0.12662  0.39555  1.0000
  H   H374      1.0  0.31903  0.01244  0.40944  1.0000
  C   C321      1.0  0.23554  0.07156  0.07731  1.0000
  H   H375      1.0  0.36332  0.32968  0.42874  1.0000
  H   H376      1.0  0.30272  0.98874  0.38163  1.0000
  N   N22       1.0  0.31431  0.12757  0.44811  1.0000
  C   C322      1.0  0.31433  0.28347  0.45318  1.0000
  H   H377      1.0  0.40333  0.46096  0.19596  1.0000
  C   C323      1.0  0.32873  0.34065  0.41199  1.0000
  H   H378      1.0  0.34307  0.11044  0.46893  1.0000
  H   H379      1.0  0.34479  0.33986  0.47412  1.0000
  H   H380      1.0  0.28432  0.98777  0.43181  1.0000
  C   C324      1.0  0.36713  0.35344  0.00920  1.0000
  H   H381      1.0  0.37874  0.39006  0.00584  1.0000
  H   H382      1.0  0.33776  0.15736  0.47522  1.0000
  H   H383      1.0  0.28316  0.32278  0.17193  1.0000
  H   H384      1.0  0.30769  0.99320  0.23940  1.0000
  H   H385      1.0  0.38717  0.47911  0.26093  1.0000
  C   C325      1.0  0.35201  0.33155  0.99734  1.0000
  H   H386      1.0  0.46193  0.43863  0.03933  1.0000
  H   H387      1.0  0.33287  0.00596  0.37611  1.0000
  C   C326      1.0  0.31965  0.34908  0.38790  1.0000
  C   C327      1.0  0.27728  0.30022  0.21301  1.0000
  H   H388      1.0  0.38092  0.46790  0.20878  1.0000
  H   H389      1.0  0.23470  0.07082  0.14166  1.0000
  S   S97       1.0  0.44371  0.98731  0.43771  1.0000
  H   H390      1.0  0.29847  0.01103  0.19535  1.0000
  H   H391      1.0  0.32133  0.32601  0.15868  1.0000
  H   H392      1.0  0.34498  0.00839  0.44954  1.0000
  H   H393      1.0  0.42964  0.00583  0.02215  1.0000
  H   H394      1.0  0.23926  0.26200  0.23713  1.0000
  C   C328      1.0  0.24200  0.25608  0.39568  1.0000
  H   H395      1.0  0.31555  0.28862  0.00782  1.0000
  H   H396      1.0  0.24610  0.07556  0.05459  1.0000
  C   C329      1.0  0.22278  0.24176  0.34389  1.0000
  H   H397      1.0  0.24667  0.04343  0.03541  1.0000
  C   C330      1.0  0.42893  0.99090  0.03460  1.0000
  H   H398      1.0  0.31533  0.32111  0.48460  1.0000
  H   H399      1.0  0.24642  0.20813  0.37186  1.0000
  C   C331      1.0  0.32783  0.10516  0.48383  1.0000
  H   H400      1.0  0.27906  0.12019  0.44100  1.0000
  H   H401      1.0  0.28526  0.98854  0.98927  1.0000
  H   H402      1.0  0.32853  0.11047  0.41642  1.0000
  H   H403      1.0  0.35963  0.00475  0.41416  1.0000
  H   H404      1.0  0.34430  0.42045  0.22352  1.0000
  H   H405      1.0  0.35273  0.31689  0.00802  1.0000
  N   N23       1.0  0.32854  0.30828  0.44527  1.0000
  H   H406      1.0  0.23994  0.24368  0.26850  1.0000
  H   H407      1.0  0.28999  0.28350  0.40562  1.0000
  H   H408      1.0  0.27471  0.29890  0.36438  1.0000
  H   H409      1.0  0.22907  0.04167  0.14727  1.0000
  H   H410      1.0  0.33258  0.18691  0.10747  1.0000
  H   H411      1.0  0.22370  0.21102  0.32554  1.0000
  C   C332      1.0  0.24204  0.22222  0.37102  1.0000
  C   C333      1.0  0.28984  0.31054  0.37770  1.0000
  H   H412      1.0  0.44292  0.46512  0.19290  1.0000
  H   H413      1.0  0.29311  0.34064  0.35224  1.0000
  C   C334      1.0  0.31839  0.31681  0.41999  1.0000
  C   C335      1.0  0.26182  0.06035  0.10271  1.0000
  C   C336      1.0  0.29630  0.99668  0.17848  1.0000
  C   C337      1.0  0.31913  0.99789  0.39504  1.0000
  C   C338      1.0  0.22399  0.00749  0.03155  1.0000
  H   H414      1.0  0.34404  0.35293  0.42419  1.0000
  Fe  Fe48      1.0  0.22882  0.32314  0.27547  1.0000
  S   S98       1.0  0.42594  0.98986  0.34922  1.0000
  S   S99       1.0  0.36119  0.26754  0.48303  1.0000
  C   C339      1.0  0.25142  0.99388  0.11379  1.0000
  C   C340      1.0  0.44141  0.99372  0.06320  1.0000
  C   C341      1.0  0.31095  0.11221  0.47627  1.0000
  C   C342      1.0  0.33169  0.32153  0.47623  1.0000
  H   H415      1.0  0.27154  0.06255  0.07946  1.0000
  H   H416      1.0  0.37896  0.35517  0.02857  1.0000
  H   H417      1.0  0.35235  0.41803  0.26453  1.0000
  H   H418      1.0  0.45119  0.01120  0.07194  1.0000
  H   H419      1.0  0.24182  0.08833  0.09067  1.0000
  H   H420      1.0  0.29689  0.27986  0.46188  1.0000
  C   C343      1.0  0.46767  0.44674  0.25016  1.0000
  C   C344      1.0  0.46165  0.44867  0.01863  1.0000
  H   H421      1.0  0.22555  0.27230  0.36849  1.0000
  H   H422      1.0  0.39971  0.30351  0.00603  1.0000
  C   C345      1.0  0.36697  0.37308  0.99649  1.0000
  C   C346      1.0  0.46768  0.00080  0.12122  1.0000
  H   H423      1.0  0.45623  0.00864  0.12751  1.0000
  H   H424      1.0  0.32205  0.27765  0.47280  1.0000
  C   C347      1.0  0.22656  0.03097  0.08031  1.0000
  H   H425      1.0  0.46983  0.43179  0.25647  1.0000
  C   C348      1.0  0.30553  0.29129  0.98813  1.0000
  H   H426      1.0  0.26849  0.98250  0.23154  1.0000
  Fe  Fe49      1.0  0.29316  0.18491  0.48740  1.0000
  H   H427      1.0  0.25109  0.27087  0.91611  1.0000
  H   H428      1.0  0.24247  0.20587  0.87729  1.0000
  S   S100      1.0  0.26828  0.34038  0.76554  1.0000
  C   C349      1.0  0.33776  0.98616  0.73385  1.0000
  H   H429      1.0  0.26042  0.11013  0.67248  1.0000
  H   H430      1.0  0.41624  0.44198  0.76562  1.0000
  S   S101      1.0  0.32771  0.19195  0.96302  1.0000
  S   S102      1.0  0.27706  0.15682  0.52648  1.0000
  Fe  Fe50      1.0  0.28506  0.21543  0.93761  1.0000
  S   S103      1.0  0.32008  0.22763  0.91549  1.0000
  S   S104      1.0  0.26812  0.23868  0.92957  1.0000
  Fe  Fe51      1.0  0.31200  0.18996  0.91335  1.0000
  S   S105      1.0  0.32432  0.17813  0.86716  1.0000
  Fe  Fe52      1.0  0.33209  0.22835  0.96684  1.0000
  C   C350      1.0  0.44526  0.47767  0.48955  1.0000
  S   S106      1.0  0.27592  0.17753  0.93284  1.0000
  H   H431      1.0  0.31493  0.31446  0.91228  1.0000
  Fe  Fe53      1.0  0.29353  0.07755  0.72912  1.0000
  S   S107      1.0  0.32863  0.09815  0.70779  1.0000
  S   S108      1.0  0.27878  0.09021  0.77139  1.0000
  Fe  Fe54      1.0  0.28375  0.03566  0.68308  1.0000
  S   S109      1.0  0.31837  0.05440  0.65904  1.0000
  S   S110      1.0  0.26267  0.99648  0.67599  1.0000
  Fe  Fe55      1.0  0.33175  0.06522  0.70994  1.0000
  S   S111      1.0  0.36457  0.06522  0.72709  1.0000
  Fe  Fe56      1.0  0.31161  0.08543  0.65900  1.0000
  S   S112      1.0  0.32413  0.11142  0.61700  1.0000
  S   S113      1.0  0.29768  0.04532  0.73428  1.0000
  S   S114      1.0  0.27596  0.06612  0.68015  1.0000
  Fe  Fe57      1.0  0.38320  0.37614  0.60463  1.0000
  S   S115      1.0  0.36867  0.39839  0.58387  1.0000
  S   S116      1.0  0.36326  0.33720  0.59582  1.0000
  Fe  Fe58      1.0  0.41451  0.41550  0.65171  1.0000
  S   S117      1.0  0.40108  0.43937  0.63404  1.0000
  S   S118      1.0  0.44072  0.42448  0.69264  1.0000
  Fe  Fe59      1.0  0.36624  0.40827  0.63607  1.0000
  S   S119      1.0  0.33378  0.40867  0.65609  1.0000
  Fe  Fe60      1.0  0.40509  0.42703  0.58356  1.0000
  S   S120      1.0  0.41932  0.45426  0.54293  1.0000
  S   S121      1.0  0.37951  0.38531  0.65700  1.0000
  S   S122      1.0  0.41998  0.40413  0.60121  1.0000
  N   N24       1.0  0.39931  0.99438  0.72979  1.0000
  S   S123      1.0  0.36998  0.00954  0.85008  1.0000
  H   H432      1.0  0.30500  0.07437  0.55321  1.0000
  H   H433      1.0  0.24187  0.31147  0.67471  1.0000
  H   H434      1.0  0.29349  0.31220  0.94255  1.0000
  H   H435      1.0  0.39347  0.31453  0.49786  1.0000
  C   C351      1.0  0.27327  0.14819  0.75331  1.0000
  C   C352      1.0  0.44238  0.46176  0.51439  1.0000
  C   C353      1.0  0.30637  0.08426  0.53140  1.0000
  H   H436      1.0  0.30245  0.17045  0.66316  1.0000
  H   H437      1.0  0.36232  0.39545  0.80906  1.0000
  C   C354      1.0  0.33748  0.99902  0.70706  1.0000
  C   C355      1.0  0.45243  0.44900  0.71917  1.0000
  C   C356      1.0  0.36527  0.04751  0.75911  1.0000
  C   C357      1.0  0.38640  0.04892  0.76825  1.0000
  C   C358      1.0  0.38787  0.03613  0.79483  1.0000
  C   C359      1.0  0.36817  0.02175  0.81250  1.0000
  C   C360      1.0  0.34699  0.01997  0.80293  1.0000
  C   C361      1.0  0.34551  0.03280  0.77643  1.0000
  H   H438      1.0  0.40178  0.06049  0.75522  1.0000
  H   H439      1.0  0.40438  0.03827  0.80266  1.0000
  H   H440      1.0  0.33166  0.00891  0.81643  1.0000
  H   H441      1.0  0.32912  0.03143  0.76964  1.0000
  C   C362      1.0  0.27665  0.36122  0.61477  1.0000
  H   H442      1.0  0.29791  0.07072  0.82721  1.0000
  H   H443      1.0  0.34539  0.30332  0.92788  1.0000
  C   C363      1.0  0.29064  0.14501  0.55223  1.0000
  C   C364      1.0  0.31412  0.15185  0.55018  1.0000
  C   C365      1.0  0.32402  0.14148  0.57036  1.0000
  C   C366      1.0  0.31067  0.12425  0.59295  1.0000
  C   C367      1.0  0.28720  0.11753  0.59522  1.0000
  C   C368      1.0  0.27728  0.12786  0.57495  1.0000
  H   H444      1.0  0.32465  0.16505  0.53298  1.0000
  H   H445      1.0  0.34217  0.14677  0.56832  1.0000
  H   H446      1.0  0.27664  0.10410  0.61211  1.0000
  H   H447      1.0  0.25907  0.12234  0.57656  1.0000
  C   C369      1.0  0.31151  0.15311  0.84155  1.0000
  C   C370      1.0  0.28944  0.13532  0.84725  1.0000
  C   C371      1.0  0.27982  0.11623  0.82561  1.0000
  C   C372      1.0  0.29208  0.11456  0.79808  1.0000
  C   C373      1.0  0.31424  0.13225  0.79249  1.0000
  C   C374      1.0  0.32385  0.15134  0.81412  1.0000
  H   H448      1.0  0.27968  0.13639  0.86813  1.0000
  H   H449      1.0  0.26265  0.10271  0.83020  1.0000
  H   H450      1.0  0.32389  0.13142  0.77135  1.0000
  H   H451      1.0  0.34087  0.16506  0.80931  1.0000
  C   C375      1.0  0.36142  0.28683  0.51431  1.0000
  C   C376      1.0  0.34373  0.28038  0.53744  1.0000
  C   C377      1.0  0.34458  0.29613  0.56196  1.0000
  C   C378      1.0  0.36284  0.31865  0.56335  1.0000
  C   C379      1.0  0.38027  0.32531  0.53975  1.0000
  C   C380      1.0  0.37966  0.30938  0.51558  1.0000
  H   H452      1.0  0.32963  0.26310  0.53687  1.0000
  H   H453      1.0  0.33106  0.29076  0.58017  1.0000
  H   H454      1.0  0.39451  0.34249  0.54065  1.0000
  H   H455      1.0  0.41552  0.98481  0.76830  1.0000
  C   C381      1.0  0.31480  0.38824  0.68461  1.0000
  C   C382      1.0  0.29331  0.38729  0.69124  1.0000
  C   C383      1.0  0.27830  0.37196  0.71484  1.0000
  C   C384      1.0  0.28493  0.35786  0.73264  1.0000
  C   C385      1.0  0.30640  0.35883  0.72595  1.0000
  C   C386      1.0  0.32104  0.37358  0.70170  1.0000
  H   H456      1.0  0.28832  0.39859  0.67818  1.0000
  H   H457      1.0  0.26207  0.37176  0.72017  1.0000
  H   H458      1.0  0.31197  0.34844  0.74000  1.0000
  H   H459      1.0  0.33742  0.37406  0.69688  1.0000
  H   H460      1.0  0.38545  0.39142  0.77195  1.0000
  H   H461      1.0  0.32189  0.18301  0.71073  1.0000
  Fe  Fe61      1.0  0.29220  0.18136  0.98268  1.0000
  C   C387      1.0  0.24887  0.23839  0.89939  1.0000
  C   C388      1.0  0.23892  0.22050  0.87646  1.0000
  C   C389      1.0  0.46620  0.44923  0.74536  1.0000
  H   H462      1.0  0.33773  0.31434  0.49634  1.0000
  C   C390      1.0  0.26284  0.12004  0.69575  1.0000
  C   C391      1.0  0.38459  0.43131  0.72049  1.0000
  N   N25       1.0  0.34494  0.09066  0.82443  1.0000
  C   C392      1.0  0.34280  0.10955  0.84228  1.0000
  C   C393      1.0  0.36934  0.09556  0.82529  1.0000
  C   C394      1.0  0.33907  0.09108  0.78965  1.0000
  C   C395      1.0  0.32904  0.06819  0.83905  1.0000
  C   C396      1.0  0.33664  0.05349  0.85442  1.0000
  C   C397      1.0  0.32108  0.03228  0.86765  1.0000
  H   H463      1.0  0.34702  0.10981  0.86860  1.0000
  H   H464      1.0  0.35434  0.12680  0.83186  1.0000
  H   H465      1.0  0.32517  0.10777  0.84123  1.0000
  H   H466      1.0  0.37545  0.09668  0.85080  1.0000
  H   H467      1.0  0.38076  0.11234  0.81350  1.0000
  H   H468      1.0  0.39787  0.42877  0.79977  1.0000
  H   H469      1.0  0.32193  0.09014  0.78662  1.0000
  H   H470      1.0  0.35144  0.10716  0.77717  1.0000
  H   H471      1.0  0.33914  0.07625  0.77596  1.0000
  H   H472      1.0  0.35451  0.05763  0.85584  1.0000
  H   H473      1.0  0.28202  0.32202  0.66281  1.0000
  H   H474      1.0  0.33910  0.08715  0.51727  1.0000
  H   H475      1.0  0.30462  0.35382  0.62485  1.0000
  H   H476      1.0  0.30423  0.12505  0.71403  1.0000
  H   H477      1.0  0.31806  0.99227  0.96290  1.0000
  H   H478      1.0  0.32477  0.34853  0.94116  1.0000
  S   S124      1.0  0.42304  0.99138  0.85398  1.0000
  H   H479      1.0  0.45643  0.44098  0.53541  1.0000
  C   C398      1.0  0.28910  0.09011  0.52399  1.0000
  C   C399      1.0  0.29128  0.10399  0.49701  1.0000
  H   H480      1.0  0.39129  0.01674  0.67840  1.0000
  H   H481      1.0  0.34336  0.99679  0.91661  1.0000
  H   H482      1.0  0.26596  0.15550  0.80243  1.0000
  H   H483      1.0  0.38411  0.44814  0.72213  1.0000
  H   H484      1.0  0.24584  0.00545  0.61428  1.0000
  C   C400      1.0  0.25368  0.35547  0.62110  1.0000
  H   H485      1.0  0.37090  0.38594  0.73346  1.0000
  S   S125      1.0  0.44398  0.98844  0.94132  1.0000
  H   H486      1.0  0.32926  0.20565  0.76122  1.0000
  C   C401      1.0  0.44862  0.46821  0.71466  1.0000
  H   H487      1.0  0.22396  0.35279  0.69197  1.0000
  H   H488      1.0  0.24808  0.12391  0.69830  1.0000
  H   H489      1.0  0.42325  0.02528  0.70423  1.0000
  N   N26       1.0  0.27241  0.27686  0.77673  1.0000
  C   C402      1.0  0.26529  0.28995  0.80019  1.0000
  C   C403      1.0  0.28032  0.29080  0.74643  1.0000
  C   C404      1.0  0.25212  0.25486  0.76829  1.0000
  C   C405      1.0  0.28996  0.27176  0.79175  1.0000
  C   C406      1.0  0.31174  0.27797  0.77708  1.0000
  C   C407      1.0  0.28525  0.25967  0.82178  1.0000
  C   C408      1.0  0.32763  0.27236  0.79187  1.0000
  C   C409      1.0  0.30120  0.25416  0.83636  1.0000
  C   C410      1.0  0.32236  0.26046  0.82141  1.0000
  H   H490      1.0  0.28002  0.30661  0.80737  1.0000
  H   H491      1.0  0.25210  0.29404  0.78962  1.0000
  H   H492      1.0  0.25734  0.28017  0.82271  1.0000
  H   H493      1.0  0.29546  0.30771  0.75120  1.0000
  H   H494      1.0  0.26688  0.29493  0.73659  1.0000
  H   H495      1.0  0.28456  0.28149  0.72664  1.0000
  H   H496      1.0  0.24445  0.24380  0.79002  1.0000
  C   C411      1.0  0.22944  0.25834  0.87391  1.0000
  H   H497      1.0  0.25659  0.24455  0.75040  1.0000
  H   H498      1.0  0.31688  0.28708  0.75416  1.0000
  H   H499      1.0  0.26902  0.25417  0.83413  1.0000
  H   H500      1.0  0.34413  0.27719  0.78028  1.0000
  H   H501      1.0  0.29696  0.24479  0.85932  1.0000
  H   H502      1.0  0.33464  0.25602  0.83273  1.0000
  C   C412      1.0  0.32886  0.39279  0.80924  1.0000
  C   C413      1.0  0.32006  0.41217  0.76605  1.0000
  C   C414      1.0  0.31341  0.39858  0.79399  1.0000
  C   C415      1.0  0.24383  0.25714  0.89817  1.0000
  H   H503      1.0  0.30789  0.41643  0.75403  1.0000
  H   H504      1.0  0.29612  0.39226  0.80355  1.0000
  C   C416      1.0  0.39860  0.43644  0.77539  1.0000
  H   H505      1.0  0.30155  0.19209  0.80725  1.0000
  C   C417      1.0  0.29763  0.02504  0.86599  1.0000
  C   C418      1.0  0.30497  0.30486  0.93409  1.0000
  C   C419      1.0  0.28668  0.34894  0.62938  1.0000
  C   C420      1.0  0.31345  0.18978  0.75868  1.0000
  C   C421      1.0  0.35088  0.40021  0.79621  1.0000
  H   H506      1.0  0.27136  0.03351  0.84998  1.0000
  C   C422      1.0  0.34194  0.41949  0.75260  1.0000
  H   H507      1.0  0.27760  0.10856  0.49362  1.0000
  C   C423      1.0  0.33615  0.32855  0.97235  1.0000
  C   C424      1.0  0.35792  0.41329  0.76698  1.0000
  H   H508      1.0  0.34558  0.42939  0.73035  1.0000
  C   C425      1.0  0.46151  0.47490  0.96464  1.0000
  C   C426      1.0  0.25098  0.32521  0.65746  1.0000
  S   S126      1.0  0.29567  0.22051  0.49274  1.0000
  C   C427      1.0  0.32563  0.09163  0.51123  1.0000
  H   H509      1.0  0.23817  0.25786  0.75772  1.0000
  H   H510      1.0  0.28148  0.14513  0.64418  1.0000
  C   C428      1.0  0.44192  0.46390  0.98496  1.0000
  S   S127      1.0  0.36398  0.25947  0.98580  1.0000
  C   C429      1.0  0.28885  0.15539  0.72634  1.0000
  C   C430      1.0  0.27775  0.16159  0.78181  1.0000
  Fe  Fe62      1.0  0.38674  0.98625  0.85822  1.0000
  C   C431      1.0  0.30502  0.06043  0.83830  1.0000
  N   N27       1.0  0.38099  0.42005  0.75289  1.0000
  H   H511      1.0  0.32735  0.02112  0.87839  1.0000
  H   H512      1.0  0.37149  0.41999  0.70264  1.0000
  H   H513      1.0  0.25779  0.13197  0.75345  1.0000
  C   C432      1.0  0.38472  0.39935  0.74844  1.0000
  C   C433      1.0  0.28962  0.03914  0.85144  1.0000
  C   C434      1.0  0.30344  0.13457  0.69207  1.0000
  C   C435      1.0  0.33342  0.29323  0.94782  1.0000
  H   H514      1.0  0.29356  0.28697  0.92551  1.0000
  H   H515      1.0  0.37208  0.08208  0.81166  1.0000
  C   C436      1.0  0.27391  0.33104  0.65080  1.0000
  H   H516      1.0  0.39649  0.45230  0.77931  1.0000
  N   N28       1.0  0.28501  0.14151  0.69598  1.0000
  C   C437      1.0  0.30908  0.17664  0.72994  1.0000
  H   H517      1.0  0.32060  0.14955  0.68856  1.0000
  H   H518      1.0  0.43830  0.46853  0.69452  1.0000
  C   C438      1.0  0.24008  0.33710  0.64257  1.0000
  H   H519      1.0  0.40154  0.43505  0.70973  1.0000
  H   H520      1.0  0.30069  0.12316  0.67033  1.0000
  H   H521      1.0  0.26194  0.10810  0.71568  1.0000
  H   H522      1.0  0.27261  0.16206  0.67014  1.0000
  C   C439      1.0  0.46227  0.46767  0.61976  1.0000
  H   H523      1.0  0.22587  0.27296  0.87316  1.0000
  H   H524      1.0  0.28565  0.00839  0.87572  1.0000
  Fe  Fe63      1.0  0.22981  0.32293  0.77711  1.0000
  C   C440      1.0  0.46871  0.98911  0.49206  1.0000
  N   N29       1.0  0.32025  0.30503  0.96062  1.0000
  H   H525      1.0  0.32223  0.00075  0.70165  1.0000
  C   C441      1.0  0.35157  0.37084  0.97195  1.0000
  H   H526      1.0  0.42674  0.46567  0.97967  1.0000
  H   H527      1.0  0.35672  0.02023  0.66696  1.0000
  H   H528      1.0  0.32359  0.38228  0.83105  1.0000
  H   H529      1.0  0.28699  0.37563  0.59898  1.0000
  H   H530      1.0  0.24711  0.36582  0.60912  1.0000
  C   C442      1.0  0.29782  0.18226  0.78457  1.0000
  H   H531      1.0  0.40130  0.40363  0.73579  1.0000
  C   C443      1.0  0.45846  0.45339  0.51674  1.0000
  C   C444      1.0  0.28541  0.15542  0.66727  1.0000
  H   H532      1.0  0.32192  0.27564  0.93812  1.0000
  C   C445      1.0  0.33630  0.34896  0.95996  1.0000
  C   C446      1.0  0.24372  0.98797  0.61362  1.0000
  H   H533      1.0  0.39507  0.99408  0.78222  1.0000
  H   H534      1.0  0.45893  0.99089  0.78494  1.0000
  H   H535      1.0  0.27426  0.08457  0.53999  1.0000
  H   H536      1.0  0.41663  0.02986  0.74554  1.0000
  H   H537      1.0  0.45189  0.45993  0.59744  1.0000
  H   H538      1.0  0.45215  0.45695  0.64069  1.0000
  C   C447      1.0  0.35765  0.98457  0.74164  1.0000
  H   H539      1.0  0.35147  0.38623  0.96236  1.0000
  H   H540      1.0  0.34381  0.29061  0.96695  1.0000
  C   C448      1.0  0.22430  0.22160  0.85234  1.0000
  C   C449      1.0  0.37800  0.99588  0.72247  1.0000
  H   H541      1.0  0.29278  0.27369  0.97999  1.0000
  C   C450      1.0  0.41942  0.01766  0.72907  1.0000
  H   H542      1.0  0.43535  0.01718  0.73694  1.0000
  C   C451      1.0  0.35697  0.00998  0.68752  1.0000
  H   H543      1.0  0.46941  0.43455  0.74902  1.0000
  C   C452      1.0  0.37684  0.00821  0.69473  1.0000
  H   H544      1.0  0.40463  0.98677  0.67979  1.0000
  H   H545      1.0  0.46982  0.43268  0.63284  1.0000
  C   C453      1.0  0.39886  0.98439  0.76242  1.0000
  S   S128      1.0  0.37449  0.95306  0.32478  1.0000
  H   H546      1.0  0.43893  0.48660  0.32880  1.0000
  S   S129      1.0  0.40112  0.93551  0.37570  1.0000
  Fe  Fe64      1.0  0.40927  0.95415  0.32713  1.0000
  S   S130      1.0  0.42451  0.94040  0.28656  1.0000
  Fe  Fe65      1.0  0.36782  0.93787  0.37536  1.0000
  S   S131      1.0  0.33006  0.91203  0.38235  1.0000
  S   S132      1.0  0.22450  0.93877  0.05170  1.0000
  H   H547      1.0  0.30222  0.84182  0.43878  1.0000
  H   H548      1.0  0.33746  0.97242  0.37378  1.0000
  C   C454      1.0  0.31329  0.90478  0.41885  1.0000
  C   C455      1.0  0.29059  0.90140  0.41764  1.0000
  C   C456      1.0  0.27547  0.89195  0.44440  1.0000
  H   H549      1.0  0.40693  0.96702  0.99855  1.0000
  H   H550      1.0  0.31131  0.85911  0.38378  1.0000
  C   C457      1.0  0.32093  0.89921  0.44755  1.0000
  H   H551      1.0  0.28444  0.90548  0.39549  1.0000
  H   H552      1.0  0.25810  0.88943  0.44292  1.0000
  H   H553      1.0  0.46004  0.50030  0.22815  1.0000
  H   H554      1.0  0.33822  0.90137  0.44871  1.0000
  C   C458      1.0  0.46230  0.48539  0.23433  1.0000
  C   C459      1.0  0.27372  0.93262  0.99730  1.0000
  C   C460      1.0  0.22970  0.95614  0.08741  1.0000
  S   S133      1.0  0.26759  0.87803  0.01664  1.0000
  H   H555      1.0  0.43900  0.94060  0.44669  1.0000
  C   C461      1.0  0.44699  0.95433  0.25742  1.0000
  H   H556      1.0  0.24146  0.84346  0.37039  1.0000
  C   C462      1.0  0.29374  0.85104  0.39264  1.0000
  C   C463      1.0  0.45962  0.95119  0.36763  1.0000
  H   H557      1.0  0.40611  0.93283  0.02523  1.0000
  H   H558      1.0  0.42422  0.51236  0.05489  1.0000
  C   C464      1.0  0.46984  0.50153  0.04899  1.0000
  Fe  Fe66      1.0  0.22997  0.86960  0.02233  1.0000
  C   C465      1.0  0.26715  0.93231  0.12524  1.0000
  H   H559      1.0  0.22538  0.79519  0.45881  1.0000
  N   N30       1.0  0.45450  0.97662  0.10932  1.0000
  C   C466      1.0  0.26616  0.83181  0.43584  1.0000
  C   C467      1.0  0.46152  0.97812  0.25824  1.0000
  H   H560      1.0  0.31574  0.90752  0.00809  1.0000
  N   N31       1.0  0.22406  0.82155  0.42880  1.0000
  C   C468      1.0  0.45431  0.97488  0.46726  1.0000
  H   H561      1.0  0.30733  0.91803  0.15294  1.0000
  H   H562      1.0  0.44572  0.54029  0.01243  1.0000
  C   C469      1.0  0.28857  0.84126  0.42363  1.0000
  C   C470      1.0  0.42809  0.95236  0.06479  1.0000
  C   C471      1.0  0.44057  0.51393  0.04649  1.0000
  C   C472      1.0  0.30635  0.95344  0.46219  1.0000
  C   C473      1.0  0.46434  0.48580  0.46809  1.0000
  H   H563      1.0  0.30179  0.96353  0.23735  1.0000
  H   H564      1.0  0.43987  0.92237  0.23272  1.0000
  H   H565      1.0  0.42759  0.93693  0.07510  1.0000
  C   C474      1.0  0.44894  0.49975  0.05978  1.0000
  H   H566      1.0  0.25581  0.96803  0.47402  1.0000
  H   H567      1.0  0.27137  0.96900  0.02198  1.0000
  H   H568      1.0  0.28097  0.86009  0.35020  1.0000
  C   C475      1.0  0.45292  0.52966  0.02194  1.0000
  C   C476      1.0  0.29687  0.92690  0.15166  1.0000
  H   H569      1.0  0.45711  0.93310  0.36801  1.0000
  C   C477      1.0  0.28634  0.95618  0.17320  1.0000
  C   C478      1.0  0.26998  0.94965  0.14785  1.0000
  H   H570      1.0  0.30056  0.97661  0.01274  1.0000
  H   H571      1.0  0.33130  0.95350  0.40733  1.0000
  C   C479      1.0  0.29987  0.94431  0.17439  1.0000
  C   C480      1.0  0.26999  0.96400  0.47050  1.0000
  H   H572      1.0  0.32005  0.94868  0.45999  1.0000
  S   S134      1.0  0.38295  0.97218  0.40085  1.0000
  C   C481      1.0  0.27657  0.85161  0.37376  1.0000
  H   H573      1.0  0.42529  0.96876  0.14053  1.0000
  C   C482      1.0  0.28267  0.88489  0.47226  1.0000
  C   C483      1.0  0.46949  0.95076  0.21123  1.0000
  H   H574      1.0  0.41418  0.50126  0.30371  1.0000
  C   C484      1.0  0.44135  0.97441  0.07921  1.0000
  C   C485      1.0  0.25406  0.84213  0.38565  1.0000
  H   H575      1.0  0.25449  0.92774  0.10609  1.0000
  C   C486      1.0  0.43870  0.96310  0.13604  1.0000
  C   C487      1.0  0.45109  0.94077  0.23371  1.0000
  H   H576      1.0  0.25930  0.95805  0.14521  1.0000
  C   C488      1.0  0.45042  0.95194  0.46508  1.0000
  H   H577      1.0  0.44782  0.95166  0.34871  1.0000
  C   C489      1.0  0.28054  0.92091  0.12716  1.0000
  C   C490      1.0  0.24809  0.83167  0.41694  1.0000
  C   C491      1.0  0.28657  0.97523  0.44626  1.0000
  H   H578      1.0  0.29057  0.93443  0.00540  1.0000
  H   H579      1.0  0.31294  0.94821  0.19252  1.0000
  C   C492      1.0  0.32507  0.96432  0.39431  1.0000
  H   H580      1.0  0.30823  0.95248  0.38354  1.0000
  C   C493      1.0  0.30560  0.88903  0.47389  1.0000
  S   S135      1.0  0.22374  0.88001  0.07260  1.0000
  H   H581      1.0  0.44794  0.96513  0.15945  1.0000
  C   C494      1.0  0.28966  0.94234  0.48630  1.0000
  H   H582      1.0  0.43897  0.48694  0.07794  1.0000
  C   C495      1.0  0.26684  0.96905  0.21315  1.0000
  H   H583      1.0  0.22796  0.85272  0.45233  1.0000
  H   H584      1.0  0.26365  0.82539  0.46055  1.0000
  H   H585      1.0  0.27827  0.90743  0.10954  1.0000
  C   C496      1.0  0.41284  0.48473  0.29590  1.0000
  C   C497      1.0  0.28387  0.97278  0.00144  1.0000
  H   H586      1.0  0.26012  0.95217  0.22586  1.0000
  Fe  Fe67      1.0  0.41676  0.97134  0.39766  1.0000
  C   C498      1.0  0.24763  0.97886  0.08695  1.0000
  H   H587      1.0  0.26274  0.92983  0.01948  1.0000
  C   C499      1.0  0.46192  0.94382  0.48615  1.0000
  H   H588      1.0  0.46271  0.94877  0.09695  1.0000
  H   H589      1.0  0.45930  0.92623  0.48363  1.0000
  H   H590      1.0  0.45364  0.95520  0.39135  1.0000
  C   C500      1.0  0.30625  0.97913  0.22229  1.0000
  H   H591      1.0  0.25351  0.96816  0.19593  1.0000
  C   C501      1.0  0.41565  0.94977  0.03626  1.0000
  H   H592      1.0  0.23012  0.82136  0.48055  1.0000
  H   H593      1.0  0.42988  0.94428  0.13055  1.0000
  C   C502      1.0  0.41605  0.96900  0.02123  1.0000
  N   N32       1.0  0.28901  0.97482  0.19651  1.0000
  C   C503      1.0  0.30530  0.97019  0.44129  1.0000
  H   H594      1.0  0.46556  0.56095  0.45263  1.0000
  H   H595      1.0  0.46635  0.49813  0.44934  1.0000
  N   N33       1.0  0.32332  0.98181  0.41612  1.0000
  H   H596      1.0  0.43263  0.48381  0.48700  1.0000
  H   H597      1.0  0.45196  0.52744  0.48790  1.0000
  S   S136      1.0  0.37197  0.95201  0.83271  1.0000
  H   H598      1.0  0.45819  0.52508  0.59100  1.0000
  S   S137      1.0  0.40254  0.93709  0.87978  1.0000
  Fe  Fe68      1.0  0.40773  0.95575  0.83177  1.0000
  S   S138      1.0  0.42054  0.94384  0.78653  1.0000
  Fe  Fe69      1.0  0.36795  0.93670  0.88275  1.0000
  S   S139      1.0  0.33232  0.90663  0.89003  1.0000
  C   C504      1.0  0.46084  0.98107  0.76470  1.0000
  C   C505      1.0  0.45315  0.52471  0.53916  1.0000
  C   C506      1.0  0.44720  0.94576  0.73314  1.0000
  C   C507      1.0  0.31448  0.90024  0.92535  1.0000
  C   C508      1.0  0.32325  0.90857  0.95639  1.0000
  H   H599      1.0  0.41838  0.97754  0.70975  1.0000
  H   H600      1.0  0.43595  0.51042  0.54035  1.0000
  H   H601      1.0  0.46118  0.48476  0.94379  1.0000
  C   C509      1.0  0.29084  0.88573  0.92217  1.0000
  H   H602      1.0  0.34140  0.91965  0.95921  1.0000
  H   H603      1.0  0.25502  0.96299  0.95017  1.0000
  C   C510      1.0  0.25369  0.94845  0.96552  1.0000
  H   H604      1.0  0.28391  0.87910  0.89828  1.0000
  C   C511      1.0  0.44777  0.95073  0.96631  1.0000
  H   H605      1.0  0.45113  0.92202  0.98671  1.0000
  N   N34       1.0  0.27639  0.95296  0.97830  1.0000
  S   S140      1.0  0.22319  0.87700  0.56796  1.0000
  H   H606      1.0  0.43415  0.94003  0.94992  1.0000
  C   C512      1.0  0.44442  0.95815  0.75978  1.0000
  H   H607      1.0  0.25803  0.86807  0.94690  1.0000
  H   H608      1.0  0.43433  0.92819  0.72871  1.0000
  H   H609      1.0  0.45517  0.50198  0.73272  1.0000
  H   H610      1.0  0.43489  0.90103  0.77942  1.0000
  H   H611      1.0  0.33414  0.96525  0.87658  1.0000
  H   H612      1.0  0.46373  0.48519  0.62390  1.0000
  C   C513      1.0  0.31290  0.97790  0.94611  1.0000
  C   C514      1.0  0.24808  0.95687  0.63868  1.0000
  C   C515      1.0  0.46374  0.96367  0.86747  1.0000
  C   C516      1.0  0.32764  0.98082  0.91954  1.0000
  H   H613      1.0  0.29909  0.92841  0.88309  1.0000
  C   C517      1.0  0.30264  0.94237  0.90042  1.0000
  C   C518      1.0  0.45554  0.97462  0.96705  1.0000
  Fe  Fe70      1.0  0.41620  0.97262  0.90235  1.0000
  C   C519      1.0  0.45827  0.48723  0.73635  1.0000
  C   C520      1.0  0.28783  0.93919  0.92687  1.0000
  C   C521      1.0  0.46286  0.90373  0.80879  1.0000
  C   C522      1.0  0.32251  0.96309  0.89681  1.0000
  H   H614      1.0  0.25395  0.95038  0.65878  1.0000
  C   C523      1.0  0.23232  0.97316  0.58720  1.0000
  H   H615      1.0  0.45410  0.90312  0.83170  1.0000
  C   C524      1.0  0.27611  0.87949  0.94968  1.0000
  C   C525      1.0  0.22887  0.95018  0.58622  1.0000
  H   H616      1.0  0.22347  0.87597  0.75679  1.0000
  C   C526      1.0  0.46574  0.53280  0.56771  1.0000
  H   H617      1.0  0.38793  0.96195  0.70443  1.0000
  H   H618      1.0  0.24582  0.93243  0.95042  1.0000
  H   H619      1.0  0.35669  0.97466  0.76309  1.0000
  H   H620      1.0  0.45355  0.90168  0.72769  1.0000
  C   C527      1.0  0.29248  0.95684  0.95060  1.0000
  H   H621      1.0  0.32262  0.97788  0.74920  1.0000
  C   C528      1.0  0.23731  0.94228  0.61181  1.0000
  S   S141      1.0  0.26337  0.86895  0.50417  1.0000
  Fe  Fe71      1.0  0.22835  0.86623  0.51724  1.0000
  H   H622      1.0  0.26541  0.91636  0.98293  1.0000
  C   C529      1.0  0.46299  0.90280  0.74958  1.0000
  H   H623      1.0  0.22584  0.97947  0.56762  1.0000
  H   H624      1.0  0.27287  0.92258  0.92887  1.0000
  C   C530      1.0  0.46658  0.95576  0.71238  1.0000
  H   H625      1.0  0.23523  0.92485  0.61122  1.0000
  C   C531      1.0  0.45198  0.90235  0.77928  1.0000
  C   C532      1.0  0.25134  0.97979  0.63983  1.0000
  H   H626      1.0  0.38604  0.96583  0.76358  1.0000
  S   S142      1.0  0.38129  0.97088  0.90857  1.0000
  C   C533      1.0  0.27151  0.94759  0.49043  1.0000
  H   H627      1.0  0.25857  0.93894  0.50916  1.0000
  H   H628      1.0  0.29071  0.92943  0.50176  1.0000
  H   H629      1.0  0.31138  0.88369  0.49530  1.0000
  C   C534      1.0  0.30865  0.90167  0.98405  1.0000
  H   H630      1.0  0.45328  0.96345  0.84613  1.0000
  H   H631      1.0  0.46372  0.52418  0.94599  1.0000
  C   C535      1.0  0.40275  0.97957  0.70482  1.0000
  H   H632      1.0  0.45413  0.96439  0.88971  1.0000
  C   C536      1.0  0.45742  0.94056  0.98727  1.0000
  H   H633      1.0  0.46436  0.94692  0.86847  1.0000
  H   H634      1.0  0.46859  0.94592  0.69226  1.0000
  H   H635      1.0  0.45584  0.54591  0.95948  1.0000
  C   C537      1.0  0.28504  0.88705  0.98087  1.0000
  H   H636      1.0  0.46805  0.88127  0.69135  1.0000
  H   H637      1.0  0.24123  0.94600  0.98569  1.0000
  C   C538      1.0  0.46265  0.53465  0.50900  1.0000
  H   H638      1.0  0.55809  0.99351  0.39918  1.0000
  Fe  Fe72      1.0  0.70536  0.05347  0.46449  1.0000
  H   H639      1.0  0.48745  0.46712  0.29123  1.0000
  C   C539      1.0  0.54537  0.03257  0.48299  1.0000
  H   H640      1.0  0.48914  0.45160  0.15958  1.0000
  H   H641      1.0  0.47957  0.99586  0.38295  1.0000
  H   H642      1.0  0.50542  0.03911  0.41793  1.0000
  C   C540      1.0  0.47325  0.98818  0.98865  1.0000
  H   H643      1.0  0.53776  0.07391  0.44095  1.0000
  C   C541      1.0  0.50854  0.44970  0.20024  1.0000
  N   N35       1.0  0.71203  0.09436  0.08053  1.0000
  C   C542      1.0  0.69845  0.02747  0.11788  1.0000
  S   S143      1.0  0.60146  0.99911  0.09000  1.0000
  S   S144      1.0  0.53289  0.98926  0.09525  1.0000
  S   S145      1.0  0.71994  0.04912  0.99402  1.0000
  H   H644      1.0  0.56256  0.07030  0.48194  1.0000
  C   C543      1.0  0.65127  0.04745  0.01219  1.0000
  C   C544      1.0  0.62880  0.04478  0.01451  1.0000
  C   C545      1.0  0.61295  0.02944  0.03732  1.0000
  C   C546      1.0  0.61954  0.01679  0.05830  1.0000
  C   C547      1.0  0.64187  0.01922  0.05552  1.0000
  C   C548      1.0  0.65766  0.03445  0.03272  1.0000
  C   C549      1.0  0.51682  0.03735  0.43532  1.0000
  H   H645      1.0  0.59588  0.02790  0.03931  1.0000
  H   H646      1.0  0.64703  0.00930  0.07133  1.0000
  H   H647      1.0  0.67484  0.03626  0.03134  1.0000
  H   H648      1.0  0.67098  0.05971  0.10785  1.0000
  H   H649      1.0  0.69836  0.98527  0.38823  1.0000
  H   H650      1.0  0.49129  0.00648  0.23703  1.0000
  C   C550      1.0  0.52691  0.01301  0.46874  1.0000
  C   C551      1.0  0.48127  0.45977  0.99841  1.0000
  S   S146      1.0  0.66680  0.03344  0.47474  1.0000
  C   C552      1.0  0.48009  0.98807  0.23601  1.0000
  C   C553      1.0  0.68125  0.03431  0.11901  1.0000
  C   C554      1.0  0.70702  0.07139  0.09360  1.0000
  C   C555      1.0  0.48482  0.99120  0.35908  1.0000
  H   H651      1.0  0.49852  0.00033  0.43568  1.0000
  H   H652      1.0  0.47944  0.00669  0.98935  1.0000
  C   C556      1.0  0.71967  0.09602  0.04598  1.0000
  S   S147      1.0  0.71655  0.05209  0.41230  1.0000
  H   H653      1.0  0.71779  0.02476  0.33062  1.0000
  H   H654      1.0  0.62368  0.05482  0.99883  1.0000
  C   C557      1.0  0.69199  0.09913  0.08132  1.0000
  H   H655      1.0  0.70664  0.08179  0.03109  1.0000
  H   H656      1.0  0.67767  0.08623  0.06632  1.0000
  C   C558      1.0  0.47783  0.46685  0.26986  1.0000
  H   H657      1.0  0.49649  0.45808  0.00380  1.0000
  H   H658      1.0  0.68575  0.09911  0.10675  1.0000
  C   C559      1.0  0.68531  0.05587  0.10696  1.0000
  H   H659      1.0  0.66444  0.02264  0.12864  1.0000
  C   C560      1.0  0.48090  0.47814  0.47125  1.0000
  C   C561      1.0  0.54902  0.05462  0.47198  1.0000
  H   H660      1.0  0.49666  0.98871  0.02578  1.0000
  H   H661      1.0  0.50017  0.43096  0.20001  1.0000
  H   H662      1.0  0.50216  0.00500  0.35279  1.0000
  C   C562      1.0  0.51299  0.01550  0.44523  1.0000
  C   C563      1.0  0.53492  0.05689  0.44851  1.0000
  H   H663      1.0  0.69628  0.11637  0.07092  1.0000
  H   H664      1.0  0.69510  0.01060  0.12675  1.0000
  H   H665      1.0  0.52838  0.45179  0.24147  1.0000
  H   H666      1.0  0.53050  0.99436  0.36047  1.0000
  H   H667      1.0  0.52234  0.99555  0.47603  1.0000
  H   H668      1.0  0.47301  0.99186  0.34028  1.0000
  H   H669      1.0  0.56312  0.47481  0.26421  1.0000
  H   H670      1.0  0.56556  0.98757  0.28064  1.0000
  C   C564      1.0  0.52470  0.46199  0.22418  1.0000
  H   H671      1.0  0.48065  0.01176  0.10281  1.0000
  H   H672      1.0  0.58698  0.03454  0.47529  1.0000
  S   S148      1.0  0.50826  0.98795  0.18557  1.0000
  C   C565      1.0  0.50225  0.46133  0.17734  1.0000
  H   H673      1.0  0.53994  0.47477  0.28897  1.0000
  H   H674      1.0  0.47741  0.00176  0.14385  1.0000
  C   C566      1.0  0.52402  0.98260  0.38082  1.0000
  C   C567      1.0  0.71990  0.04228  0.10503  1.0000
  N   N36       1.0  0.48510  0.46827  0.61722  1.0000
  Fe  Fe73      1.0  0.70530  0.06940  0.96873  1.0000
  H   H675      1.0  0.59080  0.06112  0.49422  1.0000
  H   H676      1.0  0.66866  0.06596  0.52639  1.0000
  H   H677      1.0  0.50104  0.02082  0.86781  1.0000
  C   C568      1.0  0.65350  0.04976  0.53016  1.0000
  S   S149      1.0  0.59767  0.02572  0.59082  1.0000
  C   C569      1.0  0.64090  0.98424  0.90438  1.0000
  H   H678      1.0  0.53909  0.03424  0.54732  1.0000
  C   C570      1.0  0.58430  0.04233  0.49829  1.0000
  C   C571      1.0  0.48141  0.47302  0.97133  1.0000
  H   H679      1.0  0.48671  0.46749  0.66986  1.0000
  C   C572      1.0  0.69241  0.07702  0.62729  1.0000
  S   S150      1.0  0.53031  0.99706  0.60158  1.0000
  H   H680      1.0  0.67374  0.02472  0.58832  1.0000
  H   H681      1.0  0.49313  0.00865  0.74839  1.0000
  C   C573      1.0  0.55734  0.04203  0.53919  1.0000
  H   H682      1.0  0.49734  0.44254  0.61442  1.0000
  C   C574      1.0  0.63772  0.04774  0.55522  1.0000
  C   C575      1.0  0.61750  0.02699  0.55990  1.0000
  C   C576      1.0  0.61310  0.00832  0.53898  1.0000
  C   C577      1.0  0.62864  0.01051  0.51352  1.0000
  C   C578      1.0  0.64017  0.01870  0.92583  1.0000
  H   H683      1.0  0.64119  0.06239  0.57101  1.0000
  C   C579      1.0  0.64899  0.03115  0.50904  1.0000
  S   S151      1.0  0.50926  0.99120  0.69462  1.0000
  N   N37       1.0  0.63975  0.99647  0.93459  1.0000
  H   H684      1.0  0.51365  0.47701  0.64986  1.0000
  C   C580      1.0  0.48443  0.00497  0.86558  1.0000
  C   C581      1.0  0.52695  0.98417  0.78099  1.0000
  H   H685      1.0  0.67122  0.08534  0.66005  1.0000
  C   C582      1.0  0.53630  0.00126  0.80492  1.0000
  C   C583      1.0  0.61887  0.98327  0.95479  1.0000
  H   H686      1.0  0.51573  0.99878  0.89939  1.0000
  S   S152      1.0  0.71038  0.99937  0.93905  1.0000
  C   C584      1.0  0.55417  0.00646  0.51716  1.0000
  H   H687      1.0  0.49026  0.45548  0.49803  1.0000
  H   H688      1.0  0.56340  0.06085  0.53608  1.0000
  H   H689      1.0  0.59565  0.04093  0.51709  1.0000
  H   H690      1.0  0.53633  0.99680  0.52679  1.0000
  H   H691      1.0  0.63794  0.02781  0.94771  1.0000
  S   S153      1.0  0.71011  0.05802  0.91845  1.0000
  C   C585      1.0  0.48124  0.44408  0.61322  1.0000
  C   C586      1.0  0.69412  0.06029  0.60641  1.0000
  H   H692      1.0  0.55344  0.01524  0.80152  1.0000
  H   H693      1.0  0.56741  0.04026  0.55970  1.0000
  C   C587      1.0  0.65439  0.03374  0.62174  1.0000
  C   C588      1.0  0.67222  0.07221  0.64454  1.0000
  C   C589      1.0  0.65322  0.05063  0.64166  1.0000
  C   C590      1.0  0.49889  0.98329  0.89668  1.0000
  C   C591      1.0  0.65978  0.00130  0.95534  1.0000
  C   C592      1.0  0.52346  0.00073  0.83276  1.0000
  H   H694      1.0  0.65672  0.03098  0.91444  1.0000
  H   H695      1.0  0.48641  0.46817  0.78706  1.0000
  Fe  Fe74      1.0  0.56345  0.99456  0.60305  1.0000
  H   H696      1.0  0.62633  0.01599  0.90837  1.0000
  H   H697      1.0  0.55628  0.99695  0.49571  1.0000
  C   C593      1.0  0.67441  0.03841  0.60410  1.0000
  H   H698      1.0  0.61872  0.99304  0.97735  1.0000
  H   H699      1.0  0.59764  0.99225  0.54214  1.0000
  H   H700      1.0  0.47350  0.00563  0.88623  1.0000
  H   H701      1.0  0.70656  0.08151  0.54849  1.0000
  H   H702      1.0  0.56553  0.00571  0.53657  1.0000
  N   N38       1.0  0.55994  0.03068  0.50887  1.0000
  H   H703      1.0  0.62487  0.99609  0.49710  1.0000
  C   C594      1.0  0.47590  0.46829  0.76700  1.0000
  C   C595      1.0  0.48020  0.99111  0.74386  1.0000
  H   H704      1.0  0.67611  0.01370  0.94381  1.0000
  H   H705      1.0  0.53133  0.01459  0.85036  1.0000
  C   C596      1.0  0.49707  0.47761  0.64856  1.0000
  H   H706      1.0  0.67416  0.01133  0.88833  1.0000
  H   H707      1.0  0.49141  0.99223  0.53182  1.0000
  H   H708      1.0  0.65892  0.00920  0.97920  1.0000
  H   H709      1.0  0.47633  0.00620  0.84246  1.0000
  H   H710      1.0  0.63934  0.01715  0.61903  1.0000
  H   H711      1.0  0.47309  0.43673  0.58930  1.0000
  H   H712      1.0  0.63738  0.04703  0.65443  1.0000
  C   C597      1.0  0.50070  0.98303  0.83732  1.0000
  C   C598      1.0  0.47762  0.46161  0.49538  1.0000
  H   H713      1.0  0.70143  0.04138  0.54850  1.0000
  H   H714      1.0  0.53659  0.98506  0.75883  1.0000
  N   N39       1.0  0.48706  0.98355  0.86616  1.0000
  H   H715      1.0  0.71128  0.03117  0.58304  1.0000
  H   H716      1.0  0.52841  0.47595  0.59908  1.0000
  H   H717      1.0  0.48871  0.98305  0.91881  1.0000
  S   S154      1.0  0.67077  0.06733  0.98361  1.0000
  H   H718      1.0  0.66130  0.98529  0.96025  1.0000
  H   H719      1.0  0.70667  0.09403  0.63021  1.0000
  C   C599      1.0  0.71469  0.04648  0.56786  1.0000
  C   C600      1.0  0.71791  0.98767  0.87595  1.0000
  H   H720      1.0  0.47172  0.00685  0.49413  1.0000
  C   C601      1.0  0.65998  0.99467  0.88281  1.0000
  N   N40       1.0  0.71563  0.06597  0.58812  1.0000
  H   H721      1.0  0.67664  0.99165  0.83856  1.0000
  C   C602      1.0  0.66155  0.98358  0.85411  1.0000
  C   C603      1.0  0.49923  0.48240  0.58964  1.0000
  Fe  Fe75      1.0  0.53516  0.56322  0.38011  1.0000
  S   S155      1.0  0.55284  0.54526  0.40448  1.0000
  S   S156      1.0  0.54071  0.59964  0.39335  1.0000
  Fe  Fe76      1.0  0.51001  0.52232  0.33178  1.0000
  S   S157      1.0  0.52621  0.50196  0.35375  1.0000
  S   S158      1.0  0.48659  0.51185  0.28693  1.0000
  Fe  Fe77      1.0  0.51841  0.51351  0.40270  1.0000
  H   H722      1.0  0.60429  0.71140  0.36127  1.0000
  Fe  Fe78      1.0  0.55888  0.53566  0.35335  1.0000
  S   S159      1.0  0.59305  0.53707  0.33765  1.0000
  S   S160      1.0  0.50027  0.53203  0.38077  1.0000
  S   S161      1.0  0.54314  0.55548  0.32900  1.0000
  Fe  Fe79      1.0  0.70028  0.61466  0.21272  1.0000
  S   S162      1.0  0.58677  0.66206  0.01576  1.0000
  S   S163      1.0  0.66157  0.59572  0.22288  1.0000
  S   S164      1.0  0.48621  0.94005  0.03513  1.0000
  H   H723      1.0  0.47217  0.94008  0.19297  1.0000
  Fe  Fe80      1.0  0.66417  0.89299  0.30415  1.0000
  S   S165      1.0  0.62951  0.88383  0.32522  1.0000
  S   S166      1.0  0.69844  0.91915  0.32466  1.0000
  Fe  Fe81      1.0  0.64399  0.85497  0.25040  1.0000
  S   S167      1.0  0.60784  0.84356  0.26797  1.0000
  S   S168      1.0  0.65643  0.84079  0.20742  1.0000
  Fe  Fe82      1.0  0.61832  0.88169  0.27274  1.0000
  S   S169      1.0  0.60191  0.90431  0.25801  1.0000
  Fe  Fe83      1.0  0.62270  0.84684  0.31864  1.0000
  S   S170      1.0  0.60536  0.81989  0.35837  1.0000
  S   S171      1.0  0.65369  0.89288  0.25217  1.0000
  S   S172      1.0  0.65807  0.85602  0.30066  1.0000
  Fe  Fe84      1.0  0.62250  0.74586  0.06174  1.0000
  S   S173      1.0  0.65759  0.76358  0.03822  1.0000
  S   S174      1.0  0.60753  0.75992  0.10207  1.0000
  Fe  Fe85      1.0  0.60809  0.70137  0.01962  1.0000
  C   C604      1.0  0.47510  0.48631  0.26217  1.0000
  H   H724      1.0  0.71307  0.73027  0.16332  1.0000
  Fe  Fe86      1.0  0.65774  0.72907  0.04261  1.0000
  S   S175      1.0  0.68621  0.71877  0.04980  1.0000
  H   H725      1.0  0.52762  0.56204  0.48527  1.0000
  S   S176      1.0  0.65225  0.77801  0.45511  1.0000
  S   S177      1.0  0.62413  0.71246  0.06924  1.0000
  S   S178      1.0  0.60325  0.73338  0.01400  1.0000
  Fe  Fe87      1.0  0.53305  0.93313  0.12773  1.0000
  S   S179      1.0  0.53329  0.90049  0.14697  1.0000
  Fe  Fe88      1.0  0.51296  0.95295  0.07579  1.0000
  C   C605      1.0  0.68642  0.86030  0.46169  1.0000
  S   S180      1.0  0.54328  0.94545  0.07621  1.0000
  S   S181      1.0  0.50065  0.93676  0.12531  1.0000
  Fe  Fe89      1.0  0.56265  0.98081  0.09871  1.0000
  C   C606      1.0  0.70728  0.68556  0.11417  1.0000
  H   H726      1.0  0.64989  0.86437  0.38394  1.0000
  C   C607      1.0  0.58441  0.90266  0.22450  1.0000
  C   C608      1.0  0.56862  0.88160  0.21098  1.0000
  C   C609      1.0  0.55329  0.88117  0.18687  1.0000
  C   C610      1.0  0.55374  0.90176  0.17589  1.0000
  C   C611      1.0  0.56985  0.92279  0.18897  1.0000
  C   C612      1.0  0.58500  0.92320  0.21320  1.0000
  H   H727      1.0  0.56767  0.86562  0.21990  1.0000
  H   H728      1.0  0.54084  0.86480  0.17693  1.0000
  H   H729      1.0  0.57057  0.93878  0.18072  1.0000
  H   H730      1.0  0.59705  0.93957  0.22363  1.0000
  C   C613      1.0  0.64227  0.81856  0.17799  1.0000
  C   C614      1.0  0.61843  0.80561  0.17710  1.0000
  C   C615      1.0  0.60815  0.78781  0.15365  1.0000
  C   C616      1.0  0.62149  0.78271  0.13085  1.0000
  C   C617      1.0  0.64530  0.79575  0.13172  1.0000
  C   C618      1.0  0.65559  0.81356  0.15511  1.0000
  H   H731      1.0  0.60789  0.80919  0.19444  1.0000
  H   H732      1.0  0.58970  0.77783  0.15316  1.0000
  H   H733      1.0  0.65580  0.79207  0.11437  1.0000
  H   H734      1.0  0.67405  0.82343  0.15557  1.0000
  C   C619      1.0  0.61872  0.80877  0.38557  1.0000
  C   C620      1.0  0.60549  0.79304  0.40992  1.0000
  C   C621      1.0  0.61537  0.78339  0.43140  1.0000
  C   C622      1.0  0.63866  0.78935  0.42870  1.0000
  C   C623      1.0  0.65185  0.80499  0.40422  1.0000
  C   C624      1.0  0.64197  0.81465  0.38281  1.0000
  H   H735      1.0  0.58744  0.78822  0.41213  1.0000
  H   H736      1.0  0.60500  0.77135  0.45004  1.0000
  H   H737      1.0  0.66985  0.80964  0.40188  1.0000
  H   H738      1.0  0.65223  0.82633  0.36384  1.0000
  C   C625      1.0  0.70975  0.94469  0.34910  1.0000
  H   H739      1.0  0.69467  0.61086  0.28436  1.0000
  C   C626      1.0  0.69722  0.95611  0.36019  1.0000
  C   C627      1.0  0.57457  0.51467  0.23438  1.0000
  H   H740      1.0  0.67942  0.94939  0.35363  1.0000
  C   C628      1.0  0.67896  0.84331  0.48584  1.0000
  C   C629      1.0  0.63834  0.58905  0.37364  1.0000
  C   C630      1.0  0.69841  0.72381  0.11507  1.0000
  C   C631      1.0  0.69377  0.71020  0.08679  1.0000
  C   C632      1.0  0.69809  0.69096  0.08658  1.0000
  H   H741      1.0  0.54391  0.52885  0.25274  1.0000
  H   H742      1.0  0.49598  0.91573  0.19159  1.0000
  H   H743      1.0  0.71043  0.87917  0.40473  1.0000
  H   H744      1.0  0.69497  0.68058  0.06463  1.0000
  H   H745      1.0  0.48836  0.56568  0.42434  1.0000
  C   C633      1.0  0.55718  0.61819  0.42563  1.0000
  C   C634      1.0  0.56451  0.60997  0.45212  1.0000
  C   C635      1.0  0.48216  0.51691  0.02409  1.0000
  H   H746      1.0  0.50636  0.53698  0.46483  1.0000
  C   C636      1.0  0.57239  0.65615  0.45269  1.0000
  C   C637      1.0  0.56131  0.64139  0.42605  1.0000
  H   H747      1.0  0.56177  0.59231  0.45208  1.0000
  C   C638      1.0  0.71330  0.70005  0.14166  1.0000
  H   H748      1.0  0.57518  0.67385  0.45278  1.0000
  H   H749      1.0  0.55563  0.64795  0.40580  1.0000
  C   C639      1.0  0.61230  0.55437  0.30654  1.0000
  C   C640      1.0  0.63345  0.55404  0.30236  1.0000
  C   C641      1.0  0.64905  0.56711  0.27759  1.0000
  C   C642      1.0  0.64360  0.58056  0.25646  1.0000
  C   C643      1.0  0.62237  0.58072  0.26048  1.0000
  C   C644      1.0  0.60691  0.56792  0.28554  1.0000
  H   H750      1.0  0.63776  0.54353  0.31834  1.0000
  H   H751      1.0  0.66491  0.56614  0.27417  1.0000
  H   H752      1.0  0.61785  0.59085  0.24407  1.0000
  H   H753      1.0  0.59077  0.56843  0.28839  1.0000
  H   H754      1.0  0.49063  0.94550  0.32832  1.0000
  H   H755      1.0  0.61855  0.94369  0.12702  1.0000
  C   C645      1.0  0.64390  0.60318  0.34630  1.0000
  Fe  Fe90      1.0  0.52157  0.97251  0.14496  1.0000
  H   H756      1.0  0.49200  0.93559  0.25984  1.0000
  H   H757      1.0  0.64731  0.60622  0.15832  1.0000
  C   C646      1.0  0.53904  0.95534  0.26229  1.0000
  H   H758      1.0  0.48821  0.88257  0.22207  1.0000
  C   C647      1.0  0.48428  0.97447  0.21248  1.0000
  H   H759      1.0  0.52932  0.96374  0.25344  1.0000
  H   H760      1.0  0.63361  0.85129  0.43572  1.0000
  C   C648      1.0  0.63768  0.66545  0.06815  1.0000
  C   C649      1.0  0.52857  0.49783  0.20163  1.0000
  N   N41       1.0  0.50971  0.91725  0.23978  1.0000
  S   S182      1.0  0.71944  0.64924  0.23684  1.0000
  H   H761      1.0  0.48905  0.91115  0.28325  1.0000
  C   C650      1.0  0.53138  0.93132  0.25722  1.0000
  H   H762      1.0  0.67005  0.64045  0.19237  1.0000
  H   H763      1.0  0.51316  0.59745  0.45317  1.0000
  C   C651      1.0  0.54477  0.51554  0.26853  1.0000
  H   H764      1.0  0.66720  0.89443  0.37591  1.0000
  C   C652      1.0  0.70644  0.60882  0.30182  1.0000
  H   H765      1.0  0.66918  0.62279  0.31107  1.0000
  C   C653      1.0  0.56633  0.93597  0.28451  1.0000
  H   H766      1.0  0.69950  0.88815  0.37148  1.0000
  H   H767      1.0  0.67260  0.81736  0.99185  1.0000
  N   N42       1.0  0.48376  0.96798  0.36042  1.0000
  C   C654      1.0  0.55606  0.48585  0.27546  1.0000
  N   N43       1.0  0.63299  0.77981  0.27202  1.0000
  C   C655      1.0  0.65486  0.79879  0.28378  1.0000
  C   C656      1.0  0.63727  0.77317  0.23871  1.0000
  C   C657      1.0  0.61603  0.78878  0.26902  1.0000
  C   C658      1.0  0.62454  0.76055  0.29569  1.0000
  C   C659      1.0  0.61945  0.76419  0.32842  1.0000
  C   C660      1.0  0.62152  0.73804  0.28751  1.0000
  C   C661      1.0  0.61234  0.74669  0.35173  1.0000
  C   C662      1.0  0.61421  0.72055  0.31100  1.0000
  C   C663      1.0  0.60975  0.72491  0.34306  1.0000
  H   H768      1.0  0.66790  0.79262  0.28737  1.0000
  H   H769      1.0  0.66212  0.81340  0.26612  1.0000
  H   H770      1.0  0.65276  0.80617  0.30748  1.0000
  H   H771      1.0  0.65049  0.76699  0.23887  1.0000
  H   H772      1.0  0.64392  0.78811  0.22173  1.0000
  H   H773      1.0  0.62130  0.75966  0.22758  1.0000
  H   H774      1.0  0.61346  0.79634  0.29231  1.0000
  H   H775      1.0  0.62158  0.80279  0.25055  1.0000
  H   H776      1.0  0.59905  0.77484  0.26148  1.0000
  H   H777      1.0  0.62105  0.78070  0.33628  1.0000
  H   H778      1.0  0.62473  0.73347  0.26323  1.0000
  H   H779      1.0  0.60895  0.75012  0.37673  1.0000
  H   H780      1.0  0.70566  0.64882  0.30951  1.0000
  C   C664      1.0  0.47981  0.55662  0.44739  1.0000
  C   C665      1.0  0.71536  0.64517  0.32863  1.0000
  C   C666      1.0  0.70797  0.97647  0.37973  1.0000
  C   C667      1.0  0.57470  0.62442  0.47932  1.0000
  H   H781      1.0  0.57728  0.92856  0.29234  1.0000
  H   H782      1.0  0.54179  0.90410  0.26544  1.0000
  H   H783      1.0  0.65046  0.57351  0.40930  1.0000
  N   N44       1.0  0.49615  0.56348  0.47501  1.0000
  C   C668      1.0  0.55976  0.96916  0.27784  1.0000
  C   C669      1.0  0.47499  0.95407  0.00911  1.0000
  N   N45       1.0  0.70708  0.62004  0.33377  1.0000
  C   C670      1.0  0.63975  0.83347  0.47398  1.0000
  N   N46       1.0  0.67902  0.88125  0.41568  1.0000
  H   H784      1.0  0.49772  0.51655  0.01607  1.0000
  H   H785      1.0  0.50624  0.97566  0.31812  1.0000
  N   N47       1.0  0.62429  0.87639  0.15348  1.0000
  C   C671      1.0  0.61158  0.86427  0.18325  1.0000
  C   C672      1.0  0.62458  0.85903  0.12980  1.0000
  C   C673      1.0  0.64839  0.89158  0.16295  1.0000
  C   C674      1.0  0.67749  0.59506  0.37610  1.0000
  H   H786      1.0  0.59354  0.85171  0.17796  1.0000
  H   H787      1.0  0.61964  0.85443  0.19479  1.0000
  H   H788      1.0  0.61114  0.87676  0.20177  1.0000
  H   H789      1.0  0.60726  0.84461  0.12526  1.0000
  H   H790      1.0  0.63490  0.85068  0.13884  1.0000
  H   H791      1.0  0.63208  0.86715  0.10589  1.0000
  H   H792      1.0  0.64949  0.90390  0.18276  1.0000
  H   H793      1.0  0.65676  0.88146  0.17284  1.0000
  H   H794      1.0  0.65887  0.90145  0.14165  1.0000
  H   H795      1.0  0.58162  0.85818  0.12571  1.0000
  H   H796      1.0  0.58030  0.50387  0.21936  1.0000
  H   H797      1.0  0.48264  0.97651  0.08215  1.0000
  C   C675      1.0  0.69425  0.87651  0.39305  1.0000
  H   H798      1.0  0.61208  0.70352  0.30438  1.0000
  H   H799      1.0  0.62083  0.58069  0.38272  1.0000
  S   S183      1.0  0.64181  0.71700  0.99337  1.0000
  H   H800      1.0  0.51195  0.94437  0.20736  1.0000
  C   C676      1.0  0.57881  0.64763  0.47979  1.0000
  H   H801      1.0  0.51800  0.89094  0.22079  1.0000
  H   H802      1.0  0.64954  0.68159  0.13441  1.0000
  H   H803      1.0  0.68559  0.85844  0.38374  1.0000
  C   C677      1.0  0.49360  0.57149  0.99345  1.0000
  C   C678      1.0  0.66612  0.61302  0.33337  1.0000
  H   H804      1.0  0.62537  0.60856  0.11249  1.0000
  H   H805      1.0  0.69855  0.91822  0.41062  1.0000
  H   H806      1.0  0.52655  0.92851  0.19349  1.0000
  S   S184      1.0  0.55326  0.96797  0.15051  1.0000
  H   H807      1.0  0.62027  0.61999  0.06098  1.0000
  C   C679      1.0  0.66058  0.66281  0.16538  1.0000
  H   H808      1.0  0.70753  0.90649  0.44336  1.0000
  H   H809      1.0  0.69556  0.73890  0.11535  1.0000
  H   H810      1.0  0.61370  0.67290  0.11610  1.0000
  C   C680      1.0  0.61280  0.88908  0.13912  1.0000
  H   H811      1.0  0.47568  0.94132  0.41765  1.0000
  C   C681      1.0  0.70846  0.71895  0.14217  1.0000
  C   C682      1.0  0.50941  0.95305  0.43447  1.0000
  H   H812      1.0  0.53583  0.51643  0.20114  1.0000
  H   H813      1.0  0.59327  0.64327  0.12229  1.0000
  H   H814      1.0  0.59577  0.61247  0.08804  1.0000
  H   H815      1.0  0.56867  0.49670  0.29428  1.0000
  N   N48       1.0  0.55229  0.50022  0.25066  1.0000
  C   C683      1.0  0.66035  0.88145  0.39584  1.0000
  H   H816      1.0  0.68950  0.59095  0.38857  1.0000
  C   C684      1.0  0.59061  0.87682  0.12554  1.0000
  C   C685      1.0  0.67065  0.86391  0.44219  1.0000
  S   S185      1.0  0.71030  0.62951  0.16199  1.0000
  C   C686      1.0  0.50447  0.89263  0.23554  1.0000
  H   H817      1.0  0.48197  0.96979  0.12477  1.0000
  H   H818      1.0  0.64887  0.88621  0.41078  1.0000
  C   C687      1.0  0.68373  0.60958  0.34817  1.0000
  H   H819      1.0  0.65124  0.66100  0.05924  1.0000
  C   C688      1.0  0.62262  0.91363  0.13933  1.0000
  H   H820      1.0  0.63908  0.92448  0.14994  1.0000
  C   C689      1.0  0.60869  0.62629  0.07242  1.0000
  H   H821      1.0  0.59463  0.65734  0.08411  1.0000
  H   H822      1.0  0.59909  0.62900  0.05202  1.0000
  H   H823      1.0  0.50374  0.94181  0.45567  1.0000
  C   C690      1.0  0.49033  0.91785  0.25800  1.0000
  H   H824      1.0  0.62162  0.82254  0.47822  1.0000
  C   C691      1.0  0.60515  0.65566  0.10407  1.0000
  H   H825      1.0  0.63065  0.60574  0.33427  1.0000
  H   H826      1.0  0.70466  0.87025  0.45796  1.0000
  H   H827      1.0  0.68148  0.90888  0.44735  1.0000
  C   C692      1.0  0.48296  0.97801  0.00952  1.0000
  C   C693      1.0  0.54569  0.92200  0.26889  1.0000
  C   C694      1.0  0.51386  0.55616  0.46671  1.0000
  C   C695      1.0  0.69221  0.90468  0.42993  1.0000
  C   C696      1.0  0.48966  0.96209  0.32765  1.0000
  H   H828      1.0  0.52744  0.50538  0.27947  1.0000
  N   N49       1.0  0.62177  0.64794  0.09132  1.0000
  C   C697      1.0  0.50019  0.96789  0.38478  1.0000
  C   C698      1.0  0.57923  0.88838  0.11235  1.0000
  H   H829      1.0  0.56203  0.87872  0.10290  1.0000
  C   C699      1.0  0.64824  0.66473  0.13905  1.0000
  H   H830      1.0  0.64642  0.68287  0.07944  1.0000
  C   C700      1.0  0.63488  0.64543  0.11882  1.0000
  H   H831      1.0  0.62868  0.66731  0.04637  1.0000
  H   H832      1.0  0.67097  0.67786  0.18019  1.0000
  H   H833      1.0  0.58021  0.92126  0.10328  1.0000
  C   C701      1.0  0.51103  0.92691  0.20675  1.0000
  C   C702      1.0  0.49335  0.95309  0.41241  1.0000
  H   H834      1.0  0.50263  0.88396  0.25945  1.0000
  C   C703      1.0  0.63484  0.62416  0.12647  1.0000
  H   H835      1.0  0.52226  0.56337  0.44282  1.0000
  H   H836      1.0  0.55672  0.52515  0.28861  1.0000
  C   C704      1.0  0.65506  0.58495  0.38845  1.0000
  C   C705      1.0  0.61101  0.92500  0.12617  1.0000
  C   C706      1.0  0.58943  0.91241  0.11263  1.0000
  C   C707      1.0  0.64738  0.62251  0.15280  1.0000
  C   C708      1.0  0.66021  0.64178  0.17217  1.0000
  H   H837      1.0  0.47369  0.90716  0.24568  1.0000
  S   S186      1.0  0.50671  0.48986  0.44756  1.0000
  C   C709      1.0  0.64698  0.85014  0.44938  1.0000
  H   H838      1.0  0.58826  0.52434  0.25248  1.0000
  C   C710      1.0  0.51225  0.48535  0.17801  1.0000
  H   H839      1.0  0.57381  0.52779  0.21803  1.0000
  Fe  Fe91      1.0  0.63850  0.74981  0.99093  1.0000
  H   H840      1.0  0.54501  0.96706  0.44653  1.0000
  H   H841      1.0  0.50524  0.57582  0.01476  1.0000
  C   C711      1.0  0.57339  0.95948  0.28889  1.0000
  C   C712      1.0  0.53267  0.96742  0.42952  1.0000
  H   H842      1.0  0.70043  0.58995  0.30470  1.0000
  H   H843      1.0  0.71059  0.67080  0.11363  1.0000
  H   H844      1.0  0.47898  0.57471  0.00078  1.0000
  H   H845      1.0  0.50702  0.49428  0.16044  1.0000
  H   H846      1.0  0.51982  0.55034  0.98978  1.0000
  H   H847      1.0  0.47657  0.96008  0.30920  1.0000
  H   H848      1.0  0.57711  0.61596  0.99766  1.0000
  H   H849      1.0  0.71423  0.65389  0.35165  1.0000
  H   H850      1.0  0.47259  0.53787  0.44162  1.0000
  C   C713      1.0  0.50709  0.58912  0.47743  1.0000
  C   C714      1.0  0.53513  0.48654  0.22571  1.0000
  C   C715      1.0  0.47386  0.53128  0.00944  1.0000
  H   H851      1.0  0.47604  0.49010  0.05897  1.0000
  H   H852      1.0  0.58967  0.97025  0.30037  1.0000
  C   C716      1.0  0.47111  0.96750  0.10307  1.0000
  H   H853      1.0  0.49490  0.59516  0.48735  1.0000
  H   H854      1.0  0.72047  0.59908  0.35681  1.0000
  C   C717      1.0  0.53996  0.98226  0.40284  1.0000
  Fe  Fe92      1.0  0.52498  0.56054  0.88628  1.0000
  S   S187      1.0  0.54669  0.54661  0.90896  1.0000
  S   S188      1.0  0.52499  0.59403  0.90347  1.0000
  Fe  Fe93      1.0  0.50718  0.52167  0.83372  1.0000
  S   S189      1.0  0.52869  0.50574  0.85346  1.0000
  S   S190      1.0  0.48351  0.51198  0.78916  1.0000
  Fe  Fe94      1.0  0.51627  0.51153  0.90323  1.0000
  C   C718      1.0  0.64435  0.89111  0.66076  1.0000
  Fe  Fe95      1.0  0.55710  0.54255  0.85745  1.0000
  S   S191      1.0  0.59612  0.56233  0.85084  1.0000
  S   S192      1.0  0.49373  0.52584  0.88328  1.0000
  S   S193      1.0  0.53630  0.55796  0.83506  1.0000
  Fe  Fe96      1.0  0.70075  0.60596  0.72326  1.0000
  H   H855      1.0  0.67221  0.54113  0.79819  1.0000
  S   S194      1.0  0.66849  0.57352  0.73812  1.0000
  C   C719      1.0  0.52137  0.48436  0.58353  1.0000
  S   S195      1.0  0.70504  0.61990  0.67217  1.0000
  Fe  Fe97      1.0  0.65992  0.89700  0.80386  1.0000
  S   S196      1.0  0.62532  0.88452  0.82693  1.0000
  S   S197      1.0  0.69186  0.92918  0.81991  1.0000
  Fe  Fe98      1.0  0.64154  0.85810  0.75132  1.0000
  S   S198      1.0  0.60547  0.84353  0.77089  1.0000
  S   S199      1.0  0.65440  0.84390  0.70877  1.0000
  Fe  Fe99      1.0  0.61227  0.88076  0.77537  1.0000
  S   S200      1.0  0.58999  0.89857  0.76679  1.0000
  Fe  Fe100     1.0  0.62217  0.84879  0.82037  1.0000
  S   S201      1.0  0.60670  0.82211  0.86080  1.0000
  S   S202      1.0  0.64729  0.89501  0.75251  1.0000
  S   S203      1.0  0.65783  0.86148  0.80060  1.0000
  Fe  Fe101     1.0  0.61988  0.74626  0.56882  1.0000
  S   S204      1.0  0.65538  0.76680  0.54822  1.0000
  S   S205      1.0  0.60393  0.75978  0.60856  1.0000
  Fe  Fe102     1.0  0.61031  0.70384  0.52387  1.0000
  C   C720      1.0  0.49634  0.90698  0.77919  1.0000
  H   H856      1.0  0.65434  0.90027  0.63870  1.0000
  Fe  Fe103     1.0  0.65818  0.73362  0.55166  1.0000
  S   S206      1.0  0.68980  0.72951  0.56450  1.0000
  C   C721      1.0  0.48340  0.97842  0.71792  1.0000
  S   S207      1.0  0.65115  0.77055  0.94359  1.0000
  S   S208      1.0  0.62375  0.71391  0.57529  1.0000
  S   S209      1.0  0.60292  0.73446  0.51936  1.0000
  Fe  Fe104     1.0  0.53977  0.94479  0.62714  1.0000
  S   S210      1.0  0.54401  0.91290  0.63917  1.0000
  Fe  Fe105     1.0  0.51544  0.96170  0.57842  1.0000
  S   S211      1.0  0.49333  0.94799  0.53275  1.0000
  S   S212      1.0  0.54915  0.96043  0.57699  1.0000
  S   S213      1.0  0.50470  0.94302  0.62667  1.0000
  H   H857      1.0  0.68697  0.85796  0.86170  1.0000
  C   C722      1.0  0.63517  0.64538  0.51116  1.0000
  C   C723      1.0  0.68840  0.56784  0.83610  1.0000
  C   C724      1.0  0.58000  0.90340  0.72909  1.0000
  C   C725      1.0  0.57023  0.88587  0.70563  1.0000
  C   C726      1.0  0.55999  0.88937  0.67766  1.0000
  C   C727      1.0  0.55936  0.91040  0.67286  1.0000
  C   C728      1.0  0.56936  0.92804  0.69610  1.0000
  C   C729      1.0  0.57940  0.92444  0.72424  1.0000
  H   H858      1.0  0.56947  0.86920  0.70993  1.0000
  H   H859      1.0  0.55184  0.87546  0.66016  1.0000
  H   H860      1.0  0.56903  0.94432  0.69274  1.0000
  H   H861      1.0  0.58660  0.93797  0.74252  1.0000
  C   C730      1.0  0.63990  0.81992  0.68198  1.0000
  C   C731      1.0  0.61606  0.80679  0.68219  1.0000
  C   C732      1.0  0.60540  0.78826  0.65991  1.0000
  C   C733      1.0  0.61837  0.78251  0.63730  1.0000
  C   C734      1.0  0.64222  0.79534  0.63763  1.0000
  C   C735      1.0  0.65288  0.81395  0.65976  1.0000
  H   H862      1.0  0.60578  0.81099  0.69920  1.0000
  H   H863      1.0  0.58693  0.77846  0.65983  1.0000
  H   H864      1.0  0.65245  0.79113  0.62049  1.0000
  H   H865      1.0  0.67133  0.82389  0.65945  1.0000
  C   C736      1.0  0.61972  0.80844  0.88389  1.0000
  C   C737      1.0  0.64141  0.81066  0.87604  1.0000
  C   C738      1.0  0.65082  0.79908  0.89472  1.0000
  C   C739      1.0  0.63873  0.78524  0.92148  1.0000
  C   C740      1.0  0.61711  0.78314  0.92940  1.0000
  C   C741      1.0  0.60767  0.79464  0.91064  1.0000
  H   H866      1.0  0.65079  0.82102  0.85541  1.0000
  H   H867      1.0  0.66752  0.80073  0.88835  1.0000
  H   H868      1.0  0.60759  0.77253  0.94984  1.0000
  H   H869      1.0  0.59085  0.79276  0.91688  1.0000
  C   C742      1.0  0.69474  0.94956  0.85119  1.0000
  H   H870      1.0  0.64272  0.63658  0.49539  1.0000
  C   C743      1.0  0.67992  0.94372  0.87826  1.0000
  C   C744      1.0  0.69827  0.69217  0.65442  1.0000
  H   H871      1.0  0.66510  0.92699  0.87936  1.0000
  H   H872      1.0  0.61747  0.63285  0.51849  1.0000
  C   C745      1.0  0.68070  0.69880  0.65374  1.0000
  C   C746      1.0  0.67796  0.71036  0.62656  1.0000
  C   C747      1.0  0.69311  0.71588  0.59996  1.0000
  H   H873      1.0  0.50304  0.58407  0.97369  1.0000
  H   H874      1.0  0.68101  0.66404  0.51496  1.0000
  C   C748      1.0  0.61959  0.85589  0.62892  1.0000
  H   H875      1.0  0.66422  0.71512  0.62627  1.0000
  H   H876      1.0  0.49222  0.89844  0.66586  1.0000
  C   C749      1.0  0.66397  0.88016  0.88730  1.0000
  C   C750      1.0  0.54324  0.61317  0.93373  1.0000
  C   C751      1.0  0.54568  0.63574  0.93605  1.0000
  C   C752      1.0  0.55977  0.65135  0.96006  1.0000
  H   H877      1.0  0.62632  0.53939  0.87365  1.0000
  C   C753      1.0  0.52631  0.50755  0.53544  1.0000
  C   C754      1.0  0.55496  0.60629  0.95582  1.0000
  H   H878      1.0  0.53657  0.64121  0.91924  1.0000
  H   H879      1.0  0.58003  0.80748  0.58904  1.0000
  H   H880      1.0  0.65298  0.83601  0.58745  1.0000
  H   H881      1.0  0.55346  0.58909  0.95430  1.0000
  C   C755      1.0  0.61458  0.56651  0.81661  1.0000
  C   C756      1.0  0.60914  0.55025  0.79131  1.0000
  C   C757      1.0  0.62561  0.55296  0.76695  1.0000
  C   C758      1.0  0.64742  0.57227  0.76699  1.0000
  C   C759      1.0  0.65245  0.58903  0.79148  1.0000
  C   C760      1.0  0.63631  0.58591  0.81645  1.0000
  H   H882      1.0  0.59263  0.53509  0.79129  1.0000
  H   H883      1.0  0.62155  0.53982  0.74825  1.0000
  H   H884      1.0  0.66905  0.60399  0.79193  1.0000
  H   H885      1.0  0.64096  0.59833  0.83625  1.0000
  C   C761      1.0  0.59811  0.83853  0.61784  1.0000
  C   C762      1.0  0.64822  0.53809  0.83502  1.0000
  H   H886      1.0  0.64577  0.95304  0.82409  1.0000
  C   C763      1.0  0.71338  0.69760  0.62778  1.0000
  C   C764      1.0  0.70376  0.98141  0.90369  1.0000
  N   N50       1.0  0.59470  0.62764  0.85559  1.0000
  C   C765      1.0  0.59063  0.60997  0.88081  1.0000
  C   C766      1.0  0.57272  0.62784  0.84852  1.0000
  C   C767      1.0  0.60219  0.62018  0.82521  1.0000
  C   C768      1.0  0.61144  0.65066  0.86785  1.0000
  C   C769      1.0  0.60664  0.65995  0.89682  1.0000
  C   C770      1.0  0.63266  0.66450  0.85182  1.0000
  H   H887      1.0  0.52255  0.59641  0.49304  1.0000
  C   C771      1.0  0.64799  0.68618  0.86432  1.0000
  H   H888      1.0  0.71581  0.61385  0.83135  1.0000
  H   H889      1.0  0.58399  0.61347  0.90409  1.0000
  H   H890      1.0  0.57770  0.59251  0.87273  1.0000
  H   H891      1.0  0.60661  0.60879  0.88625  1.0000
  H   H892      1.0  0.56485  0.63136  0.87068  1.0000
  H   H893      1.0  0.55970  0.61084  0.83895  1.0000
  H   H894      1.0  0.57510  0.64123  0.83015  1.0000
  H   H895      1.0  0.60458  0.63201  0.80449  1.0000
  H   H896      1.0  0.58938  0.60255  0.81725  1.0000
  H   H897      1.0  0.59092  0.65046  0.91040  1.0000
  H   H898      1.0  0.63788  0.65894  0.82968  1.0000
  H   H899      1.0  0.49736  0.95348  0.76593  1.0000
  S   S214      1.0  0.55621  0.97887  0.65339  1.0000
  H   H900      1.0  0.51544  0.57371  0.53611  1.0000
  H   H901      1.0  0.59032  0.85092  0.67937  1.0000
  C   C772      1.0  0.50818  0.88960  0.71922  1.0000
  H   H902      1.0  0.47446  0.95198  0.81321  1.0000
  H   H903      1.0  0.66730  0.89234  0.86674  1.0000
  Fe  Fe106     1.0  0.63885  0.75372  0.49912  1.0000
  C   C773      1.0  0.48507  0.90621  0.80875  1.0000
  C   C774      1.0  0.48546  0.90478  0.74866  1.0000
  H   H904      1.0  0.61509  0.80620  0.56955  1.0000
  H   H905      1.0  0.70416  0.56638  0.77244  1.0000
  H   H906      1.0  0.63307  0.60813  0.53351  1.0000
  N   N51       1.0  0.49772  0.90556  0.71770  1.0000
  C   C775      1.0  0.66095  0.56619  0.87873  1.0000
  C   C776      1.0  0.60917  0.88679  0.63816  1.0000
  H   H907      1.0  0.60955  0.87600  0.70155  1.0000
  H   H908      1.0  0.66417  0.69638  0.85188  1.0000
  H   H909      1.0  0.52565  0.93085  0.68948  1.0000
  H   H910      1.0  0.60836  0.95258  0.91021  1.0000
  H   H911      1.0  0.49362  0.90756  0.83176  1.0000
  H   H912      1.0  0.50895  0.94197  0.71123  1.0000
  H   H913      1.0  0.65525  0.88538  0.90675  1.0000
  N   N52       1.0  0.64942  0.65635  0.54030  1.0000
  C   C777      1.0  0.47198  0.48744  0.76266  1.0000
  C   C778      1.0  0.65620  0.60894  0.60704  1.0000
  N   N53       1.0  0.71183  0.57942  0.82197  1.0000
  H   H914      1.0  0.47610  0.91139  0.68349  1.0000
  C   C779      1.0  0.69691  0.87610  0.87043  1.0000
  C   C780      1.0  0.59661  0.82099  0.59644  1.0000
  H   H915      1.0  0.61191  0.93396  0.86015  1.0000
  C   C781      1.0  0.65135  0.63971  0.56284  1.0000
  C   C782      1.0  0.71097  0.70966  0.60090  1.0000
  H   H916      1.0  0.69229  0.90885  0.93259  1.0000
  H   H917      1.0  0.63668  0.68147  0.54107  1.0000
  H   H918      1.0  0.64964  0.68022  0.57794  1.0000
  C   C783      1.0  0.49149  0.49409  0.56778  1.0000
  C   C784      1.0  0.64463  0.60062  0.57769  1.0000
  C   C785      1.0  0.49787  0.56037  0.53611  1.0000
  C   C786      1.0  0.64361  0.54696  0.86371  1.0000
  H   H919      1.0  0.71453  0.87902  0.87582  1.0000
  H   H920      1.0  0.47467  0.49310  0.56968  1.0000
  C   C787      1.0  0.53459  0.49666  0.55671  1.0000
  H   H921      1.0  0.51372  0.90937  0.78039  1.0000
  H   H922      1.0  0.65648  0.86645  0.62492  1.0000
  H   H923      1.0  0.56126  0.66857  0.96183  1.0000
  H   H924      1.0  0.52336  0.89609  0.73541  1.0000
  C   C788      1.0  0.62522  0.95103  0.86656  1.0000
  H   H925      1.0  0.68400  0.68270  0.54890  1.0000
  H   H926      1.0  0.66902  0.69479  0.67432  1.0000
  H   H927      1.0  0.59060  0.87565  0.63415  1.0000
  H   H928      1.0  0.67073  0.66548  0.59969  1.0000
  H   H929      1.0  0.61032  0.90104  0.65466  1.0000
  C   C789      1.0  0.48272  0.89881  0.68853  1.0000
  H   H930      1.0  0.50056  0.49587  0.65240  1.0000
  N   N54       1.0  0.62064  0.87394  0.65224  1.0000
  N   N55       1.0  0.62564  0.77674  0.77239  1.0000
  C   C790      1.0  0.60311  0.76379  0.75635  1.0000
  C   C791      1.0  0.62905  0.80032  0.78062  1.0000
  C   C792      1.0  0.64356  0.77906  0.74804  1.0000
  C   C793      1.0  0.62620  0.76485  0.80277  1.0000
  C   C794      1.0  0.64313  0.75750  0.80872  1.0000
  C   C795      1.0  0.60970  0.76076  0.82793  1.0000
  C   C796      1.0  0.64344  0.74691  0.83816  1.0000
  C   C797      1.0  0.61006  0.74995  0.85707  1.0000
  C   C798      1.0  0.62698  0.74319  0.86229  1.0000
  H   H931      1.0  0.58881  0.76360  0.77138  1.0000
  H   H932      1.0  0.60254  0.77157  0.73246  1.0000
  H   H933      1.0  0.59934  0.74554  0.75148  1.0000
  H   H934      1.0  0.64567  0.81044  0.79316  1.0000
  H   H935      1.0  0.61541  0.80023  0.79711  1.0000
  H   H936      1.0  0.62911  0.81000  0.75835  1.0000
  H   H937      1.0  0.64182  0.76190  0.74023  1.0000
  H   H938      1.0  0.64247  0.78781  0.72537  1.0000
  H   H939      1.0  0.66110  0.78981  0.75766  1.0000
  H   H940      1.0  0.65650  0.75998  0.79125  1.0000
  H   H941      1.0  0.59670  0.76645  0.82569  1.0000
  H   H942      1.0  0.65185  0.86268  0.87807  1.0000
  H   H943      1.0  0.59764  0.74757  0.87627  1.0000
  C   C799      1.0  0.67254  0.67297  0.52851  1.0000
  C   C800      1.0  0.64270  0.69470  0.89290  1.0000
  H   H944      1.0  0.49797  0.55661  0.58842  1.0000
  H   H945      1.0  0.52885  0.93523  0.73264  1.0000
  H   H946      1.0  0.63759  0.58237  0.57192  1.0000
  C   C801      1.0  0.68473  0.95935  0.90466  1.0000
  H   H947      1.0  0.64455  0.90458  0.67798  1.0000
  C   C802      1.0  0.71515  0.56697  0.79333  1.0000
  H   H948      1.0  0.64993  0.81607  0.50968  1.0000
  C   C803      1.0  0.70026  0.86060  0.93713  1.0000
  H   H949      1.0  0.47967  0.55363  0.93270  1.0000
  H   H950      1.0  0.67446  0.63893  0.63743  1.0000
  C   C804      1.0  0.50497  0.50653  0.54125  1.0000
  H   H951      1.0  0.69575  0.59176  0.87729  1.0000
  H   H952      1.0  0.63441  0.52369  0.82274  1.0000
  C   C805      1.0  0.62204  0.68160  0.90908  1.0000
  N   N56       1.0  0.68548  0.88073  0.89912  1.0000
  H   H953      1.0  0.65362  0.88280  0.67328  1.0000
  C   C806      1.0  0.62345  0.96198  0.89536  1.0000
  H   H954      1.0  0.55115  0.49733  0.55194  1.0000
  C   C807      1.0  0.47707  0.95833  0.51003  1.0000
  H   H955      1.0  0.61835  0.61903  0.82898  1.0000
  C   C808      1.0  0.66540  0.63236  0.61459  1.0000
  C   C809      1.0  0.63944  0.85460  0.61710  1.0000
  H   H956      1.0  0.58226  0.83810  0.62616  1.0000
  H   H957      1.0  0.71744  0.87067  0.92780  1.0000
  S   S215      1.0  0.59030  0.66449  0.51578  1.0000
  H   H958      1.0  0.49825  0.51436  0.52406  1.0000
  H   H959      1.0  0.51457  0.88717  0.69488  1.0000
  C   C810      1.0  0.50661  0.54555  0.97052  1.0000
  H   H960      1.0  0.67366  0.95433  0.92599  1.0000
  C   C811      1.0  0.61636  0.82030  0.58523  1.0000
  H   H961      1.0  0.61663  0.85282  0.69406  1.0000
  C   C812      1.0  0.67019  0.54835  0.82117  1.0000
  N   N57       1.0  0.48606  0.54735  0.98240  1.0000
  H   H962      1.0  0.60305  0.97974  0.94121  1.0000
  C   C813      1.0  0.71673  0.60283  0.81102  1.0000
  H   H963      1.0  0.62767  0.73562  0.88548  1.0000
  H   H964      1.0  0.62178  0.65750  0.56789  1.0000
  C   C814      1.0  0.63895  0.66933  0.55769  1.0000
  S   S216      1.0  0.50702  0.48723  0.94737  1.0000
  H   H965      1.0  0.65814  0.59729  0.62399  1.0000
  H   H966      1.0  0.50207  0.52777  0.96157  1.0000
  C   C815      1.0  0.51607  0.92943  0.71266  1.0000
  H   H967      1.0  0.69124  0.84009  0.49946  1.0000
  H   H968      1.0  0.61793  0.68814  0.93143  1.0000
  C   C816      1.0  0.64423  0.96179  0.84602  1.0000
  H   H969      1.0  0.65707  0.57335  0.90057  1.0000
  H   H970      1.0  0.61700  0.89453  0.61420  1.0000
  C   C817      1.0  0.68302  0.57655  0.86518  1.0000
  H   H971      1.0  0.65676  0.74188  0.84259  1.0000
  H   H972      1.0  0.67191  0.68627  0.51224  1.0000
  C   C818      1.0  0.71364  0.97168  0.85014  1.0000
  C   C819      1.0  0.60872  0.86294  0.68307  1.0000
  H   H973      1.0  0.71732  0.90656  0.91940  1.0000
  H   H974      1.0  0.65466  0.71142  0.90270  1.0000
  C   C820      1.0  0.68170  0.86379  0.92531  1.0000
  C   C821      1.0  0.56854  0.62166  0.98031  1.0000
  H   H975      1.0  0.53615  0.51626  0.51390  1.0000
  C   C822      1.0  0.63771  0.83712  0.59541  1.0000
  C   C823      1.0  0.66311  0.64750  0.59283  1.0000
  H   H976      1.0  0.51495  0.55731  0.94966  1.0000
  C   C824      1.0  0.47061  0.54253  0.95404  1.0000
  H   H977      1.0  0.64462  0.85117  0.93262  1.0000
  C   C825      1.0  0.70036  0.90440  0.91140  1.0000
  C   C826      1.0  0.64217  0.61568  0.55577  1.0000
  H   H978      1.0  0.49555  0.87219  0.72785  1.0000
  H   H979      1.0  0.70383  0.91760  0.89212  1.0000
  S   S217      1.0  0.70073  0.67763  0.68941  1.0000
  C   C827      1.0  0.57109  0.64428  0.98257  1.0000
  S   S218      1.0  0.71232  0.64033  0.74756  1.0000
  C   C828      1.0  0.65986  0.85017  0.93992  1.0000
  S   S219      1.0  0.64511  0.72248  0.50067  1.0000
  H   H980      1.0  0.69875  0.88777  0.84959  1.0000
  C   C829      1.0  0.48809  0.55053  0.56619  1.0000
  C   C830      1.0  0.49179  0.96572  0.81259  1.0000
  H   H981      1.0  0.70425  0.60182  0.79219  1.0000
  H   H982      1.0  0.57917  0.61747  0.50030  1.0000
  C   C831      1.0  0.65567  0.82984  0.49184  1.0000
  H   H983      1.0  0.63995  0.82320  0.97411  1.0000
  H   H984      1.0  0.71123  0.84141  0.96889  1.0000
  H   H985      1.0  0.50175  0.96774  0.89769  1.0000
  C   C832      1.0  0.50486  0.96633  0.78504  1.0000
  H   H986      1.0  0.71131  0.54900  0.79972  1.0000
  C   C833      1.0  0.67527  0.83066  0.97414  1.0000
  C   C834      1.0  0.48530  0.55301  0.50661  1.0000
  Fe  Fe107     1.0  0.71820  0.65476  0.69647  1.0000
  Fe  Fe108     1.0  0.52169  0.97828  0.64996  1.0000
  C   C835      1.0  0.65686  0.83395  0.96404  1.0000
  H   H987      1.0  0.61792  0.96666  0.96322  1.0000
  C   C836      1.0  0.69697  0.84409  0.96092  1.0000
  C   C837      1.0  0.47997  0.98089  0.51345  1.0000
  H   H988      1.0  0.63341  0.65838  0.49547  1.0000
  S   S220      1.0  0.94729  0.37334  0.40446  1.0000
  S   S221      1.0  0.93674  0.40843  0.35961  1.0000
  Fe  Fe109     1.0  0.95389  0.41050  0.40808  1.0000
  S   S222      1.0  0.94265  0.42069  0.45656  1.0000
  Fe  Fe110     1.0  0.93362  0.37251  0.35420  1.0000
  S   S223      1.0  0.90109  0.34181  0.33542  1.0000
  Fe  Fe111     1.0  0.89227  0.19439  0.18815  1.0000
  S   S224      1.0  0.88046  0.21818  0.16589  1.0000
  S   S225      1.0  0.92130  0.18787  0.16760  1.0000
  Fe  Fe112     1.0  0.85383  0.17839  0.24146  1.0000
  S   S226      1.0  0.84000  0.20179  0.22210  1.0000
  S   S227      1.0  0.84318  0.15606  0.28774  1.0000
  Fe  Fe113     1.0  0.84478  0.18884  0.17201  1.0000
  S   S228      1.0  0.82015  0.17984  0.12861  1.0000
  Fe  Fe114     1.0  0.87714  0.22866  0.21775  1.0000
  S   S229      1.0  0.89850  0.26694  0.23085  1.0000
  S   S230      1.0  0.85676  0.16434  0.19186  1.0000
  S   S231      1.0  0.89063  0.20588  0.23957  1.0000
  C   C838      1.0  0.81575  0.08487  0.30336  1.0000
  H   H989      1.0  0.91068  0.40044  0.22124  1.0000
  H   H990      1.0  0.87278  0.23351  0.28195  1.0000
  H   H991      1.0  0.87641  0.19763  0.32462  1.0000
  S   S232      1.0  0.77737  0.09083  0.03426  1.0000
  Fe  Fe115     1.0  0.74539  0.08780  0.42132  1.0000
  S   S233      1.0  0.75478  0.11547  0.38176  1.0000
  H   H992      1.0  0.92720  0.46501  0.25703  1.0000
  S   S234      1.0  0.76944  0.07480  0.43932  1.0000
  C   C839      1.0  0.80791  0.15465  0.10315  1.0000
  C   C840      1.0  0.81043  0.13488  0.10955  1.0000
  C   C841      1.0  0.80089  0.11560  0.08828  1.0000
  C   C842      1.0  0.78851  0.11560  0.06048  1.0000
  C   C843      1.0  0.78564  0.13521  0.05431  1.0000
  C   C844      1.0  0.79530  0.15457  0.07551  1.0000
  H   H993      1.0  0.81968  0.13439  0.13093  1.0000
  H   H994      1.0  0.80325  0.10057  0.09334  1.0000
  H   H995      1.0  0.77631  0.13561  0.03296  1.0000
  H   H996      1.0  0.79318  0.16971  0.07027  1.0000
  C   C845      1.0  0.81801  0.14448  0.31275  1.0000
  C   C846      1.0  0.79951  0.14903  0.30727  1.0000
  C   C847      1.0  0.78038  0.14012  0.32869  1.0000
  C   C848      1.0  0.77935  0.12636  0.35558  1.0000
  C   C849      1.0  0.79780  0.12171  0.36090  1.0000
  C   C850      1.0  0.81708  0.13097  0.33989  1.0000
  H   H997      1.0  0.80001  0.15958  0.28675  1.0000
  H   H998      1.0  0.76626  0.14392  0.32436  1.0000
  H   H999      1.0  0.79737  0.11123  0.38147  1.0000
  H   H1000     1.0  0.83139  0.12758  0.34471  1.0000
  C   C851      1.0  0.90066  0.32033  0.30774  1.0000
  C   C852      1.0  0.92077  0.32143  0.29418  1.0000
  C   C853      1.0  0.91973  0.30454  0.27147  1.0000
  C   C854      1.0  0.89864  0.28615  0.26224  1.0000
  C   C855      1.0  0.87850  0.28480  0.27616  1.0000
  C   C856      1.0  0.87953  0.30184  0.29871  1.0000
  H   H1001     1.0  0.93714  0.33547  0.30085  1.0000
  H   H1002     1.0  0.93540  0.30594  0.26058  1.0000
  H   H1003     1.0  0.86211  0.27116  0.26866  1.0000
  H   H1004     1.0  0.86386  0.30093  0.30884  1.0000
  C   C857      1.0  0.87614  0.16998  0.10976  1.0000
  H   H1005     1.0  0.94226  0.37429  0.48584  1.0000
  C   C858      1.0  0.87871  0.33043  0.21851  1.0000
  C   C859      1.0  0.89331  0.35294  0.22883  1.0000
  H   H1006     1.0  0.73908  0.01504  0.32553  1.0000
  H   H1007     1.0  0.84492  0.17337  0.03377  1.0000
  H   H1008     1.0  0.84014  0.23801  0.43187  1.0000
  C   C860      1.0  0.74661  0.07007  0.32894  1.0000
  C   C861      1.0  0.94365  0.46567  0.25166  1.0000
  H   H1009     1.0  0.94387  0.44801  0.29612  1.0000
  C   C862      1.0  0.94560  0.20244  0.14153  1.0000
  C   C863      1.0  0.95574  0.22618  0.13431  1.0000
  C   C864      1.0  0.82485  0.20323  0.41331  1.0000
  H   H1010     1.0  0.94821  0.23666  0.14407  1.0000
  S   S235      1.0  0.74655  0.01034  0.41266  1.0000
  N   N58       1.0  0.87406  0.22936  0.33401  1.0000
  H   H1011     1.0  0.94412  0.35278  0.20968  1.0000
  H   H1012     1.0  0.82632  0.10525  0.99958  1.0000
  H   H1013     1.0  0.90299  0.26004  0.31571  1.0000
  C   C865      1.0  0.88730  0.21608  0.33122  1.0000
  H   H1014     1.0  0.75285  0.06327  0.26595  1.0000
  C   C866      1.0  0.95304  0.45595  0.27385  1.0000
  H   H1015     1.0  0.90694  0.43452  0.42422  1.0000
  H   H1016     1.0  0.90066  0.22305  0.31164  1.0000
  C   C867      1.0  0.89382  0.45170  0.45726  1.0000
  H   H1017     1.0  0.84984  0.20770  0.29768  1.0000
  H   H1018     1.0  0.77365  0.03166  0.35294  1.0000
  H   H1019     1.0  0.94010  0.42082  0.22484  1.0000
  H   H1020     1.0  0.96279  0.39220  0.20947  1.0000
  H   H1021     1.0  0.75266  0.07421  0.35463  1.0000
  H   H1022     1.0  0.75545  0.08635  0.31484  1.0000
  S   S236      1.0  0.73204  0.09056  0.47191  1.0000
  Fe  Fe116     1.0  0.75401  0.08082  0.98935  1.0000
  Fe  Fe117     1.0  0.73967  0.03917  0.43351  1.0000
  H   H1023     1.0  0.84087  0.18510  0.34456  1.0000
  C   C868      1.0  0.95576  0.18924  0.12898  1.0000
  C   C869      1.0  0.95474  0.44650  0.48064  1.0000
  C   C870      1.0  0.89861  0.47202  0.47458  1.0000
  C   C871      1.0  0.73060  0.11267  0.09980  1.0000
  N   N59       1.0  0.75119  0.05134  0.31559  1.0000
  H   H1024     1.0  0.94825  0.17099  0.13436  1.0000
  H   H1025     1.0  0.88219  0.26545  0.33703  1.0000
  H   H1026     1.0  0.86834  0.25364  0.38826  1.0000
  C   C872      1.0  0.77594  0.05829  0.31833  1.0000
  H   H1027     1.0  0.88125  0.13617  0.06731  1.0000
  H   H1028     1.0  0.96166  0.38092  0.25027  1.0000
  C   C873      1.0  0.80815  0.05366  0.34049  1.0000
  H   H1029     1.0  0.81278  0.17037  0.38887  1.0000
  H   H1030     1.0  0.85009  0.23505  0.30498  1.0000
  H   H1031     1.0  0.96286  0.22385  0.22110  1.0000
  H   H1032     1.0  0.90130  0.25775  0.35929  1.0000
  H   H1033     1.0  0.93104  0.40056  0.19144  1.0000
  H   H1034     1.0  0.92846  0.37493  0.28764  1.0000
  H   H1035     1.0  0.91003  0.38697  0.27649  1.0000
  H   H1036     1.0  0.82787  0.10014  0.29036  1.0000
  H   H1037     1.0  0.84189  0.07846  0.32496  1.0000
  C   C874      1.0  0.91747  0.36216  0.22628  1.0000
  H   H1038     1.0  0.72573  0.11179  0.12610  1.0000
  C   C875      1.0  0.78462  0.04643  0.33834  1.0000
  H   H1039     1.0  0.87725  0.43670  0.45978  1.0000
  C   C876      1.0  0.85457  0.11907  0.03304  1.0000
  H   H1040     1.0  0.81434  0.04445  0.35613  1.0000
  H   H1041     1.0  0.85649  0.10341  0.03304  1.0000
  H   H1042     1.0  0.88058  0.15580  0.11487  1.0000
  C   C877      1.0  0.84868  0.15890  0.03391  1.0000
  C   C878      1.0  0.82524  0.18852  0.38863  1.0000
  C   C879      1.0  0.73631  0.02993  0.33374  1.0000
  C   C880      1.0  0.84140  0.19710  0.36332  1.0000
  C   C881      1.0  0.86614  0.15845  0.05361  1.0000
  C   C882      1.0  0.95212  0.46548  0.01664  1.0000
  H   H1043     1.0  0.74681  0.11124  0.09840  1.0000
  H   H1044     1.0  0.82125  0.14039  0.00001  1.0000
  H   H1045     1.0  0.74860  0.03411  0.26959  1.0000
  C   C883      1.0  0.95544  0.47646  0.22279  1.0000
  C   C884      1.0  0.89080  0.25420  0.33686  1.0000
  H   H1046     1.0  0.90926  0.19012  0.04169  1.0000
  H   H1047     1.0  0.88639  0.18419  0.12690  1.0000
  C   C885      1.0  0.87661  0.19834  0.07278  1.0000
  C   C886      1.0  0.90531  0.18542  0.06791  1.0000
  N   N60       1.0  0.88073  0.17781  0.07541  1.0000
  C   C887      1.0  0.79228  0.07788  0.30119  1.0000
  C   C888      1.0  0.85771  0.22074  0.36184  1.0000
  H   H1048     1.0  0.88807  0.21267  0.08916  1.0000
  H   H1049     1.0  0.88553  0.36298  0.23928  1.0000
  H   H1050     1.0  0.91666  0.20072  0.08295  1.0000
  C   C889      1.0  0.92741  0.38850  0.27257  1.0000
  C   C890      1.0  0.86865  0.13793  0.05254  1.0000
  H   H1051     1.0  0.73940  0.03243  0.36047  1.0000
  C   C891      1.0  0.91127  0.32515  0.20173  1.0000
  H   H1052     1.0  0.73329  0.03694  0.10387  1.0000
  C   C892      1.0  0.74428  0.04732  0.28078  1.0000
  H   H1053     1.0  0.85881  0.19425  0.08043  1.0000
  C   C893      1.0  0.92837  0.40261  0.21797  1.0000
  H   H1054     1.0  0.74116  0.07479  0.08357  1.0000
  C   C894      1.0  0.92607  0.34755  0.21225  1.0000
  H   H1055     1.0  0.91067  0.17196  0.07345  1.0000
  H   H1056     1.0  0.87977  0.20523  0.04746  1.0000
  H   H1057     1.0  0.89597  0.21655  0.35459  1.0000
  H   H1058     1.0  0.85781  0.16384  0.11630  1.0000
  C   C895      1.0  0.95732  0.39249  0.23524  1.0000
  C   C896      1.0  0.84063  0.22658  0.41273  1.0000
  H   H1059     1.0  0.78712  0.08835  0.28649  1.0000
  N   N61       1.0  0.93252  0.38599  0.23773  1.0000
  H   H1060     1.0  0.91810  0.31395  0.19206  1.0000
  C   C897      1.0  0.85684  0.23535  0.38740  1.0000
  H   H1061     1.0  0.81217  0.19652  0.43278  1.0000
  C   C898      1.0  0.86112  0.22624  0.30338  1.0000
  H   H1062     1.0  0.87642  0.29890  0.19779  1.0000
  H   H1063     1.0  0.94295  0.46664  0.03818  1.0000
  H   H1064     1.0  0.72805  0.06533  0.32914  1.0000
  H   H1065     1.0  0.86034  0.32356  0.22148  1.0000
  C   C899      1.0  0.82367  0.07280  0.32300  1.0000
  C   C900      1.0  0.88768  0.31657  0.20500  1.0000
  H   H1066     1.0  0.92513  0.43249  0.00116  1.0000
  C   C901      1.0  0.91042  0.45047  0.43699  1.0000
  H   H1067     1.0  0.73603  0.09506  0.04322  1.0000
  C   C902      1.0  0.83486  0.14000  0.01427  1.0000
  H   H1068     1.0  0.93962  0.40560  0.28284  1.0000
  H   H1069     1.0  0.73484  0.13025  0.09078  1.0000
  C   C903      1.0  0.94208  0.44610  0.99561  1.0000
  C   C904      1.0  0.83767  0.12010  0.01401  1.0000
  C   C905      1.0  0.73113  0.98515  0.38841  1.0000
  C   C906      1.0  0.72422  0.06396  0.09327  1.0000
  C   C907      1.0  0.93182  0.46957  0.43387  1.0000
  H   H1070     1.0  0.94483  0.46822  0.41868  1.0000
  H   H1071     1.0  0.96815  0.41036  0.24449  1.0000
  S   S237      1.0  0.96776  0.38462  0.32977  1.0000
  H   H1072     1.0  0.72554  0.04112  0.27805  1.0000
  H   H1073     1.0  0.72258  0.11261  0.03466  1.0000
  S   S238      1.0  0.72736  0.03874  0.48495  1.0000
  H   H1074     1.0  0.75104  0.07568  0.59851  1.0000
  S   S239      1.0  0.94027  0.39788  0.84896  1.0000
  C   C908      1.0  0.72080  0.08562  0.56588  1.0000
  S   S240      1.0  0.93994  0.41984  0.94118  1.0000
  Fe  Fe118     1.0  0.94980  0.36864  0.85193  1.0000
  S   S241      1.0  0.93115  0.32950  0.84422  1.0000
  Fe  Fe119     1.0  0.89501  0.20256  0.68725  1.0000
  S   S242      1.0  0.87838  0.22137  0.66281  1.0000
  S   S243      1.0  0.93040  0.20693  0.67296  1.0000
  Fe  Fe120     1.0  0.85481  0.17933  0.73645  1.0000
  S   S244      1.0  0.83552  0.19674  0.71448  1.0000
  S   S245      1.0  0.84555  0.15711  0.78258  1.0000
  Fe  Fe121     1.0  0.84594  0.18762  0.66563  1.0000
  S   S246      1.0  0.82384  0.17820  0.61969  1.0000
  Fe  Fe122     1.0  0.86976  0.22860  0.71361  1.0000
  S   S247      1.0  0.87511  0.26489  0.72559  1.0000
  S   S248      1.0  0.86320  0.16818  0.68761  1.0000
  S   S249      1.0  0.88851  0.21192  0.73807  1.0000
  H   H1075     1.0  0.94550  0.45081  0.62476  1.0000
  H   H1076     1.0  0.92835  0.45858  0.91141  1.0000
  C   C909      1.0  0.83735  0.12088  0.51892  1.0000
  S   S250      1.0  0.73893  0.10204  0.96679  1.0000
  S   S251      1.0  0.77636  0.08461  0.53596  1.0000
  Fe  Fe123     1.0  0.74536  0.08868  0.91845  1.0000
  S   S252      1.0  0.75548  0.11213  0.87332  1.0000
  H   H1077     1.0  0.95598  0.29905  0.55724  1.0000
  S   S253      1.0  0.76211  0.06869  0.94091  1.0000
  C   C910      1.0  0.81073  0.15192  0.59694  1.0000
  C   C911      1.0  0.81179  0.13191  0.60660  1.0000
  C   C912      1.0  0.80102  0.11148  0.58776  1.0000
  C   C913      1.0  0.78924  0.11081  0.55895  1.0000
  C   C914      1.0  0.78813  0.13078  0.54932  1.0000
  C   C915      1.0  0.79882  0.15119  0.56824  1.0000
  H   H1078     1.0  0.82079  0.13213  0.62864  1.0000
  H   H1079     1.0  0.80201  0.09613  0.59544  1.0000
  H   H1080     1.0  0.77919  0.13059  0.52722  1.0000
  H   H1081     1.0  0.79788  0.16656  0.56055  1.0000
  C   C916      1.0  0.82013  0.14441  0.80708  1.0000
  C   C917      1.0  0.80036  0.14625  0.79932  1.0000
  C   C918      1.0  0.78083  0.13627  0.81988  1.0000
  C   C919      1.0  0.78063  0.12410  0.84824  1.0000
  C   C920      1.0  0.80037  0.12219  0.85590  1.0000
  C   C921      1.0  0.81997  0.13234  0.83549  1.0000
  H   H1082     1.0  0.80002  0.15515  0.77736  1.0000
  H   H1083     1.0  0.76562  0.13773  0.81359  1.0000
  H   H1084     1.0  0.80054  0.11290  0.87756  1.0000
  H   H1085     1.0  0.83510  0.13072  0.84172  1.0000
  C   C922      1.0  0.91694  0.31235  0.80983  1.0000
  C   C923      1.0  0.91002  0.32117  0.78363  1.0000
  C   C924      1.0  0.89738  0.30642  0.75791  1.0000
  C   C925      1.0  0.89185  0.28285  0.75784  1.0000
  C   C926      1.0  0.89924  0.27414  0.78367  1.0000
  C   C927      1.0  0.91160  0.28881  0.80960  1.0000
  H   H1086     1.0  0.91389  0.33919  0.78359  1.0000
  H   H1087     1.0  0.89167  0.31329  0.73807  1.0000
  H   H1088     1.0  0.89511  0.25609  0.78405  1.0000
  H   H1089     1.0  0.91675  0.28182  0.82991  1.0000
  C   C928      1.0  0.94886  0.45614  0.85952  1.0000
  C   C929      1.0  0.95078  0.36507  0.49634  1.0000
  C   C930      1.0  0.84706  0.14480  0.51645  1.0000
  N   N62       1.0  0.96026  0.27344  0.72629  1.0000
  Fe  Fe124     1.0  0.72627  0.03880  0.94357  1.0000
  H   H1090     1.0  0.82394  0.10994  0.50225  1.0000
  C   C931      1.0  0.93987  0.45739  0.74444  1.0000
  C   C932      1.0  0.95064  0.44798  0.76472  1.0000
  H   H1091     1.0  0.92138  0.44990  0.74449  1.0000
  H   H1092     1.0  0.94042  0.43329  0.77999  1.0000
  C   C933      1.0  0.94884  0.22513  0.64196  1.0000
  C   C934      1.0  0.94139  0.23598  0.61916  1.0000
  H   H1093     1.0  0.92253  0.47431  0.96241  1.0000
  H   H1094     1.0  0.92403  0.23366  0.62040  1.0000
  H   H1095     1.0  0.96191  0.47709  0.64624  1.0000
  C   C935      1.0  0.95630  0.24937  0.59402  1.0000
  H   H1096     1.0  0.86492  0.30173  0.82725  1.0000
  H   H1097     1.0  0.83618  0.09231  0.54570  1.0000
  C   C936      1.0  0.95187  0.33823  0.53609  1.0000
  C   C937      1.0  0.95367  0.44429  0.96740  1.0000
  N   N63       1.0  0.96299  0.48145  0.86390  1.0000
  H   H1098     1.0  0.87672  0.26168  0.89971  1.0000
  H   H1099     1.0  0.93294  0.25192  0.69384  1.0000
  C   C938      1.0  0.87182  0.28380  0.86572  1.0000
  H   H1100     1.0  0.94100  0.24011  0.74894  1.0000
  C   C939      1.0  0.95142  0.46809  0.52838  1.0000
  H   H1101     1.0  0.93618  0.26254  0.76692  1.0000
  H   H1102     1.0  0.95015  0.25709  0.57590  1.0000
  H   H1103     1.0  0.88307  0.29957  0.87854  1.0000
  H   H1104     1.0  0.73125  0.05115  0.55499  1.0000
  C   C940      1.0  0.93982  0.47652  0.91641  1.0000
  N   N64       1.0  0.82971  0.22105  0.81255  1.0000
  C   C941      1.0  0.81111  0.20463  0.83405  1.0000
  C   C942      1.0  0.81888  0.22449  0.78284  1.0000
  C   C943      1.0  0.84430  0.21032  0.80197  1.0000
  C   C944      1.0  0.84382  0.24275  0.83060  1.0000
  C   C945      1.0  0.84783  0.26486  0.81923  1.0000
  C   C946      1.0  0.85456  0.24219  0.86024  1.0000
  C   C947      1.0  0.86152  0.28498  0.83677  1.0000
  C   C948      1.0  0.86835  0.26245  0.87744  1.0000
  H   H1105     1.0  0.80070  0.21264  0.84451  1.0000
  H   H1106     1.0  0.79932  0.18869  0.82058  1.0000
  H   H1107     1.0  0.81769  0.19850  0.85469  1.0000
  H   H1108     1.0  0.80756  0.23250  0.78900  1.0000
  H   H1109     1.0  0.80810  0.20783  0.77013  1.0000
  H   H1110     1.0  0.83198  0.23549  0.76453  1.0000
  H   H1111     1.0  0.85160  0.20518  0.82283  1.0000
  H   H1112     1.0  0.83444  0.19429  0.78754  1.0000
  H   H1113     1.0  0.85877  0.22229  0.78636  1.0000
  H   H1114     1.0  0.84114  0.26723  0.79641  1.0000
  H   H1115     1.0  0.85266  0.22606  0.87003  1.0000
  C   C949      1.0  0.84428  0.11097  0.54354  1.0000
  H   H1116     1.0  0.73279  0.00444  0.87501  1.0000
  N   N65       1.0  0.88852  0.16484  0.58778  1.0000
  C   C950      1.0  0.88049  0.18041  0.60372  1.0000
  C   C951      1.0  0.89340  0.15229  0.61419  1.0000
  C   C952      1.0  0.91036  0.17907  0.57028  1.0000
  C   C953      1.0  0.87112  0.14943  0.56424  1.0000
  C   C954      1.0  0.86090  0.12491  0.56598  1.0000
  C   C955      1.0  0.86380  0.15892  0.53858  1.0000
  H   H1117     1.0  0.92850  0.27397  0.71386  1.0000
  C   C956      1.0  0.96240  0.41622  0.55644  1.0000
  Fe  Fe125     1.0  0.75490  0.07566  0.48929  1.0000
  H   H1118     1.0  0.89249  0.19126  0.62302  1.0000
  H   H1119     1.0  0.87883  0.19254  0.58642  1.0000
  H   H1120     1.0  0.86336  0.17028  0.61525  1.0000
  H   H1121     1.0  0.87774  0.14169  0.62894  1.0000
  H   H1122     1.0  0.90630  0.16442  0.63174  1.0000
  H   H1123     1.0  0.90060  0.14101  0.60425  1.0000
  H   H1124     1.0  0.90871  0.19080  0.55219  1.0000
  H   H1125     1.0  0.92411  0.19029  0.58747  1.0000
  H   H1126     1.0  0.91653  0.16798  0.55691  1.0000
  C   C957      1.0  0.96347  0.42811  0.58559  1.0000
  H   H1127     1.0  0.87069  0.17738  0.53578  1.0000
  C   C958      1.0  0.73484  0.07263  0.61133  1.0000
  H   H1128     1.0  0.95361  0.44976  0.83674  1.0000
  H   H1129     1.0  0.96153  0.47694  0.60227  1.0000
  C   C959      1.0  0.94196  0.27012  0.70282  1.0000
  Fe  Fe126     1.0  0.95605  0.40881  0.89909  1.0000
  C   C960      1.0  0.96189  0.46703  0.62402  1.0000
  H   H1130     1.0  0.86512  0.11602  0.58472  1.0000
  H   H1131     1.0  0.96230  0.33906  0.77666  1.0000
  H   H1132     1.0  0.94178  0.46886  0.54953  1.0000
  H   H1133     1.0  0.84123  0.15240  0.49764  1.0000
  C   C961      1.0  0.94957  0.25887  0.75539  1.0000
  H   H1134     1.0  0.94954  0.41995  0.60291  1.0000
  H   H1135     1.0  0.94793  0.39956  0.55170  1.0000
  C   C962      1.0  0.94251  0.44819  0.50823  1.0000
  H   H1136     1.0  0.73655  0.08995  0.55105  1.0000
  H   H1137     1.0  0.95120  0.44646  0.88017  1.0000
  S   S254      1.0  0.96177  0.37755  0.90395  1.0000
  H   H1138     1.0  0.92602  0.43394  0.51408  1.0000
  H   H1139     1.0  0.94239  0.29940  0.75671  1.0000
  C   C963      1.0  0.94101  0.35034  0.52280  1.0000
  H   H1140     1.0  0.73872  0.08894  0.62471  1.0000
  H   H1141     1.0  0.94327  0.32699  0.55636  1.0000
  C   C964      1.0  0.95274  0.47625  0.72391  1.0000
  H   H1142     1.0  0.96528  0.43234  0.65289  1.0000
  H   H1143     1.0  0.92477  0.34813  0.53281  1.0000
  H   H1144     1.0  0.72383  0.10169  0.57926  1.0000
  H   H1145     1.0  0.93033  0.45123  0.85750  1.0000
  H   H1146     1.0  0.96258  0.26164  0.77436  1.0000
  H   H1147     1.0  0.73104  0.05887  0.62974  1.0000
  H   H1148     1.0  0.96576  0.24607  0.70428  1.0000
  H   H1149     1.0  0.94911  0.28139  0.68109  1.0000
  C   C965      1.0  0.96059  0.30871  0.75249  1.0000
  H   H1150     1.0  0.97021  0.30027  0.50079  1.0000
  H   H1151     1.0  0.88517  0.47213  0.48997  1.0000
  Fe  Fe127     1.0  0.89235  0.66849  0.43481  1.0000
  S   S255      1.0  0.88236  0.63406  0.41174  1.0000
  S   S256      1.0  0.92432  0.70132  0.42067  1.0000
  H   H1152     1.0  0.89083  0.50983  0.48648  1.0000
  S   S257      1.0  0.84148  0.61136  0.46704  1.0000
  S   S258      1.0  0.84354  0.65138  0.03338  1.0000
  Fe  Fe128     1.0  0.87907  0.62061  0.46305  1.0000
  H   H1153     1.0  0.78709  0.68479  0.03219  1.0000
  Fe  Fe129     1.0  0.84604  0.62849  0.41748  1.0000
  S   S259      1.0  0.82309  0.61286  0.37305  1.0000
  H   H1154     1.0  0.73861  0.65980  0.09098  1.0000
  S   S260      1.0  0.85627  0.66408  0.43777  1.0000
  Fe  Fe130     1.0  0.74190  0.62454  0.16691  1.0000
  S   S261      1.0  0.76314  0.65978  0.18883  1.0000
  S   S262      1.0  0.75217  0.61005  0.12171  1.0000
  Fe  Fe131     1.0  0.74986  0.64203  0.23733  1.0000
  S   S263      1.0  0.77048  0.65357  0.28478  1.0000
  H   H1155     1.0  0.75668  0.56464  0.13451  1.0000
  S   S264      1.0  0.73001  0.60624  0.21573  1.0000
  Fe  Fe132     1.0  0.94500  0.54227  0.10495  1.0000
  S   S265      1.0  0.92367  0.56131  0.09808  1.0000
  H   H1156     1.0  0.85898  0.56704  0.06897  1.0000
  H   H1157     1.0  0.74174  0.62640  0.34346  1.0000
  C   C966      1.0  0.79286  0.58723  0.13299  1.0000
  S   S266      1.0  0.93894  0.50518  0.10247  1.0000
  H   H1158     1.0  0.95313  0.75406  0.33565  1.0000
  C   C967      1.0  0.85687  0.60495  0.08618  1.0000
  H   H1159     1.0  0.82937  0.54747  0.06932  1.0000
  C   C968      1.0  0.81524  0.57864  0.09139  1.0000
  C   C969      1.0  0.88706  0.56883  0.00749  1.0000
  C   C970      1.0  0.89039  0.54915  0.01103  1.0000
  C   C971      1.0  0.90266  0.54708  0.03774  1.0000
  C   C972      1.0  0.91107  0.56440  0.06169  1.0000
  C   C973      1.0  0.90791  0.58417  0.05797  1.0000
  C   C974      1.0  0.89653  0.58667  0.03056  1.0000
  C   C975      1.0  0.73274  0.95362  0.35787  1.0000
  H   H1160     1.0  0.90472  0.53165  0.04051  1.0000
  H   H1161     1.0  0.91445  0.59771  0.07630  1.0000
  H   H1162     1.0  0.89449  0.60207  0.02784  1.0000
  C   C976      1.0  0.81788  0.63943  0.05742  1.0000
  C   C977      1.0  0.81755  0.64987  0.08766  1.0000
  C   C978      1.0  0.79765  0.64122  0.10756  1.0000
  C   C979      1.0  0.77769  0.62200  0.09738  1.0000
  C   C980      1.0  0.77804  0.61150  0.06721  1.0000
  C   C981      1.0  0.79795  0.62013  0.04733  1.0000
  H   H1163     1.0  0.83288  0.66473  0.09583  1.0000
  H   H1164     1.0  0.79783  0.64929  0.13090  1.0000
  H   H1165     1.0  0.76280  0.59649  0.05919  1.0000
  H   H1166     1.0  0.79782  0.61189  0.02416  1.0000
  C   C982      1.0  0.80837  0.62436  0.34900  1.0000
  C   C983      1.0  0.79798  0.61307  0.31971  1.0000
  C   C984      1.0  0.78631  0.62167  0.29969  1.0000
  C   C985      1.0  0.78489  0.64173  0.30878  1.0000
  C   C986      1.0  0.79507  0.65289  0.33825  1.0000
  C   C987      1.0  0.80674  0.64431  0.35824  1.0000
  H   H1167     1.0  0.79901  0.59755  0.31239  1.0000
  H   H1168     1.0  0.77851  0.61281  0.27721  1.0000
  H   H1169     1.0  0.79390  0.66831  0.34569  1.0000
  H   H1170     1.0  0.81432  0.65301  0.38090  1.0000
  C   C988      1.0  0.94518  0.70607  0.38958  1.0000
  H   H1171     1.0  0.76688  0.71851  0.11799  1.0000
  C   C989      1.0  0.94079  0.69158  0.36221  1.0000
  H   H1172     1.0  0.88313  0.53526  0.99330  1.0000
  H   H1173     1.0  0.92441  0.67648  0.35976  1.0000
  H   H1174     1.0  0.92935  0.70616  0.25577  1.0000
  H   H1175     1.0  0.82831  0.60808  0.12570  1.0000
  H   H1176     1.0  0.80235  0.68710  0.10026  1.0000
  H   H1177     1.0  0.75645  0.69281  0.01766  1.0000
  C   C990      1.0  0.81374  0.59263  0.11735  1.0000
  H   H1178     1.0  0.84161  0.68551  0.32950  1.0000
  H   H1179     1.0  0.86025  0.60406  0.11256  1.0000
  H   H1180     1.0  0.95672  0.66592  0.03182  1.0000
  H   H1181     1.0  0.76148  0.65730  0.11085  1.0000
  H   H1182     1.0  0.72518  0.62511  0.37917  1.0000
  H   H1183     1.0  0.95412  0.50365  0.44861  1.0000
  C   C991      1.0  0.74806  0.71973  0.02913  1.0000
  H   H1184     1.0  0.95747  0.60929  0.12643  1.0000
  S   S267      1.0  0.89061  0.65556  0.48585  1.0000
  H   H1185     1.0  0.85411  0.62037  0.08182  1.0000
  H   H1186     1.0  0.91644  0.73436  0.36319  1.0000
  H   H1187     1.0  0.79189  0.59840  0.15218  1.0000
  C   C992      1.0  0.75569  0.66989  0.10232  1.0000
  H   H1188     1.0  0.96940  0.59781  0.05185  1.0000
  H   H1189     1.0  0.89181  0.68543  0.28208  1.0000
  H   H1190     1.0  0.86211  0.71064  0.30834  1.0000
  H   H1191     1.0  0.87369  0.66167  0.32724  1.0000
  H   H1192     1.0  0.85724  0.68213  0.29616  1.0000
  C   C993      1.0  0.74710  0.73487  0.05269  1.0000
  H   H1193     1.0  0.74264  0.94506  0.34954  1.0000
  N   N66       1.0  0.77223  0.68659  0.07888  1.0000
  H   H1194     1.0  0.78185  0.66135  0.05884  1.0000
  S   S268      1.0  0.90256  0.60464  0.47524  1.0000
  C   C994      1.0  0.79485  0.69891  0.09494  1.0000
  C   C995      1.0  0.76396  0.70329  0.06921  1.0000
  C   C996      1.0  0.75640  0.70416  0.03705  1.0000
  C   C997      1.0  0.76253  0.71885  0.09266  1.0000
  H   H1195     1.0  0.75284  0.74571  0.10293  1.0000
  C   C998      1.0  0.74325  0.97350  0.37733  1.0000
  H   H1196     1.0  0.75826  0.66191  0.03926  1.0000
  H   H1197     1.0  0.79378  0.70664  0.11888  1.0000
  N   N67       1.0  0.96359  0.65394  0.41990  1.0000
  C   C999      1.0  0.90896  0.52188  0.48043  1.0000
  H   H1198     1.0  0.75314  0.67855  0.12449  1.0000
  Fe  Fe133     1.0  0.95706  0.51215  0.15127  1.0000
  H   H1199     1.0  0.94356  0.61405  0.38326  1.0000
  H   H1200     1.0  0.75816  0.53943  0.08979  1.0000
  H   H1201     1.0  0.87292  0.60817  0.07282  1.0000
  Fe  Fe134     1.0  0.85344  0.64749  0.48704  1.0000
  S   S269      1.0  0.94287  0.48874  0.19607  1.0000
  C   C1000     1.0  0.95562  0.61385  0.02025  1.0000
  C   C1001     1.0  0.83503  0.58584  0.03904  1.0000
  H   H1202     1.0  0.95571  0.61949  0.43583  1.0000
  C   C1002     1.0  0.84235  0.56391  0.08025  1.0000
  H   H1203     1.0  0.80727  0.71298  0.07911  1.0000
  H   H1204     1.0  0.95317  0.68679  0.31497  1.0000
  N   N68       1.0  0.83707  0.58341  0.07469  1.0000
  H   H1205     1.0  0.87695  0.72440  0.36636  1.0000
  C   C1003     1.0  0.95182  0.63282  0.01448  1.0000
  H   H1206     1.0  0.83003  0.59968  0.03407  1.0000
  C   C1004     1.0  0.94322  0.73181  0.29355  1.0000
  H   H1207     1.0  0.88627  0.70707  0.39027  1.0000
  S   S270      1.0  0.88633  0.63556  0.98865  1.0000
  S   S271      1.0  0.95964  0.54777  0.15561  1.0000
  H   H1208     1.0  0.85672  0.69679  0.38173  1.0000
  H   H1209     1.0  0.94237  0.63313  0.99305  1.0000
  C   C1005     1.0  0.93927  0.73949  0.32373  1.0000
  H   H1210     1.0  0.85148  0.59042  0.02589  1.0000
  H   H1211     1.0  0.96001  0.74048  0.28210  1.0000
  C   C1006     1.0  0.95725  0.69732  0.33690  1.0000
  C   C1007     1.0  0.96657  0.72572  0.39192  1.0000
  H   H1212     1.0  0.82231  0.56968  0.02725  1.0000
  H   H1213     1.0  0.76106  0.97994  0.38377  1.0000
  H   H1214     1.0  0.73992  0.74637  0.04670  1.0000
  C   C1008     1.0  0.92037  0.49173  0.47235  1.0000
  C   C1009     1.0  0.75441  0.73449  0.08434  1.0000
  H   H1215     1.0  0.74182  0.71981  0.00475  1.0000
  Fe  Fe135     1.0  0.73073  0.66350  0.18657  1.0000
  C   C1010     1.0  0.77494  0.67320  0.05094  1.0000
  C   C1011     1.0  0.79460  0.55915  0.08215  1.0000
  C   C1012     1.0  0.95984  0.65125  0.03652  1.0000
  C   C1013     1.0  0.77292  0.56816  0.12301  1.0000
  C   C1014     1.0  0.96784  0.63788  0.44085  1.0000
  H   H1216     1.0  0.73353  0.65391  0.32015  1.0000
  C   C1015     1.0  0.77377  0.55413  0.09766  1.0000
  H   H1217     1.0  0.84328  0.56100  0.10684  1.0000
  H   H1218     1.0  0.91019  0.52480  0.45356  1.0000
  H   H1219     1.0  0.85640  0.66165  0.36111  1.0000
  H   H1220     1.0  0.79443  0.54771  0.06269  1.0000
  H   H1221     1.0  0.88669  0.67271  0.36611  1.0000
  N   N69       1.0  0.87699  0.69537  0.34047  1.0000
  C   C1016     1.0  0.87421  0.70651  0.37096  1.0000
  C   C1017     1.0  0.85881  0.69338  0.31760  1.0000
  C   C1018     1.0  0.87331  0.67186  0.34900  1.0000
  C   C1019     1.0  0.89979  0.70818  0.32476  1.0000
  C   C1020     1.0  0.90453  0.70066  0.29416  1.0000
  C   C1021     1.0  0.91796  0.72789  0.33933  1.0000
  C   C1022     1.0  0.92592  0.71238  0.27885  1.0000
  H   H1222     1.0  0.93515  0.66013  0.40822  1.0000
  C   C1023     1.0  0.72421  0.61748  0.35440  1.0000
  H   H1223     1.0  0.92727  0.63071  0.41769  1.0000
  H   H1224     1.0  0.94879  0.59924  0.00349  1.0000
  H   H1225     1.0  0.95240  0.53741  0.46086  1.0000
  H   H1226     1.0  0.96544  0.64065  0.46728  1.0000
  C   C1024     1.0  0.96734  0.61316  0.04816  1.0000
  H   H1227     1.0  0.93523  0.65172  0.44965  1.0000
  C   C1025     1.0  0.93932  0.64889  0.42399  1.0000
  C   C1026     1.0  0.93693  0.48989  0.45141  1.0000
  C   C1027     1.0  0.96820  0.65064  0.38516  1.0000
  C   C1028     1.0  0.94867  0.53183  0.48678  1.0000
  H   H1228     1.0  0.72368  0.61620  0.29000  1.0000
  S   S272      1.0  0.72854  0.69643  0.17466  1.0000
  C   C1029     1.0  0.96043  0.62500  0.33727  1.0000
  C   C1030     1.0  0.95630  0.62861  0.36997  1.0000
  H   H1229     1.0  0.95115  0.60805  0.32617  1.0000
  H   H1230     1.0  0.97036  0.59361  0.10648  1.0000
  H   H1231     1.0  0.97011  0.73719  0.41278  1.0000
  Fe  Fe136     1.0  0.89613  0.65190  0.93878  1.0000
  S   S273      1.0  0.87800  0.61805  0.91228  1.0000
  S   S274      1.0  0.93501  0.67379  0.93239  1.0000
  H   H1232     1.0  0.86056  0.65126  0.82122  1.0000
  S   S275      1.0  0.83398  0.60492  0.96135  1.0000
  S   S276      1.0  0.84166  0.65977  0.53303  1.0000
  Fe  Fe137     1.0  0.86698  0.60225  0.96197  1.0000
  H   H1233     1.0  0.86461  0.57048  0.51435  1.0000
  Fe  Fe138     1.0  0.84684  0.62422  0.91384  1.0000
  S   S277      1.0  0.82410  0.61289  0.86824  1.0000
  H   H1234     1.0  0.83233  0.69854  0.71527  1.0000
  S   S278      1.0  0.86563  0.65938  0.93796  1.0000
  Fe  Fe139     1.0  0.74164  0.62559  0.67415  1.0000
  S   S279      1.0  0.75519  0.66157  0.69534  1.0000
  S   S280      1.0  0.75803  0.61252  0.63450  1.0000
  Fe  Fe140     1.0  0.74785  0.64357  0.74422  1.0000
  S   S281      1.0  0.77219  0.65792  0.78745  1.0000
  H   H1235     1.0  0.95511  0.64919  0.75682  1.0000
  S   S282      1.0  0.73597  0.60806  0.72317  1.0000
  Fe  Fe141     1.0  0.93104  0.53481  0.60657  1.0000
  S   S283      1.0  0.89917  0.53557  0.58674  1.0000
  Fe  Fe142     1.0  0.95056  0.51427  0.65820  1.0000
  H   H1236     1.0  0.78865  0.64229  0.68651  1.0000
  S   S284      1.0  0.94285  0.54467  0.65831  1.0000
  S   S285      1.0  0.93478  0.50220  0.60851  1.0000
  C   C1031     1.0  0.95818  0.49036  0.89504  1.0000
  C   C1032     1.0  0.93620  0.48537  0.94601  1.0000
  H   H1237     1.0  0.74653  0.58868  0.83644  1.0000
  H   H1238     1.0  0.72531  0.97637  0.82946  1.0000
  H   H1239     1.0  0.72709  0.69280  0.62809  1.0000
  C   C1033     1.0  0.92139  0.58579  0.51720  1.0000
  C   C1034     1.0  0.92108  0.57070  0.54177  1.0000
  C   C1035     1.0  0.90038  0.55540  0.55649  1.0000
  C   C1036     1.0  0.88006  0.55562  0.54668  1.0000
  C   C1037     1.0  0.88041  0.57094  0.52235  1.0000
  H   H1240     1.0  0.95159  0.54743  0.50150  1.0000
  H   H1241     1.0  0.93685  0.57089  0.54918  1.0000
  H   H1242     1.0  0.86395  0.54376  0.55782  1.0000
  Fe  Fe143     1.0  0.85410  0.63949  0.98565  1.0000
  C   C1038     1.0  0.81750  0.64641  0.55974  1.0000
  C   C1039     1.0  0.81393  0.65993  0.58410  1.0000
  C   C1040     1.0  0.79553  0.65004  0.60664  1.0000
  C   C1041     1.0  0.78071  0.62633  0.60555  1.0000
  C   C1042     1.0  0.78439  0.61278  0.58136  1.0000
  C   C1043     1.0  0.80249  0.62275  0.55838  1.0000
  H   H1243     1.0  0.82533  0.67828  0.58527  1.0000
  H   H1244     1.0  0.79280  0.66076  0.62477  1.0000
  H   H1245     1.0  0.77298  0.59443  0.58019  1.0000
  H   H1246     1.0  0.80485  0.61208  0.53976  1.0000
  C   C1044     1.0  0.80872  0.62516  0.84746  1.0000
  C   C1045     1.0  0.79608  0.61377  0.81956  1.0000
  C   C1046     1.0  0.78450  0.62331  0.80121  1.0000
  C   C1047     1.0  0.78547  0.64447  0.81055  1.0000
  C   C1048     1.0  0.79782  0.65569  0.83871  1.0000
  C   C1049     1.0  0.80934  0.64610  0.85714  1.0000
  H   H1247     1.0  0.79559  0.59762  0.81181  1.0000
  H   H1248     1.0  0.77513  0.61443  0.77966  1.0000
  H   H1249     1.0  0.79871  0.67207  0.84616  1.0000
  H   H1250     1.0  0.81902  0.65510  0.87847  1.0000
  C   C1050     1.0  0.95250  0.68600  0.89711  1.0000
  C   C1051     1.0  0.94362  0.68887  0.86758  1.0000
  H   H1251     1.0  0.93245  0.50021  0.53494  1.0000
  H   H1252     1.0  0.92540  0.68299  0.86549  1.0000
  H   H1253     1.0  0.95146  0.70313  0.81889  1.0000
  C   C1052     1.0  0.90111  0.58610  0.50751  1.0000
  H   H1254     1.0  0.88778  0.56909  0.64381  1.0000
  C   C1053     1.0  0.95847  0.70033  0.84119  1.0000
  H   H1255     1.0  0.83661  0.64763  0.67937  1.0000
  H   H1256     1.0  0.83402  0.58918  0.60319  1.0000
  H   H1257     1.0  0.93747  0.59735  0.50574  1.0000
  H   H1258     1.0  0.83188  0.62727  0.72697  1.0000
  N   N70       1.0  0.92494  0.51300  0.49102  1.0000
  C   C1054     1.0  0.95658  0.60411  0.71694  1.0000
  C   C1055     1.0  0.91476  0.59447  0.61475  1.0000
  H   H1259     1.0  0.80444  0.68144  0.73374  1.0000
  H   H1260     1.0  0.94026  0.48987  0.83629  1.0000
  H   H1261     1.0  0.85251  0.68457  0.81706  1.0000
  H   H1262     1.0  0.73003  0.59347  0.86723  1.0000
  H   H1263     1.0  0.79911  0.62474  0.70559  1.0000
  C   C1056     1.0  0.72890  0.58153  0.84694  1.0000
  H   H1264     1.0  0.90336  0.49559  0.53277  1.0000
  S   S286      1.0  0.86955  0.56973  0.97551  1.0000
  H   H1265     1.0  0.84999  0.62275  0.77633  1.0000
  H   H1266     1.0  0.78648  0.63890  0.73019  1.0000
  H   H1267     1.0  0.96941  0.51203  0.83649  1.0000
  H   H1268     1.0  0.96164  0.48660  0.81210  1.0000
  S   S287      1.0  0.96562  0.55567  0.58434  1.0000
  H   H1269     1.0  0.83390  0.68974  0.76951  1.0000
  C   C1057     1.0  0.96600  0.64655  0.82381  1.0000
  H   H1270     1.0  0.73417  0.61221  0.80010  1.0000
  H   H1271     1.0  0.94819  0.51451  0.97883  1.0000
  H   H1272     1.0  0.73308  0.57571  0.78387  1.0000
  H   H1273     1.0  0.92702  0.58840  0.62129  1.0000
  N   N71       1.0  0.86557  0.61739  0.58572  1.0000
  C   C1058     1.0  0.84441  0.60820  0.60619  1.0000
  C   C1059     1.0  0.87621  0.64303  0.58762  1.0000
  C   C1060     1.0  0.85875  0.61007  0.55150  1.0000
  C   C1061     1.0  0.88215  0.60922  0.59589  1.0000
  C   C1062     1.0  0.90466  0.61927  0.58246  1.0000
  C   C1063     1.0  0.87643  0.59081  0.61832  1.0000
  C   C1064     1.0  0.92075  0.61217  0.59217  1.0000
  C   C1065     1.0  0.89260  0.58364  0.62749  1.0000
  H   H1274     1.0  0.85217  0.67827  0.68642  1.0000
  H   H1275     1.0  0.84847  0.61236  0.63249  1.0000
  H   H1276     1.0  0.83285  0.61563  0.59906  1.0000
  H   H1277     1.0  0.82729  0.66637  0.66082  1.0000
  H   H1278     1.0  0.88449  0.64951  0.61168  1.0000
  H   H1279     1.0  0.86345  0.64960  0.58427  1.0000
  H   H1280     1.0  0.88921  0.65152  0.56803  1.0000
  H   H1281     1.0  0.84968  0.59091  0.54923  1.0000
  H   H1282     1.0  0.84709  0.61681  0.54234  1.0000
  H   H1283     1.0  0.87375  0.61629  0.53457  1.0000
  H   H1284     1.0  0.90984  0.63235  0.56378  1.0000
  H   H1285     1.0  0.85949  0.58135  0.62870  1.0000
  H   H1286     1.0  0.93774  0.61985  0.58128  1.0000
  C   C1066     1.0  0.92137  0.50778  0.52643  1.0000
  H   H1287     1.0  0.80764  0.68353  0.69037  1.0000
  N   N72       1.0  0.82021  0.66162  0.71265  1.0000
  C   C1067     1.0  0.79772  0.64100  0.70859  1.0000
  C   C1068     1.0  0.81608  0.68222  0.71315  1.0000
  C   C1069     1.0  0.83474  0.66354  0.68362  1.0000
  C   C1070     1.0  0.83143  0.65924  0.74254  1.0000
  C   C1071     1.0  0.83767  0.67527  0.76904  1.0000
  C   C1072     1.0  0.83645  0.64035  0.74578  1.0000
  C   C1073     1.0  0.84845  0.67254  0.79671  1.0000
  C   C1074     1.0  0.84700  0.63768  0.77375  1.0000
  C   C1075     1.0  0.85305  0.65379  0.79910  1.0000
  C   C1076     1.0  0.95841  0.49303  0.83604  1.0000
  H   H1288     1.0  0.95554  0.65379  0.81213  1.0000
  H   H1289     1.0  0.92555  0.52360  0.54128  1.0000
  Fe  Fe144     1.0  0.97026  0.52371  0.58917  1.0000
  H   H1290     1.0  0.72472  0.56442  0.85769  1.0000
  C   C1077     1.0  0.95089  0.62176  0.72437  1.0000
  H   H1291     1.0  0.96153  0.52640  0.49525  1.0000
  H   H1292     1.0  0.93967  0.62490  0.70829  1.0000
  C   C1078     1.0  0.95984  0.63557  0.75218  1.0000
  S   S288      1.0  0.93809  0.48721  0.69880  1.0000
  C   C1079     1.0  0.95062  0.50804  0.95530  1.0000
  H   H1293     1.0  0.91256  0.53851  0.49270  1.0000
  H   H1294     1.0  0.95427  0.62849  0.83118  1.0000
  H   H1295     1.0  0.72286  0.71396  0.58053  1.0000
  H   H1296     1.0  0.95007  0.59372  0.69499  1.0000
  C   C1080     1.0  0.96838  0.52223  0.93458  1.0000
