data_image0
_chemical_formula_structural       FeS2FeS2FeSFeS3FeSCHSFeSFeSHSFeS2FeS2CFeS3C2H3SH4CH2SC6H4C6H4CH5C2H5C3H3C3NC2HCH12CH2NHCH2C5HC6HNH3CHCH2CHCHC3HFeC2HC2NHC2H4C2HC2HC2HCHC2H2C4H3CHCH2FeH2C2FeCSFeS2FeH2S2HSFeSHFeS2FeSFeS3H2FeHS2CHC2HC6H5C3H4NC2H2CH2C2H3C2H2CHC3SCHC6H2SNC2H3CSC3SHCHC3HC2H3C2H3CFeH3CHCH3C2HSH3CHCH3CHCHCH2NHNHFeH2CHC3H2C3H2CH2CSHC7H7CHCHCNHCH4CHCSFeC2FeS2FeCFeHS2H3C3H2C6H8C2HCH4C2HC3H4CH2C2H3CHSHCNH5CHC2HNCSCS2CHC3H4C2HC2HC3H2SC2SH2SH5CHSHNC5H6SCHC3H2NH2SCH2SCHNHCFeSHFeSHFeSFeS2HSCFeSCFeSH2C3HCHC2HCNHC2H2C6H4CHNCS2C3HCHSC2HNCH4C4H4C2H2C2H3C3HSH2CHCHCHC2HCSH3CHCHCSH3NCHC2H4C2HNHC2H3C2H6C2SH2C3H10SH3CH3SHFeSHFeS2CHFeS2FeHSFeSHSHSHCFeC2HC2HC2H5CSHCH2C7H3C2H2C2H2CH7CH3SH3CH7CHCHNCHNC3HCH7C8FeC2HC2HCHC4HFeHC3SC3HSH2CHC2N2C5H2CH2FeC3H3CHSCSHFeC2HFeS3FeS2FeS2FeH3SHFeS3C7H5C11H4SC3HCHCH3C2H3CNC9H11CH4CHCNH4CHNCSHC5FeCH3CH3FeHCH4CH2CH3SH2C2H5CH4SH2C2HC2HCHSC4HC2H3C2H2NFeCFeS2FeS2Fe2S3FeS2FeS2FeSFeS4HSHFeHCFeSCSH5C3HCH3C6H4C6H4C6H4CH2CH7CH2C2H5CHC3H3CHNC9H10NH2CH3CFeSC5HCH3CHFeHCH2CNHC2HC2NC2H5CH4C6HC3H2NCH4CH3NCH2CHC2H5CHCHCH4CHCHCSFeS2FeSFeS2HSHFeS2FeS2FeS2FeS2FeSFeCS2C6H4C3HC2HCH2CHCH2C8H4CH2CH4CH4C4HCH2CH2C2HC3HCH6C2HCH2CH2CHC2H2C2NC2HCHC2H2C3H5NC3HSHCHCH2CNH3CH3CSH4CH3C2HCH2CFeHCFeSFeS2FeSFeS3CFeS2FeS2FeHFeS3HCSHS2C3H2C6H4C2H3C4HC2H6C7H4C2H2SHNC9H11CNC9H13C2NSFeCHCHSNCH2C3H4C2H8CH6CHNH5C2FeCH2CH2CHC2H2CHFeS2FeSCFeSFeS3FeS2FeSFeSFeS3FeS2Fe2CHS3H4CH2C7H4C2HC3HCH4C6H4C6H3CHC2NC6H6FeHCHCH2C5NH2C2H4CH2SH4C2H2C2H3C3NH2CH3NHCH2CH4CH3NC3H2C2HCH2CH2CH4CHCH3CHCH3C3H2C2H2CH6C2H3SHSHFeSFeS2Fe2S2FeHCS2FeS2FeS2HC6H3CHC7H4CHCH2CHCH4CHNH6C3HCH3C2H3SH3FeH2FeHC2H3CHC2HCHCH2C4HCHCHC2HNCH2C4H2C6H5FeC2H3CH2C3HCH4NC3H3S2C2SFeSFeSCSHSFeS2FeSFeS4HC2H2CHCH5C5H5C6H6C3HCHCH2C3H4NH5NC3HC4H3FeHC2H3CHCH3C2H2CH2C3FeHCHC6H3CHCHCFeH5CH2CHCHCHCHSFeSHFeSCFeSFeS2H2CFeSFeHSH2SC3H2CHCH2C2H2C3H2C6H5C2H2CH2C3H2SC2H3SHCH2CH3C2NCSC2H2C7H7CH2NHCH7SHCHNHS2HC2H3C4HC2HC3HSNH2CH3CH3NCHCHCNSFeS2FeSHFeHFeSHSHNC5NH5CH4C7H6C2H2CHC2HSCHCH2C2H2CH4C4HCH2CSH2C2H3CHCSNHCNHC2NH2CHSHSHCHCH2CH2CSCSHCHC3HCHC3H5CSFeSHFeSFeSCSHFeSCFeS2FeSFeS3FeS2CHSC6H4C2H5C3H3C3H3C2HCHC2H2SHC2HNHC4HCHNCHCH2C2SH4CH2CNC9H9SH2C6SH3CH2CH2CHCHFeHSHCHC2HCHSNCHCH3CH3CH3C2HFeHCH2CH2SCH2C2FeS2FeS2FeSCS2FeS2FeS2FeSFeS3FeSCFeSFeSFeS2C2H2CH2C6H5C3HC7H5FeCH3NH4CH5C2HCSCHC7H4CH4CH4CHCH2C3HNH2C2H2NH3CH2CNCH2C7HCH2C2H4CH3C2HC2H2NCHC3HCH5CHCHC4H3C2SCH2CH4CH2CH4C2NC2
_chemical_formula_sum              "Fe144 S288 C1080 H1296 N72"
_cell_length_a       59.0825
_cell_length_b       59.0481
_cell_length_c       37.3695
_cell_angle_alpha    90.4441
_cell_angle_beta     92.0569
_cell_angle_gamma    118.537

_space_group_name_H-M_alt    "P 1"
_space_group_IT_number       1

loop_
  _space_group_symop_operation_xyz
  'x, y, z'

loop_
  _atom_site_type_symbol
  _atom_site_label
  _atom_site_symmetry_multiplicity
  _atom_site_fract_x
  _atom_site_fract_y
  _atom_site_fract_z
  _atom_site_occupancy
  Fe  Fe1       1.0  0.16943  0.09447  0.07545  1.0000
  S   S1        1.0  0.19784  0.12631  0.04236  1.0000
  S   S2        1.0  0.14281  0.05338  0.05367  1.0000
  Fe  Fe2       1.0  0.18202  0.13065  0.14221  1.0000
  S   S3        1.0  0.21129  0.16447  0.11288  1.0000
  S   S4        1.0  0.18043  0.13842  0.20194  1.0000
  Fe  Fe3       1.0  0.18176  0.15038  0.06674  1.0000
  S   S5        1.0  0.17264  0.18012  0.04076  1.0000
  Fe  Fe4       1.0  0.22463  0.13730  0.09197  1.0000
  S   S6        1.0  0.26688  0.14716  0.08633  1.0000
  S   S7        1.0  0.15169  0.11803  0.09732  1.0000
  S   S8        1.0  0.19702  0.10393  0.12355  1.0000
  Fe  Fe5       1.0  0.43596  0.17238  0.15839  1.0000
  S   S9        1.0  0.40637  0.14159  0.19176  1.0000
  C   C1        1.0  0.46971  0.11862  0.32320  1.0000
  H   H1        1.0  0.02275  0.15289  0.04304  1.0000
  S   S10       1.0  0.42024  0.18531  0.25445  1.0000
  Fe  Fe6       1.0  0.43592  0.15901  0.23756  1.0000
  S   S11       1.0  0.44150  0.13259  0.27706  1.0000
  Fe  Fe7       1.0  0.39353  0.17072  0.20495  1.0000
  S   S12       1.0  0.35150  0.16179  0.20948  1.0000
  H   H2        1.0  0.09884  0.11568  0.32811  1.0000
  S   S13       1.0  0.42160  0.20094  0.16970  1.0000
  Fe  Fe8       1.0  0.10606  0.18349  0.33723  1.0000
  S   S14       1.0  0.14348  0.21570  0.35950  1.0000
  S   S15       1.0  0.10053  0.16075  0.28512  1.0000
  Fe  Fe9       1.0  0.07613  0.18507  0.40267  1.0000
  S   S16       1.0  0.11191  0.21765  0.42889  1.0000
  S   S17       1.0  0.03877  0.15875  0.43030  1.0000
  C   C2        1.0  0.40602  0.00443  0.37304  1.0000
  Fe  Fe10      1.0  0.13215  0.19554  0.41206  1.0000
  S   S18       1.0  0.16206  0.19114  0.44757  1.0000
  S   S19       1.0  0.08275  0.20380  0.34865  1.0000
  S   S20       1.0  0.09631  0.16223  0.38875  1.0000
  C   C3        1.0  0.43075  0.19365  0.01159  1.0000
  C   C4        1.0  0.44681  0.01489  0.40296  1.0000
  H   H3        1.0  0.36020  0.20277  0.25783  1.0000
  H   H4        1.0  0.11538  0.14213  0.45852  1.0000
  H   H5        1.0  0.20004  0.05678  0.09628  1.0000
  S   S21       1.0  0.46641  0.18796  0.20351  1.0000
  H   H6        1.0  0.22307  0.09093  0.05056  1.0000
  H   H7        1.0  0.09464  0.08577  0.34486  1.0000
  H   H8        1.0  0.16065  0.01578  0.09538  1.0000
  H   H9        1.0  0.46536  0.19030  0.38375  1.0000
  C   C5        1.0  0.14798  0.03542  0.01939  1.0000
  H   H10       1.0  0.23973  0.08755  0.10838  1.0000
  H   H11       1.0  0.14054  0.00687  0.48408  1.0000
  S   S22       1.0  0.43504  0.15791  0.10109  1.0000
  C   C6        1.0  0.15889  0.14739  0.22175  1.0000
  C   C7        1.0  0.16722  0.16352  0.25271  1.0000
  C   C8        1.0  0.14997  0.16899  0.27137  1.0000
  C   C9        1.0  0.12391  0.15749  0.26008  1.0000
  C   C10       1.0  0.11570  0.14172  0.22881  1.0000
  C   C11       1.0  0.13311  0.13690  0.20952  1.0000
  H   H12       1.0  0.18714  0.17177  0.26229  1.0000
  H   H13       1.0  0.15680  0.18177  0.29472  1.0000
  H   H14       1.0  0.09563  0.13284  0.21971  1.0000
  H   H15       1.0  0.12637  0.12427  0.18596  1.0000
  C   C12       1.0  0.32822  0.15735  0.17463  1.0000
  C   C13       1.0  0.30311  0.15145  0.18377  1.0000
  C   C14       1.0  0.28416  0.14840  0.15722  1.0000
  C   C15       1.0  0.29014  0.15135  0.12109  1.0000
  C   C16       1.0  0.31525  0.15725  0.11194  1.0000
  C   C17       1.0  0.33420  0.16028  0.13849  1.0000
  H   H16       1.0  0.29822  0.14917  0.21162  1.0000
  H   H17       1.0  0.26494  0.14381  0.16475  1.0000
  H   H18       1.0  0.32012  0.15956  0.08409  1.0000
  H   H19       1.0  0.35342  0.16488  0.13098  1.0000
  C   C18       1.0  0.17676  0.01757  0.08029  1.0000
  H   H20       1.0  0.05320  0.18447  0.00260  1.0000
  H   H21       1.0  0.25546  0.10690  0.03618  1.0000
  H   H22       1.0  0.14024  0.15085  0.38898  1.0000
  H   H23       1.0  0.28416  0.08775  0.04587  1.0000
  H   H24       1.0  0.33317  0.22395  0.24577  1.0000
  C   C19       1.0  0.01796  0.16498  0.45701  1.0000
  C   C20       1.0  0.45052  0.13991  0.04409  1.0000
  H   H25       1.0  0.06890  0.11520  0.99874  1.0000
  H   H26       1.0  0.10251  0.07937  0.40388  1.0000
  H   H27       1.0  0.23133  0.02422  0.01997  1.0000
  H   H28       1.0  0.19627  0.11567  0.43138  1.0000
  H   H29       1.0  0.09594  0.11064  0.37511  1.0000
  C   C21       1.0  0.45855  0.15516  0.07589  1.0000
  C   C22       1.0  0.14386  0.14617  0.36157  1.0000
  C   C23       1.0  0.19956  0.04108  0.08070  1.0000
  H   H30       1.0  0.46207  0.12595  0.99822  1.0000
  H   H31       1.0  0.42305  0.04204  0.01308  1.0000
  H   H32       1.0  0.41847  0.04552  0.07192  1.0000
  C   C24       1.0  0.46477  0.19420  0.35474  1.0000
  C   C25       1.0  0.12312  0.08772  0.40827  1.0000
  C   C26       1.0  0.13937  0.19049  0.99959  1.0000
  N   N1        1.0  0.13271  0.11788  0.35572  1.0000
  C   C27       1.0  0.36334  0.22662  0.19553  1.0000
  C   C28       1.0  0.12891  0.00983  0.01145  1.0000
  H   H33       1.0  0.44605  0.99202  0.44674  1.0000
  C   C29       1.0  0.09518  0.13207  0.04302  1.0000
  H   H34       1.0  0.10395  0.11980  0.03907  1.0000
  H   H35       1.0  0.13536  0.09178  0.31764  1.0000
  H   H36       1.0  0.12113  0.15300  0.08758  1.0000
  H   H37       1.0  0.11133  0.00163  0.02595  1.0000
  H   H38       1.0  0.46639  0.22379  0.29862  1.0000
  H   H39       1.0  0.44981  0.21876  0.39522  1.0000
  H   H40       1.0  0.13541  0.15459  0.34220  1.0000
  H   H41       1.0  0.39232  0.21667  0.24252  1.0000
  H   H42       1.0  0.37531  0.21858  0.18445  1.0000
  H   H43       1.0  0.43022  0.12966  0.03623  1.0000
  H   H44       1.0  0.21554  0.22152  0.99333  1.0000
  H   H45       1.0  0.16439  0.08250  0.46941  1.0000
  C   C30       1.0  0.23818  0.08763  0.03829  1.0000
  H   H46       1.0  0.06609  0.17767  0.05767  1.0000
  H   H47       1.0  0.10202  0.18168  0.09665  1.0000
  N   N2        1.0  0.04156  0.14360  0.00099  1.0000
  H   H48       1.0  0.27191  0.09882  0.09725  1.0000
  C   C31       1.0  0.99703  0.14404  0.47227  1.0000
  H   H49       1.0  0.25431  0.06703  0.11476  1.0000
  H   H50       1.0  0.46767  0.02672  0.40550  1.0000
  C   C32       1.0  0.37803  0.22140  0.25445  1.0000
  C   C33       1.0  0.15796  0.08892  0.44590  1.0000
  C   C34       1.0  0.14927  0.17331  0.00550  1.0000
  C   C35       1.0  0.43057  0.07651  0.10995  1.0000
  C   C36       1.0  0.26622  0.06878  0.04347  1.0000
  H   H51       1.0  0.39519  0.00835  0.35222  1.0000
  C   C37       1.0  0.09425  0.16707  0.07530  1.0000
  C   C38       1.0  0.10428  0.10688  0.35097  1.0000
  C   C39       1.0  0.13136  0.14195  0.47330  1.0000
  C   C40       1.0  0.44303  0.05561  0.00582  1.0000
  C   C41       1.0  0.17585  0.10770  0.42455  1.0000
  C   C42       1.0  0.47502  0.10946  0.10993  1.0000
  H   H52       1.0  0.45156  0.10145  0.32692  1.0000
  N   N3        1.0  0.46248  0.05969  0.03497  1.0000
  H   H53       1.0  0.43938  0.02173  0.05605  1.0000
  H   H54       1.0  0.11795  0.06464  0.45498  1.0000
  H   H55       1.0  0.44261  0.03542  0.35822  1.0000
  C   C43       1.0  0.22061  0.04452  0.06000  1.0000
  H   H56       1.0  0.27041  0.05437  0.05698  1.0000
  C   C44       1.0  0.06349  0.14593  0.02422  1.0000
  H   H57       1.0  0.16505  0.15670  0.35851  1.0000
  H   H58       1.0  0.16352  0.12291  0.32132  1.0000
  C   C45       1.0  0.45067  0.09959  0.12388  1.0000
  H   H59       1.0  0.00180  0.13435  0.00657  1.0000
  C   C46       1.0  0.25277  0.08109  0.09655  1.0000
  H   H60       1.0  0.41291  0.19236  0.02049  1.0000
  C   C47       1.0  0.13170  0.07886  0.43767  1.0000
  C   C48       1.0  0.16754  0.11662  0.39499  1.0000
  C   C49       1.0  0.07492  0.12968  0.01995  1.0000
  H   H61       1.0  0.99367  0.12463  0.46686  1.0000
  Fe  Fe11      1.0  0.44916  0.21365  0.21824  1.0000
  C   C50       1.0  0.17394  0.99702  0.05863  1.0000
  C   C51       1.0  0.15609  0.16309  0.47194  1.0000
  H   H62       1.0  0.18212  0.13139  0.37941  1.0000
  C   C52       1.0  0.47565  0.20631  0.02334  1.0000
  C   C53       1.0  0.43465  0.06342  0.08165  1.0000
  N   N4        1.0  0.24414  0.06995  0.05959  1.0000
  H   H63       1.0  0.45189  0.21194  0.06083  1.0000
  C   C54       1.0  0.10492  0.15080  0.07046  1.0000
  C   C55       1.0  0.14090  0.10712  0.38615  1.0000
  H   H64       1.0  0.44545  0.19190  0.34664  1.0000
  H   H65       1.0  0.13511  0.11931  0.29812  1.0000
  H   H66       1.0  0.38592  0.23016  0.28157  1.0000
  H   H67       1.0  0.14548  0.20707  0.01746  1.0000
  C   C56       1.0  0.14213  0.11276  0.32190  1.0000
  C   C57       1.0  0.46853  0.13790  0.02235  1.0000
  H   H68       1.0  0.01369  0.11931  0.03814  1.0000
  C   C58       1.0  0.07378  0.16468  0.05268  1.0000
  C   C59       1.0  0.00526  0.19386  0.48633  1.0000
  H   H69       1.0  0.34369  0.20966  0.19600  1.0000
  C   C60       1.0  0.45899  0.07343  0.06589  1.0000
  C   C61       1.0  0.45275  0.20490  0.03429  1.0000
  H   H70       1.0  0.44729  0.11006  0.14521  1.0000
  C   C62       1.0  0.21700  0.02321  0.03790  1.0000
  H   H71       1.0  0.46639  0.17853  0.34010  1.0000
  C   C63       1.0  0.43422  0.99483  0.42649  1.0000
  C   C64       1.0  0.17049  0.04583  0.00017  1.0000
  H   H72       1.0  0.23105  0.07975  0.01061  1.0000
  H   H73       1.0  0.03810  0.20625  0.45284  1.0000
  C   C65       1.0  0.01905  0.13728  0.02315  1.0000
  C   C66       1.0  0.19396  0.99986  0.03737  1.0000
  C   C67       1.0  0.45895  0.03422  0.04625  1.0000
  C   C68       1.0  0.02208  0.18996  0.46431  1.0000
  H   H74       1.0  0.46147  0.02331  0.02364  1.0000
  H   H75       1.0  0.44366  0.07417  0.99869  1.0000
  H   H76       1.0  0.26268  0.06402  0.01425  1.0000
  C   C69       1.0  0.43273  0.01974  0.37632  1.0000
  H   H77       1.0  0.97871  0.14194  0.38501  1.0000
  C   C70       1.0  0.47052  0.13734  0.29943  1.0000
  H   H78       1.0  0.41166  0.06892  0.12096  1.0000
  H   H79       1.0  0.47320  0.03640  0.06815  1.0000
  Fe  Fe12      1.0  0.12014  0.23536  0.37378  1.0000
  H   H80       1.0  0.18495  0.06562  0.00537  1.0000
  H   H81       1.0  0.19586  0.17843  0.49024  1.0000
  C   C71       1.0  0.46479  0.23772  0.38899  1.0000
  C   C72       1.0  0.17663  0.16227  0.49113  1.0000
  Fe  Fe13      1.0  0.04201  0.18415  0.82291  1.0000
  C   C73       1.0  0.46808  0.19451  0.77654  1.0000
  S   S23       1.0  0.03056  0.16735  0.76629  1.0000
  Fe  Fe14      1.0  0.07466  0.18352  0.88800  1.0000
  S   S24       1.0  0.07255  0.21635  0.91534  1.0000
  S   S25       1.0  0.09368  0.16024  0.90864  1.0000
  Fe  Fe15      1.0  0.03035  0.19525  0.89768  1.0000
  H   H82       1.0  0.11851  0.99627  0.67833  1.0000
  H   H83       1.0  0.41412  0.14242  0.92997  1.0000
  S   S26       1.0  0.03217  0.16137  0.87326  1.0000
  S   S27       1.0  0.08479  0.20339  0.83529  1.0000
  H   H84       1.0  0.17114  0.08492  0.87400  1.0000
  S   S28       1.0  0.99968  0.19156  0.93649  1.0000
  Fe  Fe16      1.0  0.17650  0.03247  0.56372  1.0000
  S   S29       1.0  0.14616  0.03809  0.59069  1.0000
  H   H85       1.0  0.04922  0.12735  0.95396  1.0000
  Fe  Fe17      1.0  0.22046  0.08608  0.59268  1.0000
  S   S30       1.0  0.19215  0.09461  0.62089  1.0000
  S   S31       1.0  0.26493  0.10903  0.59445  1.0000
  Fe  Fe18      1.0  0.17393  0.05308  0.63863  1.0000
  S   S32       1.0  0.16864  0.04156  0.69770  1.0000
  Fe  Fe19      1.0  0.16696  0.07883  0.56991  1.0000
  S   S33       1.0  0.14093  0.09269  0.54069  1.0000
  S   S34       1.0  0.20346  0.04571  0.61263  1.0000
  S   S35       1.0  0.19612  0.07218  0.54061  1.0000
  H   H86       1.0  0.02656  0.10387  0.98355  1.0000
  H   H87       1.0  0.12637  0.99674  0.89258  1.0000
  Fe  Fe20      1.0  0.44975  0.23532  0.71735  1.0000
  H   H88       1.0  0.14333  0.09383  0.97431  1.0000
  S   S36       1.0  0.35279  0.20725  0.68441  1.0000
  S   S37       1.0  0.42518  0.21817  0.66625  1.0000
  C   C74       1.0  0.14862  0.01243  0.71972  1.0000
  H   H89       1.0  0.15033  0.06078  0.82343  1.0000
  C   C75       1.0  0.34462  0.19885  0.55665  1.0000
  C   C76       1.0  0.98336  0.20025  0.66046  1.0000
  H   H90       1.0  0.37062  0.23140  0.61319  1.0000
  C   C77       1.0  0.32849  0.17881  0.66095  1.0000
  C   C78       1.0  0.33417  0.16163  0.64218  1.0000
  C   C79       1.0  0.31445  0.14027  0.62263  1.0000
  C   C80       1.0  0.28857  0.13517  0.62222  1.0000
  C   C81       1.0  0.28272  0.15186  0.64189  1.0000
  C   C82       1.0  0.30255  0.17355  0.66086  1.0000
  H   H91       1.0  0.35370  0.16462  0.64284  1.0000
  H   H92       1.0  0.31928  0.12751  0.60773  1.0000
  H   H93       1.0  0.26302  0.14838  0.64190  1.0000
  H   H94       1.0  0.29773  0.18643  0.67549  1.0000
  H   H95       1.0  0.33425  0.22534  0.58367  1.0000
  C   C83       1.0  0.43992  0.15104  0.79650  1.0000
  C   C84       1.0  0.44381  0.17257  0.77610  1.0000
  C   C85       1.0  0.32728  0.20699  0.56968  1.0000
  H   H96       1.0  0.06596  0.17395  0.96700  1.0000
  H   H97       1.0  0.42113  0.13407  0.79544  1.0000
  H   H98       1.0  0.42813  0.17201  0.75953  1.0000
  H   H99       1.0  0.00945  0.14753  0.69593  1.0000
  N   N5        1.0  0.45424  0.17204  0.93127  1.0000
  C   C86       1.0  0.14132  0.15194  0.98228  1.0000
  C   C87       1.0  0.12468  0.03907  0.92389  1.0000
  H   H100      1.0  0.41393  0.17502  0.96134  1.0000
  H   H101      1.0  0.11150  0.01878  0.92636  1.0000
  C   C88       1.0  0.19806  0.99425  0.67686  1.0000
  H   H102      1.0  0.02152  0.22033  0.58935  1.0000
  H   H103      1.0  0.16777  0.02105  0.84266  1.0000
  C   C89       1.0  0.11444  0.16546  0.94682  1.0000
  C   C90       1.0  0.12406  0.14811  0.95301  1.0000
  H   H104      1.0  0.17201  0.11251  0.92380  1.0000
  H   H105      1.0  0.00740  0.17018  0.56956  1.0000
  H   H106      1.0  0.11834  0.13174  0.93484  1.0000
  C   C91       1.0  0.38838  0.20445  0.54676  1.0000
  C   C92       1.0  0.33351  0.17398  0.53968  1.0000
  H   H107      1.0  0.99530  0.20625  0.71521  1.0000
  H   H108      1.0  0.18961  0.00399  0.69318  1.0000
  C   C93       1.0  0.99974  0.15790  0.74623  1.0000
  H   H109      1.0  0.44909  0.17774  0.87514  1.0000
  C   C94       1.0  0.38016  0.22151  0.59996  1.0000
  C   C95       1.0  0.14110  0.04900  0.89458  1.0000
  C   C96       1.0  0.98421  0.17292  0.50134  1.0000
  S   S38       1.0  0.47189  0.09731  0.93152  1.0000
  C   C97       1.0  0.13249  0.99462  0.98524  1.0000
  H   H110      1.0  0.08898  0.13295  0.56651  1.0000
  C   C98       1.0  0.05871  0.15816  0.56421  1.0000
  C   C99       1.0  0.06083  0.15349  0.60120  1.0000
  C   C100      1.0  0.03908  0.16442  0.55377  1.0000
  C   C101      1.0  0.04436  0.15524  0.62586  1.0000
  C   C102      1.0  0.15539  0.00476  0.96691  1.0000
  C   C103      1.0  0.43385  0.14462  0.92947  1.0000
  H   H111      1.0  0.17466  0.02313  0.76622  1.0000
  H   H112      1.0  0.43628  0.13385  0.95226  1.0000
  S   S39       1.0  0.47215  0.03164  0.92898  1.0000
  N   N6        1.0  0.37284  0.21583  0.56134  1.0000
  C   C104      1.0  0.15871  0.09199  0.92359  1.0000
  C   C105      1.0  0.16719  0.03428  0.86356  1.0000
  H   H113      1.0  0.13394  0.02820  0.80726  1.0000
  H   H114      1.0  0.07482  0.14815  0.61176  1.0000
  H   H115      1.0  0.29854  0.13900  0.52474  1.0000
  C   C106      1.0  0.12506  0.99347  0.70449  1.0000
  S   S40       1.0  0.03735  0.21698  0.84588  1.0000
  C   C107      1.0  0.17528  0.22219  0.92641  1.0000
  C   C108      1.0  0.30058  0.19121  0.56611  1.0000
  C   C109      1.0  0.45431  0.18392  0.96636  1.0000
  S   S41       1.0  0.16677  0.99255  0.54071  1.0000
  H   H116      1.0  0.18245  0.05398  0.85759  1.0000
  C   C110      1.0  0.12185  0.18647  0.97055  1.0000
  H   H117      1.0  0.01227  0.16235  0.63345  1.0000
  C   C111      1.0  0.17252  0.14078  0.51179  1.0000
  C   C112      1.0  0.99472  0.14914  0.71030  1.0000
  C   C113      1.0  0.17426  0.03052  0.97433  1.0000
  H   H118      1.0  0.10215  0.00175  0.86813  1.0000
  C   C114      1.0  0.15645  0.00865  0.75420  1.0000
  C   C115      1.0  0.05894  0.13330  0.51265  1.0000
  H   H119      1.0  0.42972  0.18494  0.90377  1.0000
  H   H120      1.0  0.21179  0.99086  0.69421  1.0000
  H   H121      1.0  0.11655  0.04126  0.83066  1.0000
  C   C116      1.0  0.12224  0.00479  0.86787  1.0000
  C   C117      1.0  0.15805  0.07601  0.89525  1.0000
  H   H122      1.0  0.11437  0.19975  0.96634  1.0000
  H   H123      1.0  0.02776  0.21258  0.75392  1.0000
  H   H124      1.0  0.10902  0.16764  0.57196  1.0000
  C   C118      1.0  0.00219  0.21046  0.68842  1.0000
  Fe  Fe21      1.0  0.39737  0.22935  0.69037  1.0000
  H   H125      1.0  0.11312  0.04724  0.97442  1.0000
  H   H126      1.0  0.38451  0.18635  0.56049  1.0000
  H   H127      1.0  0.12905  0.21834  0.89700  1.0000
  C   C119      1.0  0.18973  0.21374  0.94734  1.0000
  H   H128      1.0  0.15396  0.23259  0.86479  1.0000
  C   C120      1.0  0.14769  0.11992  0.51389  1.0000
  H   H129      1.0  0.28773  0.19735  0.57754  1.0000
  H   H130      1.0  0.43424  0.13465  0.90424  1.0000
  H   H131      1.0  0.04942  0.11512  0.52769  1.0000
  C   C121      1.0  0.02262  0.16590  0.57850  1.0000
  C   C122      1.0  0.30675  0.15839  0.53622  1.0000
  H   H132      1.0  0.40950  0.21775  0.55102  1.0000
  S   S42       1.0  0.45425  0.12324  0.84240  1.0000
  H   H133      1.0  0.37508  0.20359  0.61466  1.0000
  H   H134      1.0  0.05222  0.20070  0.71020  1.0000
  H   H135      1.0  0.03600  0.16776  0.52618  1.0000
  C   C123      1.0  0.12537  0.05527  0.95190  1.0000
  H   H136      1.0  0.04609  0.15133  0.65388  1.0000
  C   C124      1.0  0.46012  0.15115  0.81777  1.0000
  H   H137      1.0  0.01697  0.12224  0.95510  1.0000
  H   H138      1.0  0.26967  0.15429  0.54800  1.0000
  H   H139      1.0  0.44631  0.04711  0.98106  1.0000
  C   C125      1.0  0.02528  0.16139  0.61449  1.0000
  H   H140      1.0  0.20982  0.00844  0.65678  1.0000
  C   C126      1.0  0.09639  0.15168  0.55276  1.0000
  H   H141      1.0  0.18849  0.14053  0.52655  1.0000
  C   C127      1.0  0.14248  0.08159  0.95194  1.0000
  H   H142      1.0  0.17276  0.02893  0.88969  1.0000
  H   H143      1.0  0.03282  0.16714  0.96497  1.0000
  N   N7        1.0  0.07512  0.15567  0.53700  1.0000
  H   H144      1.0  0.09769  0.19687  0.53278  1.0000
  N   N8        1.0  0.14129  0.03245  0.86468  1.0000
  H   H145      1.0  0.12269  0.99275  0.84506  1.0000
  Fe  Fe22      1.0  0.07986  0.23510  0.86117  1.0000
  H   H146      1.0  0.19197  0.03861  0.96020  1.0000
  H   H147      1.0  0.10909  0.15108  0.53192  1.0000
  C   C128      1.0  0.13531  0.04112  0.83012  1.0000
  H   H148      1.0  0.10088  0.17860  0.49634  1.0000
  C   C129      1.0  0.08705  0.17924  0.51535  1.0000
  C   C130      1.0  0.29035  0.16698  0.54936  1.0000
  C   C131      1.0  0.99037  0.20399  0.62497  1.0000
  H   H149      1.0  0.40121  0.23406  0.60451  1.0000
  H   H150      1.0  0.14890  0.13869  0.98651  1.0000
  C   C132      1.0  0.43150  0.18353  0.97797  1.0000
  C   C133      1.0  0.01628  0.21777  0.61715  1.0000
  C   C134      1.0  0.02884  0.22491  0.68143  1.0000
  H   H151      1.0  0.34499  0.16577  0.52970  1.0000
  H   H152      1.0  0.18796  0.19485  0.94213  1.0000
  C   C135      1.0  0.20531  0.22877  0.97627  1.0000
  H   H153      1.0  0.16289  0.20899  0.90534  1.0000
  H   H154      1.0  0.38459  0.20044  0.51742  1.0000
  C   C136      1.0  0.98053  0.15964  0.76490  1.0000
  S   S43       1.0  0.47484  0.22160  0.74943  1.0000
  H   H155      1.0  0.07564  0.22558  0.68417  1.0000
  C   C137      1.0  0.47549  0.00921  0.95803  1.0000
  C   C138      1.0  0.03532  0.22789  0.64487  1.0000
  C   C139      1.0  0.44893  0.18596  0.90205  1.0000
  C   C140      1.0  0.03329  0.12332  0.97226  1.0000
  C   C141      1.0  0.04874  0.16837  0.98325  1.0000
  C   C142      1.0  0.06486  0.22194  0.70909  1.0000
  C   C143      1.0  0.98026  0.14796  0.49436  1.0000
  H   H156      1.0  0.04342  0.13562  0.49813  1.0000
  H   H157      1.0  0.07919  0.22769  0.73214  1.0000
  H   H158      1.0  0.47695  0.99253  0.86352  1.0000
  H   H159      1.0  0.98438  0.13628  0.93255  1.0000
  H   H160      1.0  0.46367  0.20673  0.90267  1.0000
  H   H161      1.0  0.17261  0.99137  0.61657  1.0000
  H   H162      1.0  0.98422  0.16634  0.79261  1.0000
  C   C144      1.0  0.03938  0.23310  0.74680  1.0000
  H   H163      1.0  0.47742  0.01114  0.53646  1.0000
  C   C145      1.0  0.14309  0.23681  0.88514  1.0000
  H   H164      1.0  0.07262  0.18171  0.49822  1.0000
  C   C146      1.0  0.47656  0.19594  0.98999  1.0000
  N   N9        1.0  0.04940  0.23564  0.71028  1.0000
  H   H165      1.0  0.10794  0.10458  0.49561  1.0000
  C   C147      1.0  0.12719  0.12068  0.49443  1.0000
  H   H166      1.0  0.37420  0.23703  0.51421  1.0000
  H   H167      1.0  0.07051  0.13067  0.49170  1.0000
  H   H168      1.0  0.05516  0.23783  0.63739  1.0000
  H   H169      1.0  0.00848  0.21325  0.49156  1.0000
  C   C148      1.0  0.21699  0.30669  0.43345  1.0000
  H   H170      1.0  0.41526  0.24925  0.19204  1.0000
  C   C149      1.0  0.40282  0.28555  0.25189  1.0000
  S   S44       1.0  0.13778  0.27978  0.37147  1.0000
  Fe  Fe23      1.0  0.15485  0.45304  0.22120  1.0000
  C   C150      1.0  0.46157  0.47734  0.43550  1.0000
  C   C151      1.0  0.46786  0.46946  0.00623  1.0000
  Fe  Fe24      1.0  0.16279  0.40859  0.25413  1.0000
  S   S45       1.0  0.20026  0.43716  0.28169  1.0000
  S   S46       1.0  0.14857  0.36455  0.25529  1.0000
  Fe  Fe25      1.0  0.17947  0.45942  0.29634  1.0000
  C   C152      1.0  0.98569  0.45679  0.40978  1.0000
  Fe  Fe26      1.0  0.20904  0.45842  0.22977  1.0000
  H   H171      1.0  0.26500  0.43570  0.23095  1.0000
  S   S47       1.0  0.14149  0.42978  0.27144  1.0000
  S   S48       1.0  0.17243  0.42904  0.20086  1.0000
  H   H172      1.0  0.01658  0.43459  0.43025  1.0000
  H   H173      1.0  0.25085  0.31124  0.46575  1.0000
  H   H174      1.0  0.23555  0.41266  0.26928  1.0000
  C   C153      1.0  0.03222  0.42239  0.01909  1.0000
  C   C154      1.0  0.13337  0.48787  0.15848  1.0000
  C   C155      1.0  0.47050  0.27323  0.27098  1.0000
  H   H175      1.0  0.34878  0.25709  0.23309  1.0000
  H   H176      1.0  0.03329  0.45424  0.09818  1.0000
  C   C156      1.0  0.14040  0.30293  0.33858  1.0000
  C   C157      1.0  0.15188  0.32929  0.34891  1.0000
  C   C158      1.0  0.15448  0.34835  0.32410  1.0000
  C   C159      1.0  0.14568  0.34141  0.28831  1.0000
  C   C160      1.0  0.13450  0.31511  0.27791  1.0000
  C   C161      1.0  0.13180  0.29604  0.30274  1.0000
  H   H177      1.0  0.15853  0.33502  0.37648  1.0000
  H   H178      1.0  0.16307  0.36838  0.33277  1.0000
  H   H179      1.0  0.12756  0.30934  0.25041  1.0000
  H   H180      1.0  0.12293  0.27598  0.29411  1.0000
  H   H181      1.0  0.44900  0.25532  0.42415  1.0000
  H   H182      1.0  0.38957  0.28556  0.27097  1.0000
  H   H183      1.0  0.07926  0.48666  0.00774  1.0000
  H   H184      1.0  0.04532  0.41579  0.02925  1.0000
  C   C162      1.0  0.44809  0.26248  0.29043  1.0000
  C   C163      1.0  0.44423  0.27751  0.31661  1.0000
  H   H185      1.0  0.18564  0.47168  0.47856  1.0000
  C   C164      1.0  0.42652  0.30811  0.25104  1.0000
  H   H186      1.0  0.42666  0.26914  0.33110  1.0000
  H   H187      1.0  0.24370  0.36174  0.17828  1.0000
  H   H188      1.0  0.22104  0.28645  0.37255  1.0000
  H   H189      1.0  0.43079  0.32425  0.26916  1.0000
  C   C165      1.0  0.45559  0.48482  0.00241  1.0000
  C   C166      1.0  0.26880  0.44991  0.12118  1.0000
  H   H190      1.0  0.23420  0.44002  0.14983  1.0000
  C   C167      1.0  0.25681  0.38168  0.18523  1.0000
  C   C168      1.0  0.29865  0.41838  0.17614  1.0000
  C   C169      1.0  0.04938  0.47075  0.38719  1.0000
  H   H191      1.0  0.14262  0.48591  0.32616  1.0000
  H   H192      1.0  0.98200  0.44286  0.43034  1.0000
  H   H193      1.0  0.20610  0.35799  0.41739  1.0000
  H   H194      1.0  0.23736  0.38346  0.27629  1.0000
  C   C170      1.0  0.17938  0.26515  0.44005  1.0000
  H   H195      1.0  0.24000  0.27521  0.42819  1.0000
  H   H196      1.0  0.21091  0.24544  0.43245  1.0000
  C   C171      1.0  0.28074  0.39257  0.16937  1.0000
  C   C172      1.0  0.46409  0.25859  0.40598  1.0000
  H   H197      1.0  0.20676  0.38332  0.27392  1.0000
  H   H198      1.0  0.27362  0.46464  0.03051  1.0000
  H   H199      1.0  0.45585  0.28897  0.19063  1.0000
  C   C173      1.0  0.04596  0.47209  0.08392  1.0000
  H   H200      1.0  0.47654  0.32523  0.48447  1.0000
  S   S49       1.0  0.25027  0.47825  0.20974  1.0000
  H   H201      1.0  0.25935  0.43368  0.10247  1.0000
  C   C174      1.0  0.41715  0.26555  0.20770  1.0000
  N   N10       1.0  0.05667  0.46610  0.05207  1.0000
  H   H202      1.0  0.35571  0.24760  0.27645  1.0000
  H   H203      1.0  0.16587  0.27156  0.42842  1.0000
  H   H204      1.0  0.04679  0.45466  0.45333  1.0000
  H   H205      1.0  0.18852  0.35124  0.22944  1.0000
  H   H206      1.0  0.18719  0.31194  0.40427  1.0000
  C   C175      1.0  0.07483  0.45685  0.06498  1.0000
  H   H207      1.0  0.22114  0.42075  0.21152  1.0000
  C   C176      1.0  0.47457  0.46334  0.44489  1.0000
  C   C177      1.0  0.25451  0.45330  0.14828  1.0000
  H   H208      1.0  0.28528  0.38113  0.15107  1.0000
  N   N11       1.0  0.20524  0.27871  0.42487  1.0000
  C   C178      1.0  0.26668  0.47370  0.17348  1.0000
  S   S50       1.0  0.47597  0.44163  0.41231  1.0000
  C   C179      1.0  0.28593  0.47862  0.01059  1.0000
  S   S51       1.0  0.12730  0.46533  0.19312  1.0000
  S   S52       1.0  0.18422  0.47597  0.35338  1.0000
  C   C180      1.0  0.20245  0.27440  0.38538  1.0000
  H   H209      1.0  0.03742  0.45236  0.37175  1.0000
  C   C181      1.0  0.39724  0.26363  0.22971  1.0000
  C   C182      1.0  0.29524  0.46723  0.11826  1.0000
  C   C183      1.0  0.01102  0.47428  0.39948  1.0000
  H   H210      1.0  0.30662  0.45359  0.20376  1.0000
  H   H211      1.0  0.30626  0.48553  0.02035  1.0000
  H   H212      1.0  0.31681  0.42703  0.16285  1.0000
  H   H213      1.0  0.23928  0.47399  0.00711  1.0000
  C   C184      1.0  0.20500  0.32107  0.42040  1.0000
  C   C185      1.0  0.21570  0.34752  0.42781  1.0000
  H   H214      1.0  0.46398  0.32670  0.22878  1.0000
  C   C186      1.0  0.44532  0.30952  0.22838  1.0000
  C   C187      1.0  0.44064  0.28829  0.20677  1.0000
  H   H215      1.0  0.03433  0.48184  0.07675  1.0000
  C   C188      1.0  0.22048  0.26652  0.43934  1.0000
  C   C189      1.0  0.01659  0.45338  0.01318  1.0000
  C   C190      1.0  0.46282  0.30337  0.32404  1.0000
  H   H216      1.0  0.06149  0.48541  0.10332  1.0000
  H   H217      1.0  0.01757  0.47173  0.01911  1.0000
  S   S53       1.0  0.31268  0.46124  0.08483  1.0000
  C   C191      1.0  0.03530  0.44720  0.02813  1.0000
  C   C192      1.0  0.26898  0.42276  0.21496  1.0000
  S   S54       1.0  0.45634  0.32183  0.35603  1.0000
  H   H218      1.0  0.19098  0.39203  0.21441  1.0000
  H   H219      1.0  0.20974  0.39688  0.17581  1.0000
  S   S55       1.0  0.19194  0.48348  0.24734  1.0000
  H   H220      1.0  0.21668  0.34721  0.22871  1.0000
  H   H221      1.0  0.43358  0.24274  0.28488  1.0000
  H   H222      1.0  0.20283  0.35302  0.18789  1.0000
  H   H223      1.0  0.05675  0.48670  0.36799  1.0000
  H   H224      1.0  0.25001  0.48144  0.06470  1.0000
  C   C193      1.0  0.29289  0.43333  0.19922  1.0000
  H   H225      1.0  0.18781  0.27905  0.37289  1.0000
  S   S56       1.0  0.36490  0.48055  0.01251  1.0000
  H   H226      1.0  0.08413  0.45266  0.04233  1.0000
  N   N12       1.0  0.22418  0.38649  0.22300  1.0000
  C   C194      1.0  0.20752  0.35825  0.21689  1.0000
  C   C195      1.0  0.22618  0.39173  0.26226  1.0000
  C   C196      1.0  0.21097  0.39962  0.20545  1.0000
  C   C197      1.0  0.25013  0.39659  0.20842  1.0000
  C   C198      1.0  0.02883  0.45423  0.44229  1.0000
  H   H227      1.0  0.24685  0.38098  0.45416  1.0000
  H   H228      1.0  0.46254  0.45589  0.02767  1.0000
  H   H229      1.0  0.45241  0.47447  0.40905  1.0000
  H   H230      1.0  0.18054  0.26849  0.46956  1.0000
  H   H231      1.0  0.19607  0.25392  0.37772  1.0000
  H   H232      1.0  0.26869  0.35713  0.47796  1.0000
  S   S57       1.0  0.47472  0.37351  0.43368  1.0000
  C   C199      1.0  0.24032  0.32045  0.45457  1.0000
  H   H233      1.0  0.01915  0.45700  0.46576  1.0000
  C   C200      1.0  0.23859  0.36045  0.44849  1.0000
  C   C201      1.0  0.25086  0.34695  0.46186  1.0000
  C   C202      1.0  0.35185  0.24225  0.24741  1.0000
  H   H234      1.0  0.06508  0.43941  0.08143  1.0000
  H   H235      1.0  0.06684  0.47025  0.39872  1.0000
  N   N13       1.0  0.03444  0.47454  0.41554  1.0000
  H   H236      1.0  0.21907  0.26416  0.00668  1.0000
  H   H237      1.0  0.22240  0.26804  0.46912  1.0000
  S   S58       1.0  0.43156  0.48125  0.03302  1.0000
  C   C203      1.0  0.16488  0.48761  0.37380  1.0000
  H   H238      1.0  0.09089  0.47159  0.08234  1.0000
  H   H239      1.0  0.17015  0.24395  0.43480  1.0000
  S   S59       1.0  0.47550  0.25570  0.23586  1.0000
  C   C204      1.0  0.30719  0.48811  0.14269  1.0000
  H   H240      1.0  0.41372  0.39852  0.99225  1.0000
  N   N14       1.0  0.37294  0.23901  0.23170  1.0000
  H   H241      1.0  0.36245  0.24041  0.17613  1.0000
  C   C205      1.0  0.01173  0.40514  0.99631  1.0000
  Fe  Fe27      1.0  0.24625  0.44623  0.79201  1.0000
  S   S60       1.0  0.24842  0.41537  0.75903  1.0000
  H   H242      1.0  0.19484  0.28011  0.97004  1.0000
  Fe  Fe28      1.0  0.21683  0.45688  0.73024  1.0000
  S   S61       1.0  0.21738  0.42657  0.69408  1.0000
  H   H243      1.0  0.34912  0.45529  0.83687  1.0000
  Fe  Fe29      1.0  0.20668  0.40157  0.74319  1.0000
  S   S62       1.0  0.17461  0.35896  0.73922  1.0000
  Fe  Fe30      1.0  0.25902  0.44336  0.71380  1.0000
  S   S63       1.0  0.29380  0.44934  0.68172  1.0000
  S   S64       1.0  0.20392  0.43124  0.77809  1.0000
  H   H244      1.0  0.41395  0.34270  0.64257  1.0000
  S   S65       1.0  0.10986  0.27821  0.85888  1.0000
  C   C206      1.0  0.44131  0.43131  0.90297  1.0000
  Fe  Fe31      1.0  0.44501  0.25875  0.64526  1.0000
  S   S66       1.0  0.41624  0.26900  0.66730  1.0000
  C   C207      1.0  0.19677  0.47295  0.50387  1.0000
  Fe  Fe32      1.0  0.44240  0.28329  0.71690  1.0000
  S   S67       1.0  0.45306  0.32452  0.73526  1.0000
  H   H245      1.0  0.47636  0.37789  0.75831  1.0000
  H   H246      1.0  0.13213  0.24382  0.95318  1.0000
  C   C208      1.0  0.43474  0.39853  0.94610  1.0000
  C   C209      1.0  0.28855  0.47102  0.87448  1.0000
  C   C210      1.0  0.20705  0.25267  0.98392  1.0000
  H   H247      1.0  0.31319  0.47683  0.75196  1.0000
  C   C211      1.0  0.33631  0.46354  0.82887  1.0000
  H   H248      1.0  0.44990  0.28377  0.51413  1.0000
  C   C212      1.0  0.09157  0.39830  0.68908  1.0000
  C   C213      1.0  0.44543  0.41044  0.91344  1.0000
  H   H249      1.0  0.45480  0.38264  0.83916  1.0000
  C   C214      1.0  0.11326  0.41134  0.71343  1.0000
  N   N15       1.0  0.12697  0.39840  0.73022  1.0000
  H   H250      1.0  0.33920  0.45880  0.64467  1.0000
  C   C215      1.0  0.15006  0.45609  0.62606  1.0000
  C   C216      1.0  0.16839  0.45876  0.65328  1.0000
  H   H251      1.0  0.14185  0.43924  0.60835  1.0000
  H   H252      1.0  0.17472  0.44442  0.65566  1.0000
  C   C217      1.0  0.15705  0.33674  0.77303  1.0000
  C   C218      1.0  0.13952  0.31093  0.76295  1.0000
  C   C219      1.0  0.12500  0.29273  0.78864  1.0000
  C   C220      1.0  0.12761  0.30015  0.82490  1.0000
  C   C221      1.0  0.14504  0.32596  0.83491  1.0000
  C   C222      1.0  0.15965  0.34411  0.80928  1.0000
  H   H253      1.0  0.13741  0.30492  0.73507  1.0000
  H   H254      1.0  0.11194  0.27296  0.78047  1.0000
  H   H255      1.0  0.14729  0.33203  0.86280  1.0000
  H   H256      1.0  0.17297  0.36380  0.81764  1.0000
  C   C223      1.0  0.42797  0.44013  0.92426  1.0000
  H   H257      1.0  0.14641  0.42574  0.77456  1.0000
  N   N16       1.0  0.45996  0.40171  0.89062  1.0000
  C   C224      1.0  0.31844  0.48051  0.92647  1.0000
  S   S68       1.0  0.47218  0.27491  0.69354  1.0000
  S   S69       1.0  0.11794  0.46988  0.58811  1.0000
  C   C225      1.0  0.47579  0.35388  0.64328  1.0000
  C   C226      1.0  0.47511  0.38334  0.57807  1.0000
  C   C227      1.0  0.47141  0.29577  0.56484  1.0000
  H   H258      1.0  0.30363  0.42587  0.78717  1.0000
  C   C228      1.0  0.06665  0.26356  0.70512  1.0000
  H   H259      1.0  0.08323  0.37799  0.68259  1.0000
  S   S70       1.0  0.45104  0.26619  0.58529  1.0000
  C   C229      1.0  0.43279  0.34542  0.65384  1.0000
  C   C230      1.0  0.22356  0.47905  0.57144  1.0000
  H   H260      1.0  0.06431  0.40152  0.65217  1.0000
  N   N17       1.0  0.33437  0.46532  0.78932  1.0000
  C   C231      1.0  0.19291  0.26149  0.96295  1.0000
  H   H261      1.0  0.22402  0.46574  0.55192  1.0000
  H   H262      1.0  0.40821  0.43557  0.97312  1.0000
  H   H263      1.0  0.28298  0.46776  0.98486  1.0000
  H   H264      1.0  0.45441  0.33176  0.57816  1.0000
  C   C232      1.0  0.35954  0.48117  0.77319  1.0000
  C   C233      1.0  0.46602  0.29923  0.52891  1.0000
  C   C234      1.0  0.16952  0.48485  0.53587  1.0000
  C   C235      1.0  0.45120  0.41282  0.59402  1.0000
  H   H265      1.0  0.24600  0.46961  0.60952  1.0000
  H   H266      1.0  0.34409  0.47294  0.71793  1.0000
  H   H267      1.0  0.11937  0.47192  0.70529  1.0000
  H   H268      1.0  0.44015  0.36065  0.67546  1.0000
  C   C236      1.0  0.15178  0.40729  0.71284  1.0000
  C   C237      1.0  0.42129  0.40744  0.96707  1.0000
  H   H269      1.0  0.37153  0.25158  0.55517  1.0000
  H   H270      1.0  0.31713  0.45088  0.83996  1.0000
  C   C238      1.0  0.45763  0.37536  0.60627  1.0000
  C   C239      1.0  0.44457  0.38965  0.85702  1.0000
  H   H271      1.0  0.08216  0.44839  0.66270  1.0000
  H   H272      1.0  0.47763  0.39047  0.93351  1.0000
  H   H273      1.0  0.98227  0.44138  0.97926  1.0000
  C   C240      1.0  0.46606  0.38255  0.90792  1.0000
  C   C241      1.0  0.11128  0.45123  0.70140  1.0000
  C   C242      1.0  0.31729  0.47674  0.78124  1.0000
  H   H274      1.0  0.15590  0.27722  0.95686  1.0000
  S   S71       1.0  0.26014  0.44837  0.85040  1.0000
  H   H275      1.0  0.28446  0.44391  0.91536  1.0000
  H   H276      1.0  0.13119  0.26663  0.92250  1.0000
  C   C243      1.0  0.31459  0.47557  0.65505  1.0000
  H   H277      1.0  0.21666  0.47809  0.49616  1.0000
  C   C244      1.0  0.14434  0.26105  0.93752  1.0000
  H   H278      1.0  0.15822  0.48263  0.51035  1.0000
  C   C245      1.0  0.36110  0.48299  0.73541  1.0000
  H   H279      1.0  0.11426  0.40084  0.78272  1.0000
  C   C246      1.0  0.13227  0.40509  0.76915  1.0000
  C   C247      1.0  0.99625  0.43607  0.99041  1.0000
  H   H280      1.0  0.16659  0.28699  0.87861  1.0000
  C   C248      1.0  0.29602  0.46335  0.90632  1.0000
  S   S72       1.0  0.25909  0.47494  0.74784  1.0000
  H   H281      1.0  0.43269  0.38673  0.63515  1.0000
  H   H282      1.0  0.16451  0.42839  0.71697  1.0000
  H   H283      1.0  0.09314  0.36196  0.73782  1.0000
  C   C249      1.0  0.41797  0.42821  0.95622  1.0000
  H   H284      1.0  0.11051  0.36309  0.69809  1.0000
  C   C250      1.0  0.38028  0.24049  0.54315  1.0000
  H   H285      1.0  0.14100  0.39414  0.78269  1.0000
  C   C251      1.0  0.08040  0.41158  0.67137  1.0000
  S   S73       1.0  0.42093  0.24467  0.74286  1.0000
  H   H286      1.0  0.31639  0.43758  0.74504  1.0000
  H   H287      1.0  0.42567  0.37280  0.86271  1.0000
  H   H288      1.0  0.43736  0.31098  0.61299  1.0000
  N   N18       1.0  0.45181  0.35149  0.62563  1.0000
  C   C252      1.0  0.17783  0.27973  0.89505  1.0000
  H   H289      1.0  0.44050  0.40338  0.84146  1.0000
  C   C253      1.0  0.12285  0.43828  0.71883  1.0000
  C   C254      1.0  0.17829  0.47985  0.67745  1.0000
  H   H290      1.0  0.47209  0.33622  0.65821  1.0000
  H   H291      1.0  0.14014  0.44988  0.73528  1.0000
  H   H292      1.0  0.44836  0.36422  0.91298  1.0000
  H   H293      1.0  0.19067  0.27660  0.87688  1.0000
  C   C255      1.0  0.11255  0.36979  0.72651  1.0000
  C   C256      1.0  0.46806  0.41972  0.56606  1.0000
  H   H294      1.0  0.12294  0.36072  0.74087  1.0000
  N   N19       1.0  0.16059  0.25562  0.91315  1.0000
  H   H295      1.0  0.33492  0.42989  0.77712  1.0000
  C   C257      1.0  0.09030  0.43799  0.67741  1.0000
  C   C258      1.0  0.32192  0.43858  0.77400  1.0000
  H   H296      1.0  0.42873  0.32717  0.66736  1.0000
  H   H297      1.0  0.19031  0.29558  0.91440  1.0000
  H   H298      1.0  0.42273  0.32640  0.58655  1.0000
  C   C259      1.0  0.44109  0.32922  0.59979  1.0000
  C   C260      1.0  0.44598  0.39099  0.61398  1.0000
  H   H299      1.0  0.13164  0.24439  0.87015  1.0000
  H   H300      1.0  0.05539  0.27422  0.70347  1.0000
  H   H301      1.0  0.44881  0.44136  0.87856  1.0000
  H   H302      1.0  0.32401  0.47430  0.95083  1.0000
  H   H303      1.0  0.16262  0.39768  0.72371  1.0000
  H   H304      1.0  0.14879  0.40314  0.68344  1.0000
  C   C261      1.0  0.14221  0.47500  0.62162  1.0000
  C   C262      1.0  0.33591  0.47508  0.64002  1.0000
  S   S74       1.0  0.19950  0.48294  0.71451  1.0000
  H   H305      1.0  0.18748  0.45322  0.51488  1.0000
  H   H306      1.0  0.07771  0.26733  0.68046  1.0000
  C   C263      1.0  0.47491  0.34179  0.77181  1.0000
  C   C264      1.0  0.17621  0.24631  0.93390  1.0000
  C   C265      1.0  0.99381  0.41199  0.98197  1.0000
  H   H307      1.0  0.29830  0.46573  0.79361  1.0000
  H   H308      1.0  0.40158  0.25337  0.54517  1.0000
  H   H309      1.0  0.08137  0.27243  0.72763  1.0000
  H   H310      1.0  0.42595  0.45676  0.91652  1.0000
  H   H311      1.0  0.47179  0.43645  0.55038  1.0000
  H   H312      1.0  0.05523  0.24179  0.76789  1.0000
  H   H313      1.0  0.00968  0.38632  0.98974  1.0000
  H   H314      1.0  0.15977  0.46622  0.54983  1.0000
  H   H315      1.0  0.47774  0.30931  0.79252  1.0000
  H   H316      1.0  0.02728  0.24275  0.74937  1.0000
  S   S75       1.0  0.08280  0.48700  0.51294  1.0000
  H   H317      1.0  0.43671  0.38249  0.95629  1.0000
  H   H318      1.0  0.25110  0.48236  0.96368  1.0000
  H   H319      1.0  0.34350  0.48268  0.84270  1.0000
  C   C266      1.0  0.23642  0.48112  0.60452  1.0000
  H   H320      1.0  0.44201  0.42442  0.60001  1.0000
  H   H321      1.0  0.47768  0.37697  0.89058  1.0000
  H   H322      1.0  0.14248  0.70001  0.07625  1.0000
  S   S76       1.0  0.41448  0.53998  0.01774  1.0000
  H   H323      1.0  0.11518  0.70262  0.05680  1.0000
  Fe  Fe33      1.0  0.37309  0.52001  0.99585  1.0000
  S   S77       1.0  0.35820  0.52840  0.04582  1.0000
  H   H324      1.0  0.06021  0.50003  0.02548  1.0000
  Fe  Fe34      1.0  0.39867  0.54473  0.06995  1.0000
  S   S78       1.0  0.40840  0.57952  0.10744  1.0000
  S   S79       1.0  0.39194  0.50630  0.09078  1.0000
  C   C267      1.0  0.42843  0.64383  0.06814  1.0000
  H   H325      1.0  0.13184  0.65148  0.04227  1.0000
  Fe  Fe35      1.0  0.10858  0.60445  0.07572  1.0000
  S   S80       1.0  0.13990  0.60620  0.04170  1.0000
  S   S81       1.0  0.11350  0.63436  0.11845  1.0000
  Fe  Fe36      1.0  0.06641  0.55448  0.03666  1.0000
  H   H326      1.0  0.18920  0.54529  0.24344  1.0000
  S   S82       1.0  0.02428  0.52307  0.03997  1.0000
  Fe  Fe37      1.0  0.12132  0.56311  0.05025  1.0000
  S   S83       1.0  0.14488  0.54279  0.06508  1.0000
  H   H327      1.0  0.12133  0.56332  0.24726  1.0000
  S   S84       1.0  0.09178  0.56216  0.08686  1.0000
  H   H328      1.0  0.46155  0.60128  0.22298  1.0000
  S   S85       1.0  0.43254  0.60274  0.43905  1.0000
  H   H329      1.0  0.44981  0.50529  0.45236  1.0000
  C   C268      1.0  0.45559  0.62817  0.41365  1.0000
  Fe  Fe38      1.0  0.11194  0.52352  0.48871  1.0000
  C   C269      1.0  0.15891  0.73393  0.01814  1.0000
  C   C270      1.0  0.16944  0.52901  0.24644  1.0000
  H   H330      1.0  0.43061  0.56489  0.37398  1.0000
  C   C271      1.0  0.29304  0.49115  0.17028  1.0000
  C   C272      1.0  0.12485  0.51534  0.25534  1.0000
  H   H331      1.0  0.40896  0.56403  0.31567  1.0000
  C   C273      1.0  0.11933  0.51451  0.12388  1.0000
  C   C274      1.0  0.14042  0.52241  0.10208  1.0000
  H   H332      1.0  0.16070  0.54263  0.30850  1.0000
  H   H333      1.0  0.41655  0.62441  0.05717  1.0000
  H   H334      1.0  0.10569  0.52159  0.11918  1.0000
  H   H335      1.0  0.11774  0.50425  0.35636  1.0000
  H   H336      1.0  0.14334  0.55888  0.29454  1.0000
  C   C275      1.0  0.47071  0.67993  0.08237  1.0000
  S   S86       1.0  0.09527  0.55329  0.00018  1.0000
  H   H337      1.0  0.17475  0.51951  0.09272  1.0000
  C   C276      1.0  0.28960  0.53652  0.11086  1.0000
  H   H338      1.0  0.17058  0.51772  0.26957  1.0000
  H   H339      1.0  0.09241  0.65316  0.01543  1.0000
  C   C277      1.0  0.46182  0.60973  0.11653  1.0000
  C   C278      1.0  0.18895  0.70640  0.15558  1.0000
  C   C279      1.0  0.18924  0.68917  0.12960  1.0000
  C   C280      1.0  0.16637  0.66700  0.11803  1.0000
  C   C281      1.0  0.14287  0.66191  0.13222  1.0000
  C   C282      1.0  0.14251  0.67932  0.15781  1.0000
  C   C283      1.0  0.16542  0.70146  0.16949  1.0000
  H   H340      1.0  0.20737  0.69276  0.11877  1.0000
  H   H341      1.0  0.16699  0.65372  0.09852  1.0000
  H   H342      1.0  0.12441  0.67557  0.16890  1.0000
  C   C284      1.0  0.13604  0.50769  0.40859  1.0000
  C   C285      1.0  0.15828  0.51343  0.10926  1.0000
  H   H343      1.0  0.46387  0.64479  0.05491  1.0000
  H   H344      1.0  0.11155  0.67242  0.07139  1.0000
  C   C286      1.0  0.47533  0.64432  0.26063  1.0000
  C   C287      1.0  0.43746  0.60524  0.12648  1.0000
  H   H345      1.0  0.17049  0.57497  0.13807  1.0000
  H   H346      1.0  0.06842  0.50051  0.44681  1.0000
  C   C288      1.0  0.43585  0.62240  0.15138  1.0000
  H   H347      1.0  0.45651  0.65714  0.18436  1.0000
  H   H348      1.0  0.15501  0.73745  0.04504  1.0000
  H   H349      1.0  0.41708  0.61917  0.15908  1.0000
  H   H350      1.0  0.10979  0.52057  0.26228  1.0000
  H   H351      1.0  0.47651  0.70369  0.16757  1.0000
  H   H352      1.0  0.31978  0.54862  0.03288  1.0000
  H   H353      1.0  0.98647  0.52852  0.43439  1.0000
  C   C289      1.0  0.45973  0.69384  0.09927  1.0000
  H   H354      1.0  0.44768  0.73343  0.10765  1.0000
  H   H355      1.0  0.30267  0.50712  0.18939  1.0000
  H   H356      1.0  0.32747  0.50163  0.14082  1.0000
  S   S87       1.0  0.08029  0.59675  0.02944  1.0000
  H   H357      1.0  0.32449  0.56756  0.09216  1.0000
  H   H358      1.0  0.45748  0.66391  0.34070  1.0000
  H   H359      1.0  0.17447  0.54904  0.18522  1.0000
  C   C290      1.0  0.98172  0.51283  0.45250  1.0000
  H   H360      1.0  0.14280  0.59548  0.14415  1.0000
  H   H361      1.0  0.42654  0.62794  0.37682  1.0000
  H   H362      1.0  0.42269  0.69057  0.11311  1.0000
  H   H363      1.0  0.03185  0.50649  0.36440  1.0000
  H   H364      1.0  0.25478  0.50250  0.12284  1.0000
  H   H365      1.0  0.46800  0.67492  0.45564  1.0000
  H   H366      1.0  0.45461  0.63450  0.25173  1.0000
  C   C291      1.0  0.45822  0.64402  0.16571  1.0000
  H   H367      1.0  0.29210  0.54507  0.13746  1.0000
  C   C292      1.0  0.13195  0.50130  0.37167  1.0000
  H   H368      1.0  0.39627  0.64748  0.08623  1.0000
  N   N20       1.0  0.15041  0.53830  0.25175  1.0000
  C   C293      1.0  0.01322  0.49235  0.37314  1.0000
  H   H369      1.0  0.16293  0.67940  0.04009  1.0000
  N   N21       1.0  0.28035  0.50041  0.00639  1.0000
  C   C294      1.0  0.14881  0.55405  0.22203  1.0000
  C   C295      1.0  0.13271  0.56575  0.22420  1.0000
  C   C296      1.0  0.16241  0.55779  0.19004  1.0000
  H   H370      1.0  0.15807  0.50905  0.45625  1.0000
  C   C297      1.0  0.05093  0.49980  0.43393  1.0000
  H   H371      1.0  0.17655  0.57174  0.28370  1.0000
  H   H372      1.0  0.11823  0.50367  0.22987  1.0000
  H   H373      1.0  0.12542  0.50238  0.27645  1.0000
  H   H374      1.0  0.43350  0.59139  0.26734  1.0000
  H   H375      1.0  0.46338  0.59677  0.09736  1.0000
  H   H376      1.0  0.45113  0.71204  0.16174  1.0000
  H   H377      1.0  0.09884  0.49054  0.16747  1.0000
  C   C298      1.0  0.26857  0.51247  0.10256  1.0000
  C   C299      1.0  0.00150  0.51243  0.47456  1.0000
  C   C300      1.0  0.47142  0.71794  0.15554  1.0000
  C   C301      1.0  0.15804  0.55358  0.28599  1.0000
  C   C302      1.0  0.30481  0.53790  0.05117  1.0000
  C   C303      1.0  0.44386  0.59208  0.29211  1.0000
  C   C304      1.0  0.16028  0.57270  0.16250  1.0000
  C   C305      1.0  0.07180  0.49033  0.03284  1.0000
  Fe  Fe39      1.0  0.11083  0.59639  0.99540  1.0000
  C   C306      1.0  0.46772  0.73826  0.10147  1.0000
  C   C307      1.0  0.15495  0.49650  0.13751  1.0000
  H   H378      1.0  0.16404  0.51580  0.22254  1.0000
  C   C308      1.0  0.41707  0.65682  0.08472  1.0000
  C   C309      1.0  0.28359  0.51329  0.04185  1.0000
  H   H379      1.0  0.11835  0.58940  0.19857  1.0000
  C   C310      1.0  0.14453  0.58410  0.16571  1.0000
  H   H380      1.0  0.20009  0.51709  0.48600  1.0000
  C   C311      1.0  0.43240  0.68146  0.10005  1.0000
  C   C312      1.0  0.13073  0.58060  0.19646  1.0000
  C   C313      1.0  0.44696  0.63692  0.38388  1.0000
  C   C314      1.0  0.46450  0.65723  0.36316  1.0000
  H   H381      1.0  0.02103  0.52801  0.47367  1.0000
  Fe  Fe40      1.0  0.40553  0.50047  0.03692  1.0000
  H   H382      1.0  0.99362  0.50732  0.33878  1.0000
  C   C315      1.0  0.00027  0.50572  0.00548  1.0000
  C   C316      1.0  0.45515  0.65538  0.06689  1.0000
  C   C317      1.0  0.99148  0.49298  0.35822  1.0000
  S   S88       1.0  0.11865  0.52167  0.42880  1.0000
  C   C318      1.0  0.12493  0.69050  0.05802  1.0000
  C   C319      1.0  0.11561  0.49702  0.15147  1.0000
  C   C320      1.0  0.44176  0.57660  0.35233  1.0000
  H   H383      1.0  0.05784  0.51621  0.41550  1.0000
  S   S89       1.0  0.21851  0.73375  0.16927  1.0000
  H   H384      1.0  0.16488  0.71457  0.18941  1.0000
  H   H385      1.0  0.08871  0.50467  0.04955  1.0000
  C   C321      1.0  0.30776  0.54914  0.08529  1.0000
  H   H386      1.0  0.04060  0.50348  0.45547  1.0000
  C   C322      1.0  0.42961  0.57630  0.31957  1.0000
  C   C323      1.0  0.47082  0.60883  0.29681  1.0000
  N   N22       1.0  0.47551  0.71968  0.11655  1.0000
  N   N23       1.0  0.13112  0.68510  0.02176  1.0000
  C   C324      1.0  0.14360  0.66863  0.02612  1.0000
  C   C325      1.0  0.46821  0.59255  0.35769  1.0000
  C   C326      1.0  0.26582  0.50073  0.06890  1.0000
  C   C327      1.0  0.15454  0.50387  0.42804  1.0000
  C   C328      1.0  0.46005  0.49489  0.46006  1.0000
  H   H387      1.0  0.43165  0.64413  0.48259  1.0000
  H   H388      1.0  0.16879  0.48967  0.14249  1.0000
  C   C329      1.0  0.14607  0.49102  0.35442  1.0000
  H   H389      1.0  0.47752  0.65621  0.28514  1.0000
  H   H390      1.0  0.09708  0.68245  0.99473  1.0000
  Fe  Fe41      1.0  0.35218  0.49008  0.06433  1.0000
  C   C330      1.0  0.16908  0.49421  0.41059  1.0000
  C   C331      1.0  0.14830  0.70864  0.00256  1.0000
  C   C332      1.0  0.10633  0.67025  0.00079  1.0000
  H   H391      1.0  0.14613  0.66109  0.00001  1.0000
  H   H392      1.0  0.18389  0.49203  0.42545  1.0000
  H   H393      1.0  0.47739  0.59307  0.38358  1.0000
  C   C333      1.0  0.25346  0.49022  0.99160  1.0000
  H   H394      1.0  0.24771  0.50564  0.99118  1.0000
  S   S90       1.0  0.36102  0.52835  0.94087  1.0000
  C   C334      1.0  0.40711  0.51158  0.74047  1.0000
  S   S91       1.0  0.13900  0.53514  0.53741  1.0000
  H   H395      1.0  0.12974  0.57974  0.89735  1.0000
  Fe  Fe42      1.0  0.06439  0.51021  0.53272  1.0000
  C   C335      1.0  0.44344  0.58620  0.68159  1.0000
  C   C336      1.0  0.15313  0.49679  0.64456  1.0000
  H   H396      1.0  0.24648  0.49908  0.65721  1.0000
  Fe  Fe43      1.0  0.11716  0.55499  0.55843  1.0000
  S   S92       1.0  0.14357  0.59343  0.58856  1.0000
  S   S93       1.0  0.08764  0.51977  0.58575  1.0000
  S   S94       1.0  0.11222  0.61643  0.94256  1.0000
  Fe  Fe44      1.0  0.18680  0.72433  0.79739  1.0000
  S   S95       1.0  0.14807  0.71840  0.77673  1.0000
  S   S96       1.0  0.19383  0.70732  0.84911  1.0000
  Fe  Fe45      1.0  0.15925  0.70955  0.72323  1.0000
  S   S97       1.0  0.13056  0.67587  0.68631  1.0000
  S   S98       1.0  0.19670  0.71323  0.74470  1.0000
  Fe  Fe46      1.0  0.45280  0.54831  0.52863  1.0000
  H   H397      1.0  0.10873  0.66238  0.97488  1.0000
  H   H398      1.0  0.42031  0.69398  0.58111  1.0000
  H   H399      1.0  0.31833  0.52377  0.98614  1.0000
  S   S99       1.0  0.42607  0.59659  0.54269  1.0000
  H   H400      1.0  0.16747  0.49941  0.55245  1.0000
  Fe  Fe47      1.0  0.40696  0.55434  0.55597  1.0000
  S   S100      1.0  0.36842  0.54172  0.58323  1.0000
  S   S101      1.0  0.47548  0.59058  0.51556  1.0000
  S   S102      1.0  0.44301  0.55750  0.58322  1.0000
  C   C337      1.0  0.40169  0.66327  0.54151  1.0000
  C   C338      1.0  0.13551  0.64206  0.91770  1.0000
  C   C339      1.0  0.16207  0.65310  0.92558  1.0000
  C   C340      1.0  0.17963  0.67308  0.90440  1.0000
  C   C341      1.0  0.17092  0.68237  0.87531  1.0000
  C   C342      1.0  0.14438  0.67172  0.86802  1.0000
  C   C343      1.0  0.12684  0.65156  0.88885  1.0000
  H   H401      1.0  0.16909  0.64601  0.94757  1.0000
  H   H402      1.0  0.20014  0.68128  0.91041  1.0000
  H   H403      1.0  0.13741  0.67919  0.84647  1.0000
  H   H404      1.0  0.10635  0.64329  0.88263  1.0000
  H   H405      1.0  0.41259  0.57262  0.62409  1.0000
  C   C344      1.0  0.19685  0.71877  0.64112  1.0000
  C   C345      1.0  0.42305  0.68320  0.55958  1.0000
  C   C346      1.0  0.43003  0.65537  0.50438  1.0000
  C   C347      1.0  0.30364  0.49620  0.86310  1.0000
  C   C348      1.0  0.45227  0.67520  0.52268  1.0000
  C   C349      1.0  0.13869  0.61472  0.61755  1.0000
  C   C350      1.0  0.15955  0.63251  0.63973  1.0000
  C   C351      1.0  0.15723  0.65077  0.66175  1.0000
  C   C352      1.0  0.13416  0.65207  0.66107  1.0000
  C   C353      1.0  0.11318  0.63405  0.63932  1.0000
  C   C354      1.0  0.11533  0.61538  0.61789  1.0000
  H   H406      1.0  0.17769  0.63213  0.63983  1.0000
  H   H407      1.0  0.17343  0.66395  0.67889  1.0000
  H   H408      1.0  0.09516  0.63469  0.63868  1.0000
  H   H409      1.0  0.09913  0.60195  0.60093  1.0000
  S   S103      1.0  0.09274  0.54668  0.50685  1.0000
  C   C355      1.0  0.99580  0.49233  0.49830  1.0000
  C   C356      1.0  0.21063  0.49377  0.56446  1.0000
  C   C357      1.0  0.34850  0.51614  0.61140  1.0000
  H   H410      1.0  0.20747  0.53271  0.52907  1.0000
  C   C358      1.0  0.40908  0.64622  0.70533  1.0000
  H   H411      1.0  0.38361  0.49611  0.82294  1.0000
  C   C359      1.0  0.29769  0.51783  0.97937  1.0000
  H   H412      1.0  0.44454  0.68240  0.63287  1.0000
  H   H413      1.0  0.46741  0.64146  0.49565  1.0000
  H   H414      1.0  0.14732  0.51152  0.64149  1.0000
  C   C360      1.0  0.33345  0.50574  0.91529  1.0000
  C   C361      1.0  0.98020  0.54026  0.53160  1.0000
  H   H415      1.0  0.46610  0.63120  0.71040  1.0000
  H   H416      1.0  0.29785  0.50251  0.83903  1.0000
  H   H417      1.0  0.14773  0.68813  0.95352  1.0000
  C   C362      1.0  0.40536  0.62269  0.69091  1.0000
  N   N24       1.0  0.12944  0.62777  0.77496  1.0000
  C   C363      1.0  0.15439  0.65085  0.76830  1.0000
  C   C364      1.0  0.12294  0.60949  0.74406  1.0000
  C   C365      1.0  0.10961  0.63639  0.77624  1.0000
  C   C366      1.0  0.13004  0.61474  0.80842  1.0000
  C   C367      1.0  0.10713  0.59368  0.82026  1.0000
  C   C368      1.0  0.15306  0.62201  0.82972  1.0000
  C   C369      1.0  0.10712  0.58121  0.85193  1.0000
  C   C370      1.0  0.15287  0.60910  0.86102  1.0000
  C   C371      1.0  0.12995  0.58893  0.87227  1.0000
  H   H418      1.0  0.17006  0.64582  0.76447  1.0000
  H   H419      1.0  0.15313  0.66048  0.74344  1.0000
  H   H420      1.0  0.16038  0.66548  0.79065  1.0000
  H   H421      1.0  0.13751  0.60272  0.74189  1.0000
  H   H422      1.0  0.12224  0.61857  0.71833  1.0000
  H   H423      1.0  0.10378  0.59217  0.74612  1.0000
  H   H424      1.0  0.11269  0.64863  0.80060  1.0000
  H   H425      1.0  0.11008  0.64801  0.75259  1.0000
  H   H426      1.0  0.08968  0.62008  0.77618  1.0000
  H   H427      1.0  0.08897  0.58685  0.80531  1.0000
  H   H428      1.0  0.17140  0.63802  0.82341  1.0000
  C   C372      1.0  0.00584  0.50788  0.96920  1.0000
  H   H429      1.0  0.17049  0.61543  0.87738  1.0000
  H   H430      1.0  0.15065  0.71525  0.62385  1.0000
  H   H431      1.0  0.43277  0.60674  0.62437  1.0000
  H   H432      1.0  0.08928  0.56576  0.86118  1.0000
  C   C373      1.0  0.17078  0.49898  0.67262  1.0000
  H   H433      1.0  0.18092  0.70393  0.65620  1.0000
  C   C374      1.0  0.99251  0.53550  0.56073  1.0000
  N   N25       1.0  0.42109  0.59106  0.67619  1.0000
  H   H434      1.0  0.44881  0.64758  0.60144  1.0000
  H   H435      1.0  0.32610  0.49702  0.79162  1.0000
  H   H436      1.0  0.42385  0.52149  0.79409  1.0000
  H   H437      1.0  0.29362  0.50826  0.95236  1.0000
  C   C375      1.0  0.42538  0.61584  0.69243  1.0000
  H   H438      1.0  0.16748  0.69810  0.55897  1.0000
  N   N26       1.0  0.18769  0.72244  0.60533  1.0000
  C   C376      1.0  0.98657  0.49245  0.94306  1.0000
  S   S104      1.0  0.47021  0.52058  0.52710  1.0000
  H   H439      1.0  0.40067  0.56933  0.72123  1.0000
  C   C377      1.0  0.39838  0.56920  0.69153  1.0000
  C   C378      1.0  0.32598  0.51347  0.88347  1.0000
  C   C379      1.0  0.17525  0.69696  0.58605  1.0000
  C   C380      1.0  0.44802  0.68920  0.55042  1.0000
  C   C381      1.0  0.32733  0.51674  0.62673  1.0000
  Fe  Fe48      1.0  0.46222  0.59915  0.56755  1.0000
  C   C382      1.0  0.31056  0.49671  0.64855  1.0000
  H   H440      1.0  0.33736  0.53303  0.87479  1.0000
  H   H441      1.0  0.17849  0.51553  0.69090  1.0000
  H   H442      1.0  0.45322  0.51394  0.97079  1.0000
  C   C383      1.0  0.21181  0.51081  0.59236  1.0000
  H   H443      1.0  0.17552  0.72632  0.92067  1.0000
  H   H444      1.0  0.39531  0.55026  0.68067  1.0000
  H   H445      1.0  0.18882  0.68896  0.58360  1.0000
  Fe  Fe49      1.0  0.10867  0.49995  0.56298  1.0000
  H   H446      1.0  0.43950  0.56734  0.66931  1.0000
  C   C384      1.0  0.46413  0.66072  0.61978  1.0000
  H   H447      1.0  0.38508  0.49862  0.69036  1.0000
  H   H448      1.0  0.02507  0.52121  0.96130  1.0000
  H   H449      1.0  0.21226  0.71313  0.63918  1.0000
  H   H450      1.0  0.32369  0.53273  0.62136  1.0000
  C   C385      1.0  0.38288  0.49576  0.79400  1.0000
  H   H451      1.0  0.38239  0.65857  0.54889  1.0000
  H   H452      1.0  0.39873  0.59315  0.63020  1.0000
  C   C386      1.0  0.23696  0.49788  0.63135  1.0000
  H   H453      1.0  0.46362  0.70466  0.56590  1.0000
  H   H454      1.0  0.38681  0.61011  0.67790  1.0000
  H   H455      1.0  0.01337  0.54409  0.56237  1.0000
  S   S105      1.0  0.41542  0.54286  0.50211  1.0000
  H   H456      1.0  0.39371  0.65129  0.70335  1.0000
  H   H457      1.0  0.98770  0.51472  0.60910  1.0000
  C   C387      1.0  0.47161  0.49882  0.49454  1.0000
  C   C388      1.0  0.35285  0.49527  0.61856  1.0000
  H   H458      1.0  0.47144  0.67153  0.73526  1.0000
  H   H459      1.0  0.20490  0.73651  0.65818  1.0000
  H   H460      1.0  0.38010  0.56959  0.68471  1.0000
  H   H461      1.0  0.44840  0.58600  0.71054  1.0000
  H   H462      1.0  0.43592  0.68216  0.73186  1.0000
  C   C389      1.0  0.41605  0.59100  0.63712  1.0000
  H   H463      1.0  0.42530  0.52294  0.72796  1.0000
  H   H464      1.0  0.15858  0.68234  0.60059  1.0000
  H   H465      1.0  0.20967  0.71943  0.54076  1.0000
  H   H466      1.0  0.29433  0.49746  0.65986  1.0000
  S   S106      1.0  0.47687  0.72265  0.68304  1.0000
  H   H467      1.0  0.16038  0.73369  0.58375  1.0000
  H   H468      1.0  0.20232  0.52249  0.58926  1.0000
  C   C390      1.0  0.20915  0.51772  0.51291  1.0000
  C   C391      1.0  0.44938  0.63410  0.70908  1.0000
  H   H469      1.0  0.36889  0.49437  0.60682  1.0000
  C   C392      1.0  0.38454  0.49787  0.71937  1.0000
  C   C393      1.0  0.15501  0.70665  0.96704  1.0000
  H   H470      1.0  0.29550  0.53542  0.97650  1.0000
  C   C394      1.0  0.46191  0.68080  0.63722  1.0000
  H   H471      1.0  0.22506  0.52558  0.64639  1.0000
  S   S107      1.0  0.01981  0.49072  0.52742  1.0000
  C   C395      1.0  0.40518  0.64942  0.51391  1.0000
  C   C396      1.0  0.40626  0.51064  0.77768  1.0000
  C   C397      1.0  0.16753  0.73027  0.61001  1.0000
  C   C398      1.0  0.22490  0.51286  0.62515  1.0000
  H   H472      1.0  0.47694  0.64911  0.54205  1.0000
  C   C399      1.0  0.45279  0.65747  0.72364  1.0000
  C   C400      1.0  0.43276  0.66356  0.72164  1.0000
  H   H473      1.0  0.46079  0.60101  0.66839  1.0000
  H   H474      1.0  0.99121  0.49414  0.91512  1.0000
  H   H475      1.0  0.99157  0.55261  0.51063  1.0000
  C   C401      1.0  0.17096  0.72845  0.94802  1.0000
  C   C402      1.0  0.46241  0.50199  0.97420  1.0000
  H   H476      1.0  0.23006  0.52454  0.50947  1.0000
  H   H477      1.0  0.38858  0.63389  0.49979  1.0000
  N   N27       1.0  0.19683  0.49218  0.52982  1.0000
  Fe  Fe50      1.0  0.43788  0.58562  0.49156  1.0000
  C   C403      1.0  0.21859  0.73814  0.55415  1.0000
  Fe  Fe51      1.0  0.21912  0.80692  0.25111  1.0000
  S   S108      1.0  0.21579  0.76850  0.26660  1.0000
  S   S109      1.0  0.18592  0.81623  0.26038  1.0000
  Fe  Fe52      1.0  0.27054  0.82241  0.21351  1.0000
  S   S110      1.0  0.26997  0.78554  0.22775  1.0000
  S   S111      1.0  0.30401  0.85250  0.18272  1.0000
  Fe  Fe53      1.0  0.22785  0.76606  0.21065  1.0000
  Fe  Fe54      1.0  0.25830  0.79189  0.28171  1.0000
  S   S112      1.0  0.27716  0.78426  0.33099  1.0000
  S   S113      1.0  0.22891  0.80303  0.19392  1.0000
  S   S114      1.0  0.26120  0.83029  0.26889  1.0000
  Fe  Fe55      1.0  0.04130  0.84031  0.34181  1.0000
  S   S115      1.0  0.04713  0.81275  0.37764  1.0000
  S   S116      1.0  0.01882  0.81861  0.29058  1.0000
  Fe  Fe56      1.0  0.07380  0.88576  0.39477  1.0000
  S   S117      1.0  0.08102  0.86061  0.43264  1.0000
  S   S118      1.0  0.09018  0.92863  0.40849  1.0000
  Fe  Fe57      1.0  0.08876  0.84340  0.38311  1.0000
  S   S119      1.0  0.12595  0.83978  0.38368  1.0000
  Fe  Fe58      1.0  0.03868  0.83284  0.42267  1.0000
  S   S120      1.0  0.01220  0.81132  0.46791  1.0000
  S   S121      1.0  0.08340  0.87011  0.34550  1.0000
  S   S122      1.0  0.03092  0.85884  0.38691  1.0000
  S   S123      1.0  0.35311  0.87195  0.44296  1.0000
  H   H478      1.0  0.26707  0.82062  0.07380  1.0000
  S   S124      1.0  0.43470  0.82902  0.04030  1.0000
  H   H479      1.0  0.20053  0.75097  0.39045  1.0000
  Fe  Fe59      1.0  0.46264  0.90402  0.03618  1.0000
  H   H480      1.0  0.98506  0.85024  0.11962  1.0000
  C   C404      1.0  0.18774  0.89638  0.31298  1.0000
  Fe  Fe60      1.0  0.41697  0.85325  0.05964  1.0000
  S   S125      1.0  0.37843  0.82929  0.08641  1.0000
  C   C405      1.0  0.17076  0.90206  0.33125  1.0000
  S   S126      1.0  0.45339  0.88295  0.08898  1.0000
  H   H481      1.0  0.06510  0.86558  0.01394  1.0000
  H   H482      1.0  0.25866  0.74829  0.10874  1.0000
  H   H483      1.0  0.22286  0.78208  0.07678  1.0000
  H   H484      1.0  0.45377  0.79218  0.19650  1.0000
  H   H485      1.0  0.22002  0.75190  0.09308  1.0000
  C   C406      1.0  0.05618  0.86999  0.03593  1.0000
  C   C407      1.0  0.12034  0.93418  0.47046  1.0000
  C   C408      1.0  0.24934  0.78470  0.42283  1.0000
  H   H486      1.0  0.27060  0.81603  0.12081  1.0000
  C   C409      1.0  0.11084  0.94585  0.44612  1.0000
  H   H487      1.0  0.36502  0.79866  0.22645  1.0000
  H   H488      1.0  0.27661  0.85374  0.46412  1.0000
  H   H489      1.0  0.20023  0.81410  0.39977  1.0000
  C   C410      1.0  0.32567  0.84627  0.15771  1.0000
  C   C411      1.0  0.32372  0.82173  0.15571  1.0000
  C   C412      1.0  0.34014  0.81708  0.13393  1.0000
  C   C413      1.0  0.35915  0.83694  0.11445  1.0000
  C   C414      1.0  0.36163  0.86169  0.11723  1.0000
  C   C415      1.0  0.34488  0.86626  0.13862  1.0000
  H   H490      1.0  0.30934  0.80622  0.17052  1.0000
  H   H491      1.0  0.33827  0.79795  0.13229  1.0000
  H   H492      1.0  0.37613  0.87718  0.10241  1.0000
  H   H493      1.0  0.34666  0.88535  0.14000  1.0000
  C   C416      1.0  0.29898  0.80897  0.36120  1.0000
  C   C417      1.0  0.31161  0.80282  0.38900  1.0000
  C   C418      1.0  0.32838  0.82184  0.41430  1.0000
  C   C419      1.0  0.33271  0.84720  0.41179  1.0000
  C   C420      1.0  0.32051  0.85343  0.38351  1.0000
  C   C421      1.0  0.30370  0.83444  0.35837  1.0000
  H   H494      1.0  0.30815  0.78317  0.39130  1.0000
  H   H495      1.0  0.33779  0.81684  0.43581  1.0000
  H   H496      1.0  0.32385  0.87303  0.38129  1.0000
  H   H497      1.0  0.29425  0.83952  0.33710  1.0000
  C   C422      1.0  0.16960  0.82290  0.29517  1.0000
  C   C423      1.0  0.18057  0.83110  0.32982  1.0000
  C   C424      1.0  0.16692  0.83606  0.35637  1.0000
  C   C425      1.0  0.14222  0.83338  0.34869  1.0000
  C   C426      1.0  0.13149  0.82589  0.31381  1.0000
  C   C427      1.0  0.14508  0.82068  0.28734  1.0000
  H   H498      1.0  0.19981  0.83429  0.33591  1.0000
  H   H499      1.0  0.17567  0.84236  0.38300  1.0000
  H   H500      1.0  0.11258  0.82379  0.30725  1.0000
  H   H501      1.0  0.13641  0.81469  0.26060  1.0000
  C   C428      1.0  0.21413  0.91323  0.31552  1.0000
  H   H502      1.0  0.02973  0.81116  0.10828  1.0000
  H   H503      1.0  0.21424  0.80283  0.32737  1.0000
  C   C429      1.0  0.40705  0.97882  0.42402  1.0000
  H   H504      1.0  0.11471  0.91396  0.46719  1.0000
  H   H505      1.0  0.30478  0.79497  0.05483  1.0000
  H   H506      1.0  0.00007  0.85643  0.28204  1.0000
  H   H507      1.0  0.37256  0.97310  0.39235  1.0000
  H   H508      1.0  0.12931  0.93758  0.35737  1.0000
  H   H509      1.0  0.22440  0.76215  0.35648  1.0000
  H   H510      1.0  0.24423  0.94900  0.33807  1.0000
  C   C430      1.0  0.40446  0.93916  0.44570  1.0000
  H   H511      1.0  0.18443  0.97199  0.37760  1.0000
  H   H512      1.0  0.45795  0.82130  0.14646  1.0000
  C   C431      1.0  0.98328  0.81118  0.48043  1.0000
  C   C432      1.0  0.03205  0.88134  0.09077  1.0000
  H   H513      1.0  0.24358  0.76577  0.41144  1.0000
  H   H514      1.0  0.24579  0.80761  0.34058  1.0000
  H   H515      1.0  0.15835  0.90603  0.41525  1.0000
  H   H516      1.0  0.99807  0.79585  0.12527  1.0000
  H   H517      1.0  0.98996  0.79228  0.35405  1.0000
  C   C433      1.0  0.13499  0.98665  0.48045  1.0000
  H   H518      1.0  0.40740  0.88965  0.18963  1.0000
  C   C434      1.0  0.05871  0.89459  0.03928  1.0000
  C   C435      1.0  0.20681  0.94180  0.35471  1.0000
  C   C436      1.0  0.04126  0.85077  0.05951  1.0000
  H   H519      1.0  0.29459  0.81853  0.09147  1.0000
  H   H520      1.0  0.02304  0.88665  0.11151  1.0000
  H   H521      1.0  0.06952  0.90905  0.01997  1.0000
  C   C437      1.0  0.26920  0.76968  0.11243  1.0000
  H   H522      1.0  0.13176  0.91282  0.40980  1.0000
  N   N28       1.0  0.35188  0.83004  0.26936  1.0000
  C   C438      1.0  0.36667  0.84422  0.30244  1.0000
  C   C439      1.0  0.33133  0.83714  0.26140  1.0000
  C   C440      1.0  0.33898  0.80205  0.27688  1.0000
  C   C441      1.0  0.36933  0.83706  0.23907  1.0000
  C   C442      1.0  0.38214  0.86290  0.22752  1.0000
  C   C443      1.0  0.37403  0.81881  0.22010  1.0000
  C   C444      1.0  0.39838  0.86997  0.19867  1.0000
  C   C445      1.0  0.39040  0.82616  0.19135  1.0000
  C   C446      1.0  0.98598  0.83265  0.11098  1.0000
  H   H523      1.0  0.37523  0.86545  0.30002  1.0000
  H   H524      1.0  0.35419  0.83895  0.32599  1.0000
  H   H525      1.0  0.38274  0.83990  0.30887  1.0000
  H   H526      1.0  0.33882  0.85829  0.25985  1.0000
  H   H527      1.0  0.31656  0.83027  0.28210  1.0000
  H   H528      1.0  0.32133  0.82859  0.23514  1.0000
  H   H529      1.0  0.32675  0.79027  0.25339  1.0000
  H   H530      1.0  0.35319  0.79543  0.28458  1.0000
  H   H531      1.0  0.32591  0.79738  0.29962  1.0000
  H   H532      1.0  0.37934  0.87779  0.24031  1.0000
  N   N29       1.0  0.21821  0.79183  0.38127  1.0000
  H   H533      1.0  0.00157  0.80257  0.07875  1.0000
  H   H534      1.0  0.19329  0.75895  0.34689  1.0000
  C   C447      1.0  0.28778  0.78397  0.03750  1.0000
  H   H535      1.0  0.18035  0.87871  0.29684  1.0000
  H   H536      1.0  0.22718  0.90867  0.30125  1.0000
  H   H537      1.0  0.23516  0.82921  0.35687  1.0000
  C   C448      1.0  0.23846  0.80030  0.41047  1.0000
  Fe  Fe61      1.0  0.44655  0.85406  0.99211  1.0000
  S   S127      1.0  0.42513  0.87546  0.00836  1.0000
  C   C449      1.0  0.47010  0.79870  0.17960  1.0000
  C   C450      1.0  0.26259  0.77568  0.04975  1.0000
  C   C451      1.0  0.02345  0.84442  0.15025  1.0000
  C   C452      1.0  0.04675  0.90030  0.06672  1.0000
  C   C453      1.0  0.36589  0.94282  0.44387  1.0000
  H   H538      1.0  0.26698  0.77409  0.14073  1.0000
  C   C454      1.0  0.40007  0.96853  0.48667  1.0000
  H   H539      1.0  0.39326  0.81193  0.17648  1.0000
  H   H540      1.0  0.35723  0.92705  0.46344  1.0000
  H   H541      1.0  0.04393  0.84857  0.15255  1.0000
  C   C455      1.0  0.14580  0.90917  0.39520  1.0000
  H   H542      1.0  0.03947  0.83196  0.05439  1.0000
  Fe  Fe62      1.0  0.47116  0.85930  0.06795  1.0000
  H   H543      1.0  0.98883  0.78608  0.23129  1.0000
  C   C456      1.0  0.17352  0.95470  0.39391  1.0000
  H   H544      1.0  0.11094  0.98137  0.43285  1.0000
  H   H545      1.0  0.01256  0.82939  0.16993  1.0000
  C   C457      1.0  0.99063  0.84131  0.26169  1.0000
  N   N30       1.0  0.16121  0.93061  0.37138  1.0000
  H   H546      1.0  0.13220  0.91530  0.32795  1.0000
  C   C458      1.0  0.14357  0.93322  0.34447  1.0000
  C   C459      1.0  0.22365  0.93589  0.33630  1.0000
  H   H547      1.0  0.04865  0.91945  0.06903  1.0000
  C   C460      1.0  0.01053  0.81036  0.10595  1.0000
  C   C461      1.0  0.11821  0.97213  0.45140  1.0000
  N   N31       1.0  0.01253  0.83606  0.11316  1.0000
  C   C462      1.0  0.17974  0.92495  0.35275  1.0000
  C   C463      1.0  0.19560  0.79390  0.39346  1.0000
  H   H548      1.0  0.15045  0.88819  0.32844  1.0000
  H   H549      1.0  0.02274  0.86203  0.15935  1.0000
  H   H550      1.0  0.13421  0.89064  0.38029  1.0000
  H   H551      1.0  0.41454  0.85700  0.15762  1.0000
  H   H552      1.0  0.15888  0.95802  0.40775  1.0000
  C   C464      1.0  0.20875  0.76477  0.36844  1.0000
  H   H553      1.0  0.03521  0.90190  0.48493  1.0000
  H   H554      1.0  0.42550  0.94829  0.45144  1.0000
  H   H555      1.0  0.18665  0.95387  0.41537  1.0000
  H   H556      1.0  0.39561  0.92308  0.46460  1.0000
  C   C465      1.0  0.02867  0.85590  0.08776  1.0000
  C   C466      1.0  0.27342  0.81046  0.09340  1.0000
  C   C467      1.0  0.29164  0.77814  0.00267  1.0000
  C   C468      1.0  0.26911  0.79377  0.44956  1.0000
  C   C469      1.0  0.47237  0.81519  0.15114  1.0000
  C   C470      1.0  0.24153  0.76080  0.02511  1.0000
  H   H557      1.0  0.21548  0.95966  0.37024  1.0000
  C   C471      1.0  0.22873  0.80861  0.35024  1.0000
  C   C472      1.0  0.47290  0.96478  0.47789  1.0000
  C   C473      1.0  0.24869  0.82537  0.42647  1.0000
  H   H558      1.0  0.17964  0.78673  0.37244  1.0000
  H   H559      1.0  0.15447  0.94899  0.32579  1.0000
  N   N32       1.0  0.39438  0.95769  0.44945  1.0000
  C   C474      1.0  0.23171  0.77332  0.09486  1.0000
  H   H560      1.0  0.18785  0.78250  0.41787  1.0000
  H   H561      1.0  0.46354  0.94407  0.47391  1.0000
  H   H562      1.0  0.35676  0.95533  0.44741  1.0000
  H   H563      1.0  0.40050  0.93048  0.41812  1.0000
  C   C475      1.0  0.40252  0.85164  0.18065  1.0000
  H   H564      1.0  0.22989  0.77880  0.12278  1.0000
  H   H565      1.0  0.36021  0.93314  0.41689  1.0000
  H   H566      1.0  0.29001  0.77612  0.10943  1.0000
  N   N33       1.0  0.25908  0.78209  0.08684  1.0000
  C   C476      1.0  0.99664  0.82114  0.25980  1.0000
  H   H567      1.0  0.29492  0.82591  0.48397  1.0000
  H   H568      1.0  0.03323  0.87147  0.47387  1.0000
  C   C477      1.0  0.27886  0.81856  0.46436  1.0000
  H   H569      1.0  0.24178  0.83852  0.41801  1.0000
  C   C478      1.0  0.26861  0.83429  0.45293  1.0000
  C   C479      1.0  0.98436  0.80182  0.23287  1.0000
  H   H570      1.0  0.31111  0.78478  0.99399  1.0000
  H   H571      1.0  0.22170  0.75326  0.03205  1.0000
  H   H572      1.0  0.19119  0.98415  0.01932  1.0000
  H   H573      1.0  0.98248  0.79734  0.39830  1.0000
  H   H574      1.0  0.98518  0.83961  0.44325  1.0000
  C   C480      1.0  0.98358  0.81723  0.99965  1.0000
  H   H575      1.0  0.15582  0.97921  0.05716  1.0000
  C   C481      1.0  0.98407  0.84107  0.00307  1.0000
  H   H576      1.0  0.98384  0.82707  0.33603  1.0000
  C   C482      1.0  0.39322  0.98419  0.39642  1.0000
  H   H577      1.0  0.27775  0.78193  0.45770  1.0000
  H   H578      1.0  0.06385  0.89977  0.47475  1.0000
  H   H579      1.0  0.46906  0.73898  0.07181  1.0000
  H   H580      1.0  0.47571  0.89930  0.48961  1.0000
  C   C483      1.0  0.04532  0.89022  0.48856  1.0000
  H   H581      1.0  0.18217  0.77484  0.01076  1.0000
  C   C484      1.0  0.17474  0.75568  0.99879  1.0000
  H   H582      1.0  0.39342  0.98309  0.49034  1.0000
  C   C485      1.0  0.45176  0.81658  0.60637  1.0000
  S   S128      1.0  0.37333  0.89958  0.53408  1.0000
  Fe  Fe63      1.0  0.40630  0.85802  0.54891  1.0000
  S   S129      1.0  0.40939  0.88782  0.58908  1.0000
  S   S130      1.0  0.42574  0.83341  0.56044  1.0000
  Fe  Fe64      1.0  0.36651  0.87097  0.57739  1.0000
  S   S131      1.0  0.33821  0.86516  0.62137  1.0000
  Fe  Fe65      1.0  0.41587  0.91310  0.54118  1.0000
  S   S132      1.0  0.44559  0.95617  0.54069  1.0000
  S   S133      1.0  0.36300  0.84003  0.53881  1.0000
  H   H583      1.0  0.39501  0.83058  0.62261  1.0000
  S   S134      1.0  0.44534  0.84411  0.93232  1.0000
  H   H584      1.0  0.03389  0.83515  0.94367  1.0000
  Fe  Fe66      1.0  0.21453  0.75527  0.73068  1.0000
  S   S135      1.0  0.17704  0.75098  0.70702  1.0000
  S   S136      1.0  0.24997  0.76664  0.69641  1.0000
  Fe  Fe67      1.0  0.16947  0.76061  0.76274  1.0000
  S   S137      1.0  0.15157  0.78791  0.76523  1.0000
  S   S138      1.0  0.20817  0.76705  0.78575  1.0000
  Fe  Fe68      1.0  0.07819  0.89995  0.90691  1.0000
  S   S139      1.0  0.11646  0.90693  0.93162  1.0000
  S   S140      1.0  0.04209  0.88845  0.93968  1.0000
  Fe  Fe69      1.0  0.10395  0.92673  0.83685  1.0000
  S   S141      1.0  0.14319  0.93471  0.85773  1.0000
  S   S142      1.0  0.09677  0.93914  0.78140  1.0000
  Fe  Fe70      1.0  0.12327  0.89389  0.87740  1.0000
  S   S143      1.0  0.14178  0.86705  0.87613  1.0000
  Fe  Fe71      1.0  0.13269  0.94682  0.90943  1.0000
  C   C486      1.0  0.09529  0.95700  0.58934  1.0000
  S   S144      1.0  0.08401  0.88505  0.85383  1.0000
  S   S145      1.0  0.09440  0.94065  0.88727  1.0000
  C   C487      1.0  0.14918  0.80983  0.79669  1.0000
  C   C488      1.0  0.16040  0.81456  0.83149  1.0000
  C   C489      1.0  0.15791  0.83204  0.85516  1.0000
  C   C490      1.0  0.14418  0.84516  0.84465  1.0000
  C   C491      1.0  0.13298  0.84045  0.80984  1.0000
  C   C492      1.0  0.13548  0.82297  0.78617  1.0000
  H   H585      1.0  0.17102  0.80477  0.84019  1.0000
  H   H586      1.0  0.16671  0.83545  0.88190  1.0000
  H   H587      1.0  0.12234  0.85023  0.80117  1.0000
  H   H588      1.0  0.12667  0.81956  0.75944  1.0000
  C   C493      1.0  0.11733  0.96743  0.75817  1.0000
  C   C494      1.0  0.15076  0.93550  0.74677  1.0000
  C   C495      1.0  0.14484  0.97508  0.50438  1.0000
  H   H589      1.0  0.09123  0.95676  0.71178  1.0000
  C   C496      1.0  0.12593  0.90743  0.69693  1.0000
  C   C497      1.0  0.46066  0.82869  0.90998  1.0000
  H   H590      1.0  0.42081  0.83079  0.67818  1.0000
  C   C498      1.0  0.45480  0.85760  0.62293  1.0000
  H   H591      1.0  0.20265  0.95311  0.65360  1.0000
  H   H592      1.0  0.32084  0.83644  0.74376  1.0000
  C   C499      1.0  0.07619  0.93552  0.53209  1.0000
  H   H593      1.0  0.15095  0.98463  0.65200  1.0000
  C   C500      1.0  0.14104  0.98623  0.77320  1.0000
  H   H594      1.0  0.45295  0.83944  0.85774  1.0000
  H   H595      1.0  0.47083  0.81443  0.95729  1.0000
  C   C501      1.0  0.46787  0.81844  0.63632  1.0000
  C   C502      1.0  0.02013  0.83696  0.96018  1.0000
  C   C503      1.0  0.31235  0.83721  0.63953  1.0000
  C   C504      1.0  0.30783  0.81215  0.63144  1.0000
  C   C505      1.0  0.28841  0.79089  0.64869  1.0000
  C   C506      1.0  0.27275  0.79417  0.67357  1.0000
  C   C507      1.0  0.27657  0.81909  0.68057  1.0000
  C   C508      1.0  0.29639  0.84044  0.66392  1.0000
  H   H596      1.0  0.31952  0.80912  0.61241  1.0000
  H   H597      1.0  0.28564  0.77172  0.64297  1.0000
  H   H598      1.0  0.26484  0.82205  0.69970  1.0000
  H   H599      1.0  0.29960  0.85967  0.67041  1.0000
  C   C509      1.0  0.44521  0.83616  0.59939  1.0000
  H   H600      1.0  0.19270  0.76983  0.94868  1.0000
  H   H601      1.0  0.40397  0.86705  0.70725  1.0000
  C   C510      1.0  0.24455  0.78762  0.58570  1.0000
  H   H602      1.0  0.35135  0.77989  0.68886  1.0000
  H   H603      1.0  0.39418  0.80048  0.68607  1.0000
  H   H604      1.0  0.17668  0.94227  0.62025  1.0000
  H   H605      1.0  0.13682  0.92165  0.64475  1.0000
  C   C511      1.0  0.46136  0.82934  0.87235  1.0000
  H   H606      1.0  0.44781  0.89178  0.93554  1.0000
  H   H607      1.0  0.29690  0.78931  0.75060  1.0000
  H   H608      1.0  0.41704  0.86736  0.66467  1.0000
  H   H609      1.0  0.15398  0.93914  0.77549  1.0000
  C   C512      1.0  0.32827  0.82442  0.73259  1.0000
  C   C513      1.0  0.34576  0.79295  0.70123  1.0000
  C   C514      1.0  0.02024  0.86068  0.96293  1.0000
  C   C515      1.0  0.47237  0.81656  0.85328  1.0000
  H   H610      1.0  0.18073  0.97240  0.73537  1.0000
  C   C516      1.0  0.45739  0.91301  0.93265  1.0000
  H   H611      1.0  0.31215  0.76137  0.72274  1.0000
  H   H612      1.0  0.44310  0.91742  0.91873  1.0000
  C   C517      1.0  0.13740  0.94877  0.49917  1.0000
  H   H613      1.0  0.36734  0.80173  0.63479  1.0000
  H   H614      1.0  0.08796  0.93245  0.63439  1.0000
  C   C518      1.0  0.35068  0.83549  0.71318  1.0000
  C   C519      1.0  0.22333  0.76820  0.60204  1.0000
  H   H615      1.0  0.46952  0.88727  0.88244  1.0000
  C   C520      1.0  0.19065  0.95923  0.63686  1.0000
  C   C521      1.0  0.23992  0.75776  0.53805  1.0000
  C   C522      1.0  0.10955  0.97115  0.72363  1.0000
  H   H616      1.0  0.20344  0.97371  0.61772  1.0000
  C   C523      1.0  0.40192  0.82150  0.69112  1.0000
  H   H617      1.0  0.43804  0.97814  0.94158  1.0000
  H   H618      1.0  0.46030  0.90898  0.86260  1.0000
  H   H619      1.0  0.35962  0.85611  0.71029  1.0000
  H   H620      1.0  0.11024  0.88914  0.68704  1.0000
  H   H621      1.0  0.14483  0.93962  0.51760  1.0000
  H   H622      1.0  0.38741  0.86832  0.66609  1.0000
  C   C524      1.0  0.25292  0.78240  0.55387  1.0000
  C   C525      1.0  0.32332  0.78211  0.72059  1.0000
  H   H623      1.0  0.46345  0.90113  0.56894  1.0000
  C   C526      1.0  0.16601  0.95453  0.72319  1.0000
  H   H624      1.0  0.46007  0.94646  0.87291  1.0000
  H   H625      1.0  0.36478  0.83040  0.62713  1.0000
  C   C527      1.0  0.18070  0.75294  0.96380  1.0000
  H   H626      1.0  0.09959  0.97671  0.54001  1.0000
  H   H627      1.0  0.01342  0.88386  0.54235  1.0000
  C   C528      1.0  0.16170  0.95041  0.68544  1.0000
  H   H628      1.0  0.27372  0.75928  0.95209  1.0000
  C   C529      1.0  0.13069  0.91211  0.73373  1.0000
  C   C530      1.0  0.31471  0.79784  0.73645  1.0000
  H   H629      1.0  0.11779  0.97488  0.97982  1.0000
  H   H630      1.0  0.25500  0.80668  0.59842  1.0000
  C   C531      1.0  0.09104  0.95812  0.55267  1.0000
  C   C532      1.0  0.16112  0.97660  0.63608  1.0000
  N   N34       1.0  0.17769  0.96989  0.65956  1.0000
  C   C533      1.0  0.37754  0.82304  0.63879  1.0000
  C   C534      1.0  0.00185  0.81540  0.97832  1.0000
  H   H631      1.0  0.44448  0.79991  0.58837  1.0000
  C   C535      1.0  0.39873  0.85970  0.67901  1.0000
  H   H632      1.0  0.21816  0.77314  0.62732  1.0000
  C   C536      1.0  0.06993  0.91047  0.58541  1.0000
  C   C537      1.0  0.45696  0.96497  0.98024  1.0000
  H   H633      1.0  0.11861  0.89776  0.75235  1.0000
  H   H634      1.0  0.06225  0.89249  0.59932  1.0000
  C   C538      1.0  0.08474  0.93322  0.60573  1.0000
  C   C539      1.0  0.36040  0.82005  0.69740  1.0000
  C   C540      1.0  0.14120  0.92621  0.67304  1.0000
  H   H635      1.0  0.10681  0.97467  0.60501  1.0000
  H   H636      1.0  0.40587  0.82540  0.72052  1.0000
  H   H637      1.0  0.45006  0.87285  0.61804  1.0000
  H   H638      1.0  0.99918  0.85817  0.87433  1.0000
  H   H639      1.0  0.01098  0.85396  0.52647  1.0000
  N   N35       1.0  0.38426  0.83105  0.67706  1.0000
  C   C541      1.0  0.02353  0.87206  0.54223  1.0000
  C   C542      1.0  0.46805  0.97548  0.50837  1.0000
  C   C543      1.0  0.98188  0.85262  0.88905  1.0000
  H   H640      1.0  0.98255  0.88895  0.88255  1.0000
  S   S146      1.0  0.41533  0.88418  0.50163  1.0000
  H   H641      1.0  0.14649  0.95992  0.61970  1.0000
  C   C544      1.0  0.06507  0.91090  0.54794  1.0000
  H   H642      1.0  0.24665  0.75373  0.51343  1.0000
  C   C545      1.0  0.20967  0.74281  0.58683  1.0000
  H   H643      1.0  0.26973  0.79745  0.54182  1.0000
  H   H644      1.0  0.46116  0.92169  0.96014  1.0000
  C   C546      1.0  0.06241  0.87035  0.52904  1.0000
  N   N36       1.0  0.04939  0.88648  0.52709  1.0000
  H   H645      1.0  0.07394  0.93793  0.50379  1.0000
  H   H646      1.0  0.44095  0.94562  0.98043  1.0000
  H   H647      1.0  0.00174  0.79710  0.97549  1.0000
  C   C547      1.0  0.47606  0.90819  0.87869  1.0000
  H   H648      1.0  0.00208  0.88079  0.98706  1.0000
  H   H649      1.0  0.08219  0.88081  0.51874  1.0000
  H   H650      1.0  0.05158  0.85207  0.51283  1.0000
  C   C548      1.0  0.47798  0.84017  0.65935  1.0000
  S   S147      1.0  0.16174  0.98589  0.93548  1.0000
  H   H651      1.0  0.22937  0.74371  0.97186  1.0000
  H   H652      1.0  0.46853  0.87477  0.52150  1.0000
  H   H653      1.0  0.39070  0.95331  0.50672  1.0000
  H   H654      1.0  0.47297  0.80336  0.64112  1.0000
  C   C549      1.0  0.47137  0.81527  0.92840  1.0000
  H   H655      1.0  0.14752  0.98338  0.79937  1.0000
  H   H656      1.0  0.46796  0.92363  0.53435  1.0000
  H   H657      1.0  0.02440  0.86600  0.57007  1.0000
  C   C550      1.0  0.00211  0.86254  0.98459  1.0000
  C   C551      1.0  0.45525  0.98363  0.95842  1.0000
  H   H658      1.0  0.06413  0.86458  0.55681  1.0000
  C   C552      1.0  0.47122  0.85965  0.65254  1.0000
  H   H659      1.0  0.47243  0.81698  0.82434  1.0000
  H   H660      1.0  0.17462  0.74820  0.62674  1.0000
  C   C553      1.0  0.27063  0.76378  0.97909  1.0000
  Fe  Fe72      1.0  0.37240  0.86955  0.49578  1.0000
  H   H661      1.0  0.42100  0.97817  0.49427  1.0000
  C   C554      1.0  0.24565  0.75507  0.99031  1.0000
  Fe  Fe73      1.0  0.58364  0.11960  0.46343  1.0000
  S   S148      1.0  0.58961  0.08832  0.43800  1.0000
  Fe  Fe74      1.0  0.55528  0.12450  0.39546  1.0000
  S   S149      1.0  0.55872  0.09263  0.36704  1.0000
  S   S150      1.0  0.54375  0.15130  0.36508  1.0000
  Fe  Fe75      1.0  0.54788  0.07132  0.41921  1.0000
  S   S151      1.0  0.52017  0.02749  0.42047  1.0000
  Fe  Fe76      1.0  0.60001  0.11280  0.38872  1.0000
  S   S152      1.0  0.63271  0.11848  0.35190  1.0000
  S   S153      1.0  0.54147  0.10195  0.44589  1.0000
  S   S154      1.0  0.59700  0.14521  0.41581  1.0000
  C   C555      1.0  0.82903  0.99507  0.47116  1.0000
  Fe  Fe77      1.0  0.87724  0.08262  0.04706  1.0000
  S   S155      1.0  0.83987  0.07882  0.02336  1.0000
  S   S156      1.0  0.91261  0.09314  0.01318  1.0000
  Fe  Fe78      1.0  0.84949  0.05130  0.11334  1.0000
  S   S157      1.0  0.81102  0.04538  0.09250  1.0000
  S   S158      1.0  0.85532  0.03581  0.16690  1.0000
  Fe  Fe79      1.0  0.82245  0.03728  0.03893  1.0000
  H   H662      1.0  0.84098  0.15455  0.26987  1.0000
  Fe  Fe80      1.0  0.83213  0.08766  0.07949  1.0000
  S   S159      1.0  0.81004  0.11020  0.09126  1.0000
  S   S160      1.0  0.85958  0.04049  0.06070  1.0000
  S   S161      1.0  0.87075  0.09401  0.10243  1.0000
  H   H663      1.0  0.79902  0.00175  0.16033  1.0000
  C   C556      1.0  0.49927  0.99715  0.00197  1.0000
  S   S162      1.0  0.71387  0.21625  0.26720  1.0000
  H   H664      1.0  0.49055  0.12756  0.12068  1.0000
  S   S163      1.0  0.81838  0.20322  0.19199  1.0000
  S   S164      1.0  0.75693  0.21696  0.17877  1.0000
  C   C557      1.0  0.83285  0.01131  0.19417  1.0000
  C   C558      1.0  0.52187  0.14038  0.21903  1.0000
  C   C559      1.0  0.48486  0.16846  0.08572  1.0000
  H   H665      1.0  0.86217  0.01630  0.23426  1.0000
  H   H666      1.0  0.89844  0.05197  0.46942  1.0000
  C   C560      1.0  0.81315  0.13653  0.11907  1.0000
  C   C561      1.0  0.79266  0.14245  0.11894  1.0000
  C   C562      1.0  0.79393  0.16284  0.14062  1.0000
  C   C563      1.0  0.81583  0.17776  0.16283  1.0000
  C   C564      1.0  0.83636  0.17193  0.16280  1.0000
  C   C565      1.0  0.83509  0.15154  0.14115  1.0000
  H   H667      1.0  0.77552  0.13097  0.10214  1.0000
  H   H668      1.0  0.77779  0.16670  0.14054  1.0000
  H   H669      1.0  0.85338  0.18319  0.17992  1.0000
  H   H670      1.0  0.85115  0.14755  0.14153  1.0000
  C   C566      1.0  0.50148  0.00807  0.45588  1.0000
  C   C567      1.0  0.51889  0.12527  0.24871  1.0000
  H   H671      1.0  0.75470  0.22852  0.32662  1.0000
  H   H672      1.0  0.93717  0.17140  0.44403  1.0000
  H   H673      1.0  0.81922  0.99489  0.11116  1.0000
  C   C568      1.0  0.49485  0.15148  0.03192  1.0000
  C   C569      1.0  0.93622  0.12085  0.99166  1.0000
  C   C570      1.0  0.74991  0.23456  0.35236  1.0000
  C   C571      1.0  0.91933  0.12994  0.43902  1.0000
  H   H674      1.0  0.86912  0.08863  0.42544  1.0000
  C   C572      1.0  0.94293  0.11325  0.40592  1.0000
  C   C573      1.0  0.50291  0.16670  0.06372  1.0000
  H   H675      1.0  0.87904  0.04432  0.40556  1.0000
  H   H676      1.0  0.51207  0.20450  0.34414  1.0000
  H   H677      1.0  0.87850  0.08769  0.47194  1.0000
  H   H678      1.0  0.51654  0.00255  0.01863  1.0000
  H   H679      1.0  0.49258  0.21463  0.04144  1.0000
  H   H680      1.0  0.83676  0.99138  0.00264  1.0000
  C   C574      1.0  0.87668  0.07925  0.44456  1.0000
  C   C575      1.0  0.69271  0.18899  0.29197  1.0000
  C   C576      1.0  0.67684  0.19202  0.31673  1.0000
  C   C577      1.0  0.65913  0.17099  0.33627  1.0000
  C   C578      1.0  0.65641  0.14632  0.33053  1.0000
  C   C579      1.0  0.67249  0.14336  0.30607  1.0000
  C   C580      1.0  0.69064  0.16454  0.28711  1.0000
  H   H681      1.0  0.67825  0.21081  0.32090  1.0000
  H   H682      1.0  0.64743  0.17386  0.35552  1.0000
  H   H683      1.0  0.67074  0.12446  0.30149  1.0000
  H   H684      1.0  0.70261  0.16178  0.26820  1.0000
  C   C581      1.0  0.51547  0.14460  0.33896  1.0000
  C   C582      1.0  0.51637  0.16309  0.31471  1.0000
  H   H685      1.0  0.49516  0.17364  0.27595  1.0000
  H   H686      1.0  0.53446  0.18038  0.31130  1.0000
  S   S165      1.0  0.79442  0.00430  0.00125  1.0000
  H   H687      1.0  0.83697  0.21607  0.07538  1.0000
  N   N37       1.0  0.81102  0.07896  0.19981  1.0000
  C   C583      1.0  0.81278  0.06347  0.22985  1.0000
  C   C584      1.0  0.78906  0.06131  0.17544  1.0000
  C   C585      1.0  0.83480  0.08863  0.17945  1.0000
  C   C586      1.0  0.80852  0.10115  0.21388  1.0000
  C   C587      1.0  0.82755  0.11925  0.23855  1.0000
  C   C588      1.0  0.78788  0.10593  0.20307  1.0000
  C   C589      1.0  0.82597  0.14067  0.25165  1.0000
  C   C590      1.0  0.78637  0.12729  0.21666  1.0000
  C   C591      1.0  0.80540  0.14466  0.24075  1.0000
  H   H688      1.0  0.79578  0.05680  0.24687  1.0000
  H   H689      1.0  0.81367  0.04604  0.22002  1.0000
  H   H690      1.0  0.83042  0.07434  0.24738  1.0000
  H   H691      1.0  0.77043  0.05334  0.18901  1.0000
  H   H692      1.0  0.79121  0.04448  0.16620  1.0000
  H   H693      1.0  0.78773  0.07121  0.15075  1.0000
  H   H694      1.0  0.83711  0.07252  0.16780  1.0000
  H   H695      1.0  0.83438  0.10074  0.15698  1.0000
  H   H696      1.0  0.85255  0.10048  0.19635  1.0000
  H   H697      1.0  0.84409  0.11722  0.24737  1.0000
  H   H698      1.0  0.77295  0.09385  0.18353  1.0000
  C   C592      1.0  0.80656  0.99717  0.18436  1.0000
  N   N38       1.0  0.58790  0.13962  0.27162  1.0000
  C   C593      1.0  0.58400  0.11285  0.27220  1.0000
  C   C594      1.0  0.61288  0.15583  0.25492  1.0000
  C   C595      1.0  0.59032  0.14928  0.30902  1.0000
  C   C596      1.0  0.56551  0.13992  0.25287  1.0000
  C   C597      1.0  0.54031  0.12507  0.26554  1.0000
  C   C598      1.0  0.56788  0.15501  0.22230  1.0000
  C   C599      1.0  0.80802  0.99933  0.46349  1.0000
  C   C600      1.0  0.54628  0.15515  0.20579  1.0000
  C   C601      1.0  0.68592  0.11056  0.48097  1.0000
  H   H699      1.0  0.58128  0.10451  0.24460  1.0000
  H   H700      1.0  0.60077  0.11203  0.28560  1.0000
  H   H701      1.0  0.56696  0.09981  0.28735  1.0000
  H   H702      1.0  0.61268  0.14937  0.22682  1.0000
  H   H703      1.0  0.62912  0.15476  0.26949  1.0000
  H   H704      1.0  0.61793  0.17657  0.25554  1.0000
  H   H705      1.0  0.60672  0.14915  0.32428  1.0000
  H   H706      1.0  0.59287  0.16921  0.31016  1.0000
  H   H707      1.0  0.57309  0.13714  0.32420  1.0000
  H   H708      1.0  0.53701  0.11363  0.28919  1.0000
  H   H709      1.0  0.58621  0.16709  0.21087  1.0000
  H   H710      1.0  0.88972  0.07180  0.37738  1.0000
  H   H711      1.0  0.54851  0.16702  0.18278  1.0000
  C   C602      1.0  0.47924  0.09680  0.08122  1.0000
  C   C603      1.0  0.93830  0.15508  0.43241  1.0000
  N   N39       1.0  0.90147  0.08137  0.43310  1.0000
  S   S166      1.0  0.51831  0.14993  0.00516  1.0000
  Fe  Fe81      1.0  0.74961  0.22870  0.23339  1.0000
  C   C604      1.0  0.92079  0.10817  0.42528  1.0000
  H   H712      1.0  0.52325  0.17728  0.07132  1.0000
  C   C605      1.0  0.49209  0.12211  0.34270  1.0000
  H   H713      1.0  0.86143  0.05880  0.44624  1.0000
  S   S167      1.0  0.78754  0.23473  0.25811  1.0000
  N   N40       1.0  0.48575  0.22017  0.34612  1.0000
  C   C606      1.0  0.48418  0.22282  0.30682  1.0000
  H   H714      1.0  0.85795  0.99489  0.11038  1.0000
  H   H715      1.0  0.94643  0.09791  0.39658  1.0000
  C   C607      1.0  0.81714  0.20944  0.06378  1.0000
  C   C608      1.0  0.91225  0.07207  0.46230  1.0000
  C   C609      1.0  0.96168  0.13847  0.39922  1.0000
  H   H716      1.0  0.77082  0.13095  0.20750  1.0000
  H   H717      1.0  0.79151  0.02416  0.47410  1.0000
  H   H718      1.0  0.49110  0.10779  0.36138  1.0000
  H   H719      1.0  0.64802  0.10326  0.46246  1.0000
  C   C610      1.0  0.89532  0.06395  0.40108  1.0000
  C   C611      1.0  0.49409  0.15940  0.29478  1.0000
  H   H720      1.0  0.81735  0.20602  0.03448  1.0000
  H   H721      1.0  0.91159  0.06060  0.39403  1.0000
  H   H722      1.0  0.75778  0.22737  0.37436  1.0000
  H   H723      1.0  0.77635  0.21020  0.03112  1.0000
  H   H724      1.0  0.92644  0.14829  0.01493  1.0000
  H   H725      1.0  0.50399  0.07621  0.03927  1.0000
  H   H726      1.0  0.91661  0.08430  0.48716  1.0000
  H   H727      1.0  0.80492  0.19044  0.07585  1.0000
  C   C612      1.0  0.93901  0.14554  0.99712  1.0000
  H   H728      1.0  0.97432  0.17885  0.40814  1.0000
  H   H729      1.0  0.49994  0.11417  0.25942  1.0000
  H   H730      1.0  0.49219  0.09323  0.01059  1.0000
  H   H731      1.0  0.69107  0.10715  0.45467  1.0000
  H   H732      1.0  0.49010  0.06339  0.99588  1.0000
  H   H733      1.0  0.93049  0.07243  0.45499  1.0000
  C   C613      1.0  0.95931  0.15933  0.41233  1.0000
  H   H734      1.0  0.50523  0.14086  0.20663  1.0000
  N   N41       1.0  0.80760  0.22810  0.07095  1.0000
  H   H735      1.0  0.80456  0.16167  0.25015  1.0000
  H   H736      1.0  0.49131  0.18043  0.10992  1.0000
  H   H737      1.0  0.79766  0.21619  0.12522  1.0000
  H   H738      1.0  0.72845  0.22422  0.35249  1.0000
  H   H739      1.0  0.90401  0.12808  0.45563  1.0000
  C   C614      1.0  0.84191  0.00545  0.22625  1.0000
  C   C615      1.0  0.77968  0.21539  0.06023  1.0000
  Fe  Fe82      1.0  0.79594  0.22548  0.20260  1.0000
  C   C616      1.0  0.80771  0.02076  0.47976  1.0000
  H   H740      1.0  0.76857  0.19721  0.07481  1.0000
  H   H741      1.0  0.48375  0.20631  0.29172  1.0000
  C   C617      1.0  0.48834  0.07384  0.01967  1.0000
  H   H742      1.0  0.77100  0.22799  0.06677  1.0000
  H   H743      1.0  0.49839  0.10614  0.07103  1.0000
  C   C618      1.0  0.80992  0.23370  0.11001  1.0000
  H   H744      1.0  0.51307  0.22024  0.38586  1.0000
  C   C619      1.0  0.51067  0.22102  0.35626  1.0000
  C   C620      1.0  0.49735  0.01871  0.48698  1.0000
  H   H745      1.0  0.73002  0.23418  0.41175  1.0000
  H   H746      1.0  0.50657  0.03946  0.49074  1.0000
  C   C621      1.0  0.66162  0.10832  0.48525  1.0000
  H   H747      1.0  0.84898  0.03241  0.97038  1.0000
  Fe  Fe83      1.0  0.87406  0.13849  0.58237  1.0000
  S   S168      1.0  0.86929  0.10375  0.61256  1.0000
  S   S169      1.0  0.84817  0.15779  0.58367  1.0000
  Fe  Fe84      1.0  0.92807  0.14940  0.55666  1.0000
  S   S170      1.0  0.92686  0.11611  0.58655  1.0000
  C   C622      1.0  0.84900  0.03347  0.51115  1.0000
  Fe  Fe85      1.0  0.88556  0.09422  0.56423  1.0000
  S   S171      1.0  0.87566  0.05474  0.53964  1.0000
  Fe  Fe86      1.0  0.91080  0.12862  0.63164  1.0000
  S   S172      1.0  0.92067  0.13482  0.69160  1.0000
  S   S173      1.0  0.88764  0.12739  0.53230  1.0000
  S   S174      1.0  0.91484  0.16356  0.60345  1.0000
  Fe  Fe87      1.0  0.70688  0.19167  0.66404  1.0000
  S   S175      1.0  0.69699  0.15121  0.67767  1.0000
  S   S176      1.0  0.69881  0.20075  0.60763  1.0000
  Fe  Fe88      1.0  0.73476  0.21389  0.73701  1.0000
  S   S177      1.0  0.72741  0.17453  0.75450  1.0000
  Fe  Fe89      1.0  0.73814  0.16885  0.69889  1.0000
  S   S178      1.0  0.75913  0.14553  0.68777  1.0000
  Fe  Fe90      1.0  0.68699  0.16037  0.73160  1.0000
  S   S179      1.0  0.65268  0.13022  0.76125  1.0000
  S   S180      1.0  0.74870  0.20933  0.68315  1.0000
  S   S181      1.0  0.69365  0.19964  0.71615  1.0000
  Fe  Fe91      1.0  0.53712  0.12304  0.88427  1.0000
  S   S182      1.0  0.49962  0.09111  0.86078  1.0000
  S   S183      1.0  0.57239  0.14767  0.85191  1.0000
  Fe  Fe92      1.0  0.51071  0.12814  0.95171  1.0000
  Fe  Fe93      1.0  0.49282  0.07517  0.91693  1.0000
  C   C623      1.0  0.63723  0.19084  0.91456  1.0000
  H   H748      1.0  0.66692  0.22502  0.89340  1.0000
  S   S184      1.0  0.53167  0.10571  0.93931  1.0000
  S   S185      1.0  0.51987  0.14836  0.89941  1.0000
  S   S186      1.0  0.96369  0.17905  0.52887  1.0000
  H   H749      1.0  0.92962  0.12190  0.89511  1.0000
  H   H750      1.0  0.49991  0.17390  0.83551  1.0000
  H   H751      1.0  0.50033  0.11005  0.75885  1.0000
  H   H752      1.0  0.87404  0.13475  0.68635  1.0000
  C   C624      1.0  0.89568  0.08636  0.90621  1.0000
  H   H753      1.0  0.97568  0.19596  0.60342  1.0000
  H   H754      1.0  0.84533  0.22951  0.67930  1.0000
  C   C625      1.0  0.65485  0.11280  0.51883  1.0000
  C   C626      1.0  0.62952  0.13482  0.78481  1.0000
  C   C627      1.0  0.62897  0.15821  0.78447  1.0000
  C   C628      1.0  0.61139  0.16172  0.80525  1.0000
  C   C629      1.0  0.59365  0.14167  0.82587  1.0000
  C   C630      1.0  0.59344  0.11788  0.82509  1.0000
  C   C631      1.0  0.61145  0.11458  0.80487  1.0000
  H   H755      1.0  0.64215  0.17357  0.76814  1.0000
  H   H756      1.0  0.61145  0.18007  0.80523  1.0000
  H   H757      1.0  0.57978  0.10221  0.84055  1.0000
  H   H758      1.0  0.61152  0.09630  0.80498  1.0000
  C   C632      1.0  0.86312  0.04794  0.95378  1.0000
  C   C633      1.0  0.86214  0.14469  0.68582  1.0000
  H   H759      1.0  0.90050  0.08978  0.93456  1.0000
  C   C634      1.0  0.89852  0.18689  0.68341  1.0000
  C   C635      1.0  0.85248  0.01831  0.90399  1.0000
  C   C636      1.0  0.55879  0.13532  0.74002  1.0000
  H   H760      1.0  0.96056  0.18589  0.98474  1.0000
  C   C637      1.0  0.95133  0.14363  0.71179  1.0000
  H   H761      1.0  0.86536  0.00840  0.50092  1.0000
  H   H762      1.0  0.49478  0.19701  0.98392  1.0000
  H   H763      1.0  0.50704  0.21163  0.79895  1.0000
  H   H764      1.0  0.94145  0.15345  0.76250  1.0000
  C   C638      1.0  0.82262  0.15355  0.61176  1.0000
  C   C639      1.0  0.80980  0.13169  0.63245  1.0000
  C   C640      1.0  0.79051  0.12968  0.65543  1.0000
  C   C641      1.0  0.78333  0.14918  0.65764  1.0000
  C   C642      1.0  0.79548  0.17065  0.63606  1.0000
  C   C643      1.0  0.81500  0.17279  0.61333  1.0000
  H   H765      1.0  0.81479  0.11633  0.63085  1.0000
  H   H766      1.0  0.78104  0.11283  0.67161  1.0000
  H   H767      1.0  0.79016  0.18580  0.63730  1.0000
  H   H768      1.0  0.82454  0.18967  0.59722  1.0000
  C   C644      1.0  0.62254  0.14762  0.54579  1.0000
  C   C645      1.0  0.62525  0.14507  0.58285  1.0000
  C   C646      1.0  0.64867  0.16090  0.60193  1.0000
  C   C647      1.0  0.66948  0.17976  0.58418  1.0000
  C   C648      1.0  0.66689  0.18220  0.54706  1.0000
  C   C649      1.0  0.64356  0.16605  0.52783  1.0000
  H   H769      1.0  0.60910  0.13079  0.59686  1.0000
  H   H770      1.0  0.65043  0.15887  0.63050  1.0000
  H   H771      1.0  0.68293  0.19673  0.53316  1.0000
  C   C650      1.0  0.91270  0.10511  0.88369  1.0000
  H   H772      1.0  0.71842  0.21269  0.89063  1.0000
  C   C651      1.0  0.57459  0.13062  0.71750  1.0000
  C   C652      1.0  0.65559  0.16376  0.87367  1.0000
  N   N42       1.0  0.71548  0.12929  0.57663  1.0000
  C   C653      1.0  0.72183  0.15550  0.58975  1.0000
  C   C654      1.0  0.70348  0.11092  0.60578  1.0000
  C   C655      1.0  0.47906  0.17254  0.92432  1.0000
  C   C656      1.0  0.69727  0.12197  0.54499  1.0000
  C   C657      1.0  0.97200  0.13905  0.95068  1.0000
  C   C658      1.0  0.55786  0.14390  0.66682  1.0000
  H   H773      1.0  0.70454  0.15634  0.59879  1.0000
  H   H774      1.0  0.73602  0.16211  0.61307  1.0000
  H   H775      1.0  0.72998  0.16991  0.56839  1.0000
  H   H776      1.0  0.71701  0.11554  0.62967  1.0000
  H   H777      1.0  0.69751  0.09078  0.59665  1.0000
  H   H778      1.0  0.68616  0.11133  0.61567  1.0000
  Fe  Fe94      1.0  0.48251  0.11614  0.87791  1.0000
  H   H779      1.0  0.75295  0.13433  0.59374  1.0000
  C   C659      1.0  0.68312  0.22126  0.82353  1.0000
  H   H780      1.0  0.66639  0.12374  0.57346  1.0000
  C   C660      1.0  0.63460  0.15058  0.89530  1.0000
  H   H781      1.0  0.62485  0.12968  0.89536  1.0000
  H   H782      1.0  0.53016  0.15597  0.67641  1.0000
  C   C661      1.0  0.90812  0.10236  0.84669  1.0000
  C   C662      1.0  0.86903  0.06219  0.85434  1.0000
  C   C663      1.0  0.54190  0.14440  0.72659  1.0000
  C   C664      1.0  0.83598  0.16871  0.72953  1.0000
  C   C665      1.0  0.67241  0.11978  0.54823  1.0000
  N   N43       1.0  0.68988  0.20579  0.84860  1.0000
  H   H783      1.0  0.83059  0.06120  0.91892  1.0000
  H   H784      1.0  0.90037  0.16135  0.73845  1.0000
  C   C666      1.0  0.95842  0.16685  0.97991  1.0000
  C   C667      1.0  0.74012  0.12951  0.56917  1.0000
  H   H785      1.0  0.80202  0.16836  0.74962  1.0000
  H   H786      1.0  0.51647  0.17432  0.71757  1.0000
  H   H787      1.0  0.87550  0.21325  0.67108  1.0000
  H   H788      1.0  0.88209  0.04854  0.95893  1.0000
  C   C668      1.0  0.84311  0.21281  0.69387  1.0000
  H   H789      1.0  0.91199  0.17869  0.68201  1.0000
  H   H790      1.0  0.55774  0.16956  0.79074  1.0000
  S   S187      1.0  0.59247  0.12737  0.52346  1.0000
  H   H791      1.0  0.82753  0.05420  0.51552  1.0000
  H   H792      1.0  0.58655  0.13144  0.66360  1.0000
  H   H793      1.0  0.85228  0.04606  0.84171  1.0000
  H   H794      1.0  0.75128  0.14432  0.54939  1.0000
  C   C669      1.0  0.85753  0.18094  0.70763  1.0000
  C   C670      1.0  0.65843  0.20427  0.89338  1.0000
  H   H795      1.0  0.52473  0.12511  0.79431  1.0000
  H   H796      1.0  0.82084  0.03704  0.88364  1.0000
  C   C671      1.0  0.57413  0.13491  0.68097  1.0000
  C   C672      1.0  0.50707  0.15615  0.73265  1.0000
  H   H797      1.0  0.56021  0.13212  0.76820  1.0000
  H   H798      1.0  0.53295  0.17859  0.79307  1.0000
  H   H799      1.0  0.83924  0.00261  0.92118  1.0000
  C   C673      1.0  0.81883  0.17848  0.73371  1.0000
  C   C674      1.0  0.54200  0.14872  0.68915  1.0000
  C   C675      1.0  0.82809  0.03780  0.50333  1.0000
  N   N44       1.0  0.85506  0.04366  0.91512  1.0000
  H   H800      1.0  0.63590  0.11109  0.52196  1.0000
  H   H801      1.0  0.86981  0.15244  0.75584  1.0000
  C   C676      1.0  0.48820  0.19473  0.79827  1.0000
  H   H802      1.0  0.73004  0.23439  0.85404  1.0000
  H   H803      1.0  0.49392  0.14003  0.71402  1.0000
  H   H804      1.0  0.85785  0.14645  0.65715  1.0000
  N   N45       1.0  0.87564  0.17037  0.70419  1.0000
  H   H805      1.0  0.89375  0.18596  0.75607  1.0000
  C   C677      1.0  0.71309  0.22353  0.87084  1.0000
  H   H806      1.0  0.70301  0.17745  0.84386  1.0000
  H   H807      1.0  0.48408  0.16205  0.94513  1.0000
  C   C678      1.0  0.88525  0.16747  0.74023  1.0000
  H   H808      1.0  0.84425  0.01225  0.87624  1.0000
  H   H809      1.0  0.90959  0.20659  0.69573  1.0000
  H   H810      1.0  0.68133  0.23699  0.83737  1.0000
  H   H811      1.0  0.92155  0.11683  0.82935  1.0000
  C   C679      1.0  0.70357  0.11723  0.51028  1.0000
  H   H812      1.0  0.89288  0.18837  0.65506  1.0000
  H   H813      1.0  0.66107  0.15194  0.85779  1.0000
  H   H814      1.0  0.84362  0.13153  0.69791  1.0000
  N   N46       1.0  0.52627  0.15034  0.75138  1.0000
  C   C680      1.0  0.86039  0.20319  0.68943  1.0000
  C   C681      1.0  0.88627  0.08098  0.83203  1.0000
  C   C682      1.0  0.52554  0.99568  0.91800  1.0000
  H   H815      1.0  0.66453  0.20897  0.80858  1.0000
  H   H816      1.0  0.55523  0.19015  0.75760  1.0000
  C   C683      1.0  0.51185  0.12824  0.77491  1.0000
  C   C684      1.0  0.66807  0.19112  0.87189  1.0000
  H   H817      1.0  0.60834  0.15362  0.93091  1.0000
  C   C685      1.0  0.69692  0.18912  0.82684  1.0000
  H   H818      1.0  0.51332  0.03536  0.98047  1.0000
  H   H819      1.0  0.73680  0.11027  0.55936  1.0000
  C   C686      1.0  0.82937  0.04234  0.91139  1.0000
  H   H820      1.0  0.87149  0.01864  0.90569  1.0000
  H   H821      1.0  0.83184  0.15111  0.74298  1.0000
  C   C687      1.0  0.87336  0.06411  0.89215  1.0000
  H   H822      1.0  0.96417  0.13167  0.50572  1.0000
  H   H823      1.0  0.88276  0.07893  0.80319  1.0000
  H   H824      1.0  0.86453  0.06624  0.96443  1.0000
  H   H825      1.0  0.62967  0.20118  0.92992  1.0000
  C   C688      1.0  0.97511  0.16382  0.95670  1.0000
  H   H826      1.0  0.58748  0.12386  0.72853  1.0000
  C   C689      1.0  0.54378  0.17314  0.77417  1.0000
  H   H827      1.0  0.81525  0.02759  0.92911  1.0000
  H   H828      1.0  0.71338  0.20068  0.80981  1.0000
  H   H829      1.0  0.49519  0.19261  0.92320  1.0000
  C   C690      1.0  0.95634  0.15236  0.74777  1.0000
  H   H830      1.0  0.55772  0.14732  0.63832  1.0000
  C   C691      1.0  0.48074  0.00253  0.51293  1.0000
  H   H831      1.0  0.68076  0.17597  0.80822  1.0000
  H   H832      1.0  0.96686  0.13526  0.66539  1.0000
  H   H833      1.0  0.96316  0.18892  0.66634  1.0000
  C   C692      1.0  0.49747  0.01590  0.98035  1.0000
  C   C693      1.0  0.48424  0.17332  0.81896  1.0000
  C   C694      1.0  0.82242  0.20053  0.71602  1.0000
  H   H834      1.0  0.49458  0.15906  0.75174  1.0000
  H   H835      1.0  0.69796  0.23069  0.80329  1.0000
  C   C695      1.0  0.95285  0.11779  0.96829  1.0000
  C   C696      1.0  0.62527  0.16404  0.91537  1.0000
  H   H836      1.0  0.49825  0.13131  0.79168  1.0000
  H   H837      1.0  0.51852  0.02431  0.89203  1.0000
  C   C697      1.0  0.97063  0.14214  0.69301  1.0000
  H   H838      1.0  0.64168  0.16814  0.49931  1.0000
  H   H839      1.0  0.80857  0.20753  0.71851  1.0000
  H   H840      1.0  0.95080  0.09878  0.96362  1.0000
  H   H841      1.0  0.71025  0.23821  0.88588  1.0000
  H   H842      1.0  0.54339  0.00984  0.93138  1.0000
  H   H843      1.0  0.72204  0.11868  0.50496  1.0000
  C   C698      1.0  0.51162  0.00389  0.89577  1.0000
  C   C699      1.0  0.84930  0.01198  0.49501  1.0000
  H   H844      1.0  0.47819  0.16311  0.89805  1.0000
  H   H845      1.0  0.80601  0.32487  0.21845  1.0000
  H   H846      1.0  0.77001  0.32654  0.18208  1.0000
  S   S188      1.0  0.81230  0.44702  0.41900  1.0000
  H   H847      1.0  0.72770  0.26091  0.32532  1.0000
  S   S189      1.0  0.86016  0.43711  0.44664  1.0000
  H   H848      1.0  0.49648  0.45693  0.48700  1.0000
  Fe  Fe95      1.0  0.83518  0.42911  0.39583  1.0000
  S   S190      1.0  0.80963  0.39087  0.36497  1.0000
  Fe  Fe96      1.0  0.83967  0.45841  0.46710  1.0000
  S   S191      1.0  0.86328  0.46561  0.36946  1.0000
  S   S192      1.0  0.85035  0.36620  0.01996  1.0000
  Fe  Fe97      1.0  0.51461  0.38312  0.45380  1.0000
  Fe  Fe98      1.0  0.53896  0.40897  0.38311  1.0000
  S   S193      1.0  0.49988  0.40008  0.35923  1.0000
  S   S194      1.0  0.57232  0.42515  0.34423  1.0000
  Fe  Fe99      1.0  0.49332  0.41389  0.41275  1.0000
  H   H849      1.0  0.75603  0.29171  0.32473  1.0000
  C   C700      1.0  0.86536  0.28984  0.04239  1.0000
  S   S195      1.0  0.53309  0.42453  0.43545  1.0000
  S   S196      1.0  0.52439  0.36856  0.40386  1.0000
  Fe  Fe100     1.0  0.77665  0.25942  0.16635  1.0000
  S   S197      1.0  0.81563  0.26750  0.18827  1.0000
  S   S198      1.0  0.77015  0.27292  0.11155  1.0000
  Fe  Fe101     1.0  0.80335  0.27584  0.24093  1.0000
  S   S199      1.0  0.83132  0.31075  0.27589  1.0000
  S   S200      1.0  0.76554  0.27041  0.21805  1.0000
  H   H850      1.0  0.81238  0.47825  0.30841  1.0000
  C   C701      1.0  0.82766  0.33956  0.04403  1.0000
  C   C702      1.0  0.83630  0.33247  0.07547  1.0000
  C   C703      1.0  0.81912  0.31185  0.09602  1.0000
  C   C704      1.0  0.79291  0.29827  0.08569  1.0000
  C   C705      1.0  0.78428  0.30520  0.05411  1.0000
  C   C706      1.0  0.80152  0.32566  0.03333  1.0000
  H   H851      1.0  0.85652  0.34290  0.08381  1.0000
  H   H852      1.0  0.82623  0.30647  0.11974  1.0000
  H   H853      1.0  0.76405  0.29482  0.04580  1.0000
  C   C707      1.0  0.96408  0.45741  0.39434  1.0000
  H   H854      1.0  0.76781  0.32855  0.43332  1.0000
  C   C708      1.0  0.54074  0.46562  0.05520  1.0000
  C   C709      1.0  0.81660  0.36955  0.33942  1.0000
  C   C710      1.0  0.79666  0.35003  0.31788  1.0000
  C   C711      1.0  0.80106  0.33246  0.29737  1.0000
  C   C712      1.0  0.82532  0.33373  0.29892  1.0000
  C   C713      1.0  0.84532  0.35336  0.32018  1.0000
  C   C714      1.0  0.84107  0.37128  0.34017  1.0000
  H   H855      1.0  0.77774  0.34869  0.31680  1.0000
  H   H856      1.0  0.78563  0.31782  0.28063  1.0000
  H   H857      1.0  0.86420  0.35458  0.32153  1.0000
  H   H858      1.0  0.85659  0.38615  0.35658  1.0000
  C   C715      1.0  0.82886  0.37087  0.15577  1.0000
  H   H859      1.0  0.93676  0.45900  0.99695  1.0000
  C   C716      1.0  0.85402  0.29946  0.01786  1.0000
  H   H860      1.0  0.86560  0.31779  0.00541  1.0000
  H   H861      1.0  0.52376  0.45700  0.03590  1.0000
  C   C717      1.0  0.72876  0.45997  0.32280  1.0000
  H   H862      1.0  0.64041  0.47788  0.26256  1.0000
  C   C718      1.0  0.59860  0.45487  0.33108  1.0000
  H   H863      1.0  0.81672  0.32184  0.17523  1.0000
  H   H864      1.0  0.72309  0.45757  0.29464  1.0000
  H   H865      1.0  0.78505  0.47563  0.25459  1.0000
  H   H866      1.0  0.81258  0.41585  0.29258  1.0000
  C   C719      1.0  0.48554  0.31391  0.30523  1.0000
  H   H867      1.0  0.55158  0.46015  0.35749  1.0000
  N   N47       1.0  0.76048  0.26298  0.35524  1.0000
  H   H868      1.0  0.79818  0.27036  0.37484  1.0000
  H   H869      1.0  0.83859  0.34526  0.20725  1.0000
  H   H870      1.0  0.88593  0.30063  0.04868  1.0000
  H   H871      1.0  0.82991  0.24097  0.12138  1.0000
  H   H872      1.0  0.85156  0.41280  0.27888  1.0000
  H   H873      1.0  0.50072  0.24054  0.29710  1.0000
  C   C720      1.0  0.83340  0.38624  0.23388  1.0000
  C   C721      1.0  0.48629  0.46737  0.47929  1.0000
  C   C722      1.0  0.96697  0.47556  0.36886  1.0000
  H   H874      1.0  0.82418  0.38595  0.14584  1.0000
  C   C723      1.0  0.72095  0.47312  0.34743  1.0000
  H   H875      1.0  0.51599  0.30798  0.37041  1.0000
  H   H876      1.0  0.82854  0.35919  0.13204  1.0000
  H   H877      1.0  0.93068  0.45753  0.47802  1.0000
  C   C724      1.0  0.48930  0.29892  0.27884  1.0000
  C   C725      1.0  0.74666  0.46546  0.39424  1.0000
  H   H878      1.0  0.80388  0.24847  0.11598  1.0000
  H   H879      1.0  0.50674  0.30746  0.26403  1.0000
  H   H880      1.0  0.84909  0.38080  0.16687  1.0000
  S   S201      1.0  0.59654  0.45448  0.01088  1.0000
  H   H881      1.0  0.79821  0.29618  0.35000  1.0000
  H   H882      1.0  0.78527  0.32712  0.14160  1.0000
  H   H883      1.0  0.66524  0.47700  0.34705  1.0000
  Fe  Fe102     1.0  0.88711  0.47473  0.42196  1.0000
  H   H884      1.0  0.79456  0.33089  0.00929  1.0000
  H   H885      1.0  0.50003  0.33374  0.31060  1.0000
  Fe  Fe103     1.0  0.84141  0.48365  0.39486  1.0000
  H   H886      1.0  0.68707  0.46202  0.28729  1.0000
  C   C726      1.0  0.95021  0.47314  0.47738  1.0000
  C   C727      1.0  0.67886  0.46958  0.35450  1.0000
  H   H887      1.0  0.79380  0.26803  0.32679  1.0000
  H   H888      1.0  0.97065  0.48601  0.04313  1.0000
  H   H889      1.0  0.75400  0.26529  0.29856  1.0000
  C   C728      1.0  0.50279  0.26763  0.35864  1.0000
  H   H890      1.0  0.77005  0.36312  0.20653  1.0000
  C   C729      1.0  0.78474  0.33968  0.16363  1.0000
  C   C730      1.0  0.78838  0.37367  0.22107  1.0000
  H   H891      1.0  0.85090  0.38532  0.22925  1.0000
  C   C731      1.0  0.85026  0.26661  0.05924  1.0000
  H   H892      1.0  0.60360  0.43761  0.28304  1.0000
  C   C732      1.0  0.61067  0.45521  0.29908  1.0000
  H   H893      1.0  0.77799  0.35249  0.15088  1.0000
  H   H894      1.0  0.75393  0.46777  0.42185  1.0000
  C   C733      1.0  0.78932  0.38972  0.24950  1.0000
  C   C734      1.0  0.81831  0.33596  0.19637  1.0000
  C   C735      1.0  0.76500  0.29886  0.39670  1.0000
  C   C736      1.0  0.63008  0.47073  0.06979  1.0000
  H   H895      1.0  0.52242  0.45565  0.37651  1.0000
  C   C737      1.0  0.74427  0.29065  0.45335  1.0000
  H   H896      1.0  0.62109  0.45054  0.07627  1.0000
  C   C738      1.0  0.50195  0.28828  0.37592  1.0000
  H   H897      1.0  0.77219  0.39091  0.25612  1.0000
  C   C739      1.0  0.53588  0.46545  0.35495  1.0000
  C   C740      1.0  0.97516  0.48802  0.01514  1.0000
  H   H898      1.0  0.66919  0.44870  0.34670  1.0000
  N   N48       1.0  0.81038  0.35472  0.18254  1.0000
  C   C741      1.0  0.81210  0.40395  0.26997  1.0000
  H   H899      1.0  0.65648  0.48295  0.11639  1.0000
  H   H900      1.0  0.94496  0.44444  0.40323  1.0000
  C   C742      1.0  0.81051  0.37142  0.21244  1.0000
  C   C743      1.0  0.81222  0.26278  0.02698  1.0000
  C   C744      1.0  0.75485  0.27203  0.38918  1.0000
  C   C745      1.0  0.83409  0.40221  0.26218  1.0000
  H   H901      1.0  0.79178  0.25384  0.02046  1.0000
  H   H902      1.0  0.75116  0.44048  0.31454  1.0000
  C   C746      1.0  0.74914  0.27064  0.32472  1.0000
  C   C747      1.0  0.63164  0.47807  0.28740  1.0000
  C   C748      1.0  0.62166  0.47834  0.03872  1.0000
  C   C749      1.0  0.75980  0.30794  0.42833  1.0000
  C   C750      1.0  0.78881  0.27488  0.35167  1.0000
  C   C751      1.0  0.82757  0.28588  0.01003  1.0000
  H   H903      1.0  0.53331  0.45921  0.08226  1.0000
  H   H904      1.0  0.55324  0.45702  0.04800  1.0000
  H   H905      1.0  0.77696  0.31314  0.37804  1.0000
  H   H906      1.0  0.72459  0.48443  0.40405  1.0000
  H   H907      1.0  0.52928  0.48237  0.42543  1.0000
  Fe  Fe104     1.0  0.48529  0.36078  0.38247  1.0000
  C   C752      1.0  0.75414  0.45295  0.36936  1.0000
  C   C753      1.0  0.82318  0.25236  0.05211  1.0000
  H   H908      1.0  0.51794  0.27221  0.34014  1.0000
  H   H909      1.0  0.76726  0.44575  0.37750  1.0000
  H   H910      1.0  0.68135  0.47110  0.38419  1.0000
  C   C754      1.0  0.74500  0.44997  0.33387  1.0000
  H   H911      1.0  0.74022  0.29775  0.47784  1.0000
  H   H912      1.0  0.52487  0.45685  0.32919  1.0000
  C   C755      1.0  0.73009  0.47519  0.38364  1.0000
  C   C756      1.0  0.48426  0.24167  0.36466  1.0000
  C   C757      1.0  0.69797  0.48233  0.29756  1.0000
  H   H913      1.0  0.57520  0.47135  0.10244  1.0000
  C   C758      1.0  0.60809  0.47782  0.35154  1.0000
  H   H914      1.0  0.72162  0.25081  0.46629  1.0000
  H   H915      1.0  0.85989  0.26006  0.07833  1.0000
  H   H916      1.0  0.95016  0.47655  0.35814  1.0000
  H   H917      1.0  0.59946  0.47784  0.37658  1.0000
  N   N49       1.0  0.70371  0.48391  0.33682  1.0000
  C   C759      1.0  0.48261  0.28378  0.39945  1.0000
  C   C760      1.0  0.73383  0.26420  0.44678  1.0000
  C   C761      1.0  0.73891  0.25488  0.41518  1.0000
  H   H918      1.0  0.48172  0.29994  0.41210  1.0000
  H   H919      1.0  0.52749  0.23880  0.34729  1.0000
  H   H920      1.0  0.81883  0.29382  0.99148  1.0000
  S   S202      1.0  0.74718  0.24666  0.77913  1.0000
  S   S203      1.0  0.53916  0.43834  0.94363  1.0000
  C   C762      1.0  0.59607  0.41430  0.74678  1.0000
  C   C763      1.0  0.61215  0.44051  0.73838  1.0000
  S   S204      1.0  0.59152  0.44621  0.90539  1.0000
  Fe  Fe105     1.0  0.54904  0.42812  0.89023  1.0000
  S   S205      1.0  0.52823  0.38629  0.86970  1.0000
  Fe  Fe106     1.0  0.58195  0.45986  0.95621  1.0000
  S   S206      1.0  0.55212  0.46334  0.86332  1.0000
  C   C764      1.0  0.57809  0.40745  0.77349  1.0000
  S   S207      1.0  0.83144  0.45746  0.52660  1.0000
  H   H921      1.0  0.84739  0.40089  0.75359  1.0000
  S   S208      1.0  0.88225  0.38180  0.93024  1.0000
  Fe  Fe107     1.0  0.84084  0.41531  0.90803  1.0000
  S   S209      1.0  0.87064  0.41606  0.87221  1.0000
  S   S210      1.0  0.81698  0.43530  0.89184  1.0000
  Fe  Fe108     1.0  0.85399  0.37384  0.88358  1.0000
  S   S211      1.0  0.84945  0.34679  0.83660  1.0000
  Fe  Fe109     1.0  0.89603  0.42405  0.92242  1.0000
  S   S212      1.0  0.93823  0.45540  0.91852  1.0000
  S   S213      1.0  0.82254  0.37231  0.91732  1.0000
  S   S214      1.0  0.86693  0.42562  0.95808  1.0000
  S   S215      1.0  0.52115  0.37332  0.51109  1.0000
  H   H922      1.0  0.79821  0.47833  0.49910  1.0000
  C   C765      1.0  0.50790  0.33920  0.56625  1.0000
  C   C766      1.0  0.50219  0.34289  0.53057  1.0000
  H   H923      1.0  0.49711  0.31339  0.61091  1.0000
  H   H924      1.0  0.52430  0.35457  0.58076  1.0000
  C   C767      1.0  0.96153  0.47462  0.95274  1.0000
  H   H925      1.0  0.60798  0.41311  0.67644  1.0000
  C   C768      1.0  0.61750  0.43449  0.67550  1.0000
  H   H926      1.0  0.80666  0.36306  0.73413  1.0000
  H   H927      1.0  0.78425  0.36979  0.82346  1.0000
  H   H928      1.0  0.89450  0.47725  0.87358  1.0000
  H   H929      1.0  0.56191  0.42103  0.81361  1.0000
  H   H930      1.0  0.84871  0.38731  0.79531  1.0000
  C   C769      1.0  0.84024  0.46367  0.83163  1.0000
  C   C770      1.0  0.82018  0.45586  0.85532  1.0000
  C   C771      1.0  0.80211  0.46485  0.85028  1.0000
  C   C772      1.0  0.48307  0.36829  0.77705  1.0000
  C   C773      1.0  0.89264  0.48116  0.90220  1.0000
  H   H931      1.0  0.88065  0.46607  0.51728  1.0000
  H   H932      1.0  0.63301  0.48346  0.69550  1.0000
  H   H933      1.0  0.85421  0.45690  0.83486  1.0000
  H   H934      1.0  0.87171  0.47244  0.90708  1.0000
  H   H935      1.0  0.81325  0.36812  0.83230  1.0000
  C   C774      1.0  0.77612  0.27412  0.79472  1.0000
  C   C775      1.0  0.77504  0.28896  0.82364  1.0000
  C   C776      1.0  0.79735  0.31094  0.83721  1.0000
  C   C777      1.0  0.82103  0.31848  0.82178  1.0000
  C   C778      1.0  0.82211  0.30376  0.79273  1.0000
  C   C779      1.0  0.79981  0.28162  0.77932  1.0000
  H   H936      1.0  0.75681  0.28341  0.83565  1.0000
  H   H937      1.0  0.79620  0.32205  0.85954  1.0000
  H   H938      1.0  0.84033  0.30949  0.78052  1.0000
  H   H939      1.0  0.80092  0.27046  0.75702  1.0000
  H   H940      1.0  0.78648  0.45895  0.86834  1.0000
  H   H941      1.0  0.90029  0.47053  0.91863  1.0000
  C   C780      1.0  0.48481  0.42407  0.88147  1.0000
  C   C781      1.0  0.67021  0.47960  0.80799  1.0000
  C   C782      1.0  0.50838  0.37013  0.83100  1.0000
  H   H942      1.0  0.48241  0.43708  0.86222  1.0000
  C   C783      1.0  0.90190  0.47762  0.52135  1.0000
  H   H943      1.0  0.48496  0.37269  0.57073  1.0000
  C   C784      1.0  0.49250  0.31589  0.58343  1.0000
  H   H944      1.0  0.67014  0.46126  0.80821  1.0000
  H   H945      1.0  0.64076  0.41684  0.72140  1.0000
  C   C785      1.0  0.81480  0.47190  0.54762  1.0000
  C   C786      1.0  0.80254  0.40266  0.76582  1.0000
  C   C787      1.0  0.57568  0.42642  0.79270  1.0000
  H   H946      1.0  0.49319  0.41033  0.53638  1.0000
  H   H947      1.0  0.49507  0.43601  0.90584  1.0000
  H   H948      1.0  0.65745  0.48612  0.72834  1.0000
  H   H949      1.0  0.67428  0.46069  0.97170  1.0000
  N   N50       1.0  0.81212  0.38596  0.78246  1.0000
  H   H950      1.0  0.62077  0.47984  0.75479  1.0000
  H   H951      1.0  0.77953  0.35085  0.76227  1.0000
  H   H952      1.0  0.81909  0.40410  0.71400  1.0000
  H   H953      1.0  0.78038  0.44917  0.72097  1.0000
  H   H954      1.0  0.58953  0.46710  0.80057  1.0000
  N   N51       1.0  0.63106  0.44722  0.70998  1.0000
  C   C788      1.0  0.80548  0.38041  0.82051  1.0000
  C   C789      1.0  0.59115  0.45230  0.78521  1.0000
  C   C790      1.0  0.60914  0.45939  0.75851  1.0000
  H   H955      1.0  0.48442  0.37040  0.66295  1.0000
  C   C791      1.0  0.95588  0.47263  0.98898  1.0000
  C   C792      1.0  0.48649  0.47108  0.98215  1.0000
  C   C793      1.0  0.80020  0.42701  0.71398  1.0000
  C   C794      1.0  0.49989  0.38247  0.80631  1.0000
  H   H956      1.0  0.68700  0.45620  0.91636  1.0000
  H   H957      1.0  0.84964  0.41819  0.79449  1.0000
  H   H958      1.0  0.78261  0.40718  0.81182  1.0000
  Fe  Fe110     1.0  0.85165  0.38263  0.96396  1.0000
  H   H959      1.0  0.90951  0.48611  0.49515  1.0000
  C   C795      1.0  0.64989  0.43815  0.71982  1.0000
  C   C796      1.0  0.96997  0.47275  0.49948  1.0000
  H   H960      1.0  0.49789  0.41794  0.86886  1.0000
  H   H961      1.0  0.81379  0.39844  0.83737  1.0000
  H   H962      1.0  0.76874  0.43521  0.78276  1.0000
  C   C797      1.0  0.50031  0.34372  0.82562  1.0000
  H   H963      1.0  0.80757  0.34773  0.77458  1.0000
  C   C798      1.0  0.48480  0.48496  0.50384  1.0000
  H   H964      1.0  0.85840  0.48704  0.78630  1.0000
  H   H965      1.0  0.80510  0.43313  0.68675  1.0000
  H   H966      1.0  0.63103  0.43997  0.65321  1.0000
  C   C799      1.0  0.66072  0.46678  0.95927  1.0000
  C   C800      1.0  0.48007  0.40505  0.55821  1.0000
  H   H967      1.0  0.96521  0.45702  0.51753  1.0000
  H   H968      1.0  0.63760  0.46675  0.84189  1.0000
  C   C801      1.0  0.80099  0.36089  0.76243  1.0000
  H   H969      1.0  0.59736  0.39886  0.73290  1.0000
  H   H970      1.0  0.56597  0.38732  0.77957  1.0000
  C   C802      1.0  0.78774  0.41181  0.78436  1.0000
  C   C803      1.0  0.65179  0.48270  0.82739  1.0000
  C   C804      1.0  0.84065  0.39867  0.78132  1.0000
  Fe  Fe111     1.0  0.54457  0.47468  0.91791  1.0000
  H   H971      1.0  0.50610  0.40282  0.80981  1.0000
  C   C805      1.0  0.80353  0.48586  0.60310  1.0000
  H   H972      1.0  0.50677  0.33396  0.84449  1.0000
  C   C806      1.0  0.48114  0.32272  0.51195  1.0000
  C   C807      1.0  0.80820  0.41050  0.72992  1.0000
  C   C808      1.0  0.78610  0.43594  0.73308  1.0000
  C   C809      1.0  0.84249  0.48070  0.80393  1.0000
  C   C810      1.0  0.79981  0.48040  0.52801  1.0000
  C   C811      1.0  0.77961  0.42807  0.76797  1.0000
  H   H973      1.0  0.60233  0.43991  0.66801  1.0000
  H   H974      1.0  0.65969  0.44645  0.74634  1.0000
  H   H975      1.0  0.49065  0.35681  0.62387  1.0000
  C   C812      1.0  0.48383  0.32965  0.79613  1.0000
  H   H976      1.0  0.97795  0.39864  0.96433  1.0000
  C   C813      1.0  0.81657  0.47470  0.58522  1.0000
  H   H977      1.0  0.66537  0.44411  0.70019  1.0000
  C   C814      1.0  0.64589  0.47537  0.70390  1.0000
  Fe  Fe112     1.0  0.59418  0.48220  0.88180  1.0000
  H   H978      1.0  0.64755  0.46557  0.98070  1.0000
  H   H979      1.0  0.89951  0.46851  0.58995  1.0000
  H   H980      1.0  0.71556  0.46193  0.86819  1.0000
  H   H981      1.0  0.49392  0.48786  0.53031  1.0000
  H   H982      1.0  0.87460  0.47609  0.57885  1.0000
  C   C815      1.0  0.69622  0.47491  0.90450  1.0000
  H   H983      1.0  0.90934  0.46397  0.52794  1.0000
  H   H984      1.0  0.82797  0.46804  0.60067  1.0000
  C   C816      1.0  0.80414  0.48158  0.82223  1.0000
  H   H985      1.0  0.49524  0.45874  0.98506  1.0000
  C   C817      1.0  0.71273  0.47794  0.87684  1.0000
  H   H986      1.0  0.64841  0.45243  0.93795  1.0000
  C   C818      1.0  0.89596  0.48483  0.58275  1.0000
  H   H987      1.0  0.66008  0.47984  0.68266  1.0000
  C   C819      1.0  0.49343  0.48841  0.95412  1.0000
  H   H988      1.0  0.80501  0.48783  0.63202  1.0000
  S   S216      1.0  0.85084  0.70198  0.10209  1.0000
  Fe  Fe113     1.0  0.73696  0.52667  0.22222  1.0000
  S   S217      1.0  0.73849  0.55578  0.26223  1.0000
  H   H989      1.0  0.62274  0.54413  0.42634  1.0000
  Fe  Fe114     1.0  0.70341  0.53832  0.16803  1.0000
  S   S218      1.0  0.70282  0.56781  0.20619  1.0000
  C   C820      1.0  0.78309  0.70148  0.07374  1.0000
  Fe  Fe115     1.0  0.74548  0.58192  0.21508  1.0000
  S   S219      1.0  0.77700  0.62465  0.21879  1.0000
  Fe  Fe116     1.0  0.69570  0.53851  0.24892  1.0000
  S   S220      1.0  0.66819  0.53030  0.29512  1.0000
  S   S221      1.0  0.74635  0.55351  0.17578  1.0000
  H   H990      1.0  0.50293  0.63496  0.12235  1.0000
  H   H991      1.0  0.48912  0.63301  0.44455  1.0000
  C   C821      1.0  0.50364  0.73047  0.11189  1.0000
  Fe  Fe117     1.0  0.51781  0.70650  0.21448  1.0000
  S   S222      1.0  0.51141  0.67624  0.17120  1.0000
  Fe  Fe118     1.0  0.51644  0.71545  0.29496  1.0000
  H   H992      1.0  0.59940  0.52870  0.36913  1.0000
  S   S223      1.0  0.54574  0.71282  0.26072  1.0000
  H   H993      1.0  0.79791  0.58782  0.21383  1.0000
  H   H994      1.0  0.50280  0.62127  0.33725  1.0000
  S   S224      1.0  0.69385  0.50820  0.21028  1.0000
  C   C822      1.0  0.54957  0.49603  0.42445  1.0000
  C   C823      1.0  0.82901  0.59810  0.27252  1.0000
  C   C824      1.0  0.78814  0.48926  0.27616  1.0000
  H   H995      1.0  0.73522  0.52262  0.33725  1.0000
  H   H996      1.0  0.58886  0.54592  0.06330  1.0000
  C   C825      1.0  0.48229  0.68964  0.47501  1.0000
  H   H997      1.0  0.53137  0.52060  0.35915  1.0000
  C   C826      1.0  0.51344  0.64139  0.27610  1.0000
  H   H998      1.0  0.71596  0.49258  0.28265  1.0000
  H   H999      1.0  0.74979  0.70096  0.02802  1.0000
  C   C827      1.0  0.58974  0.52261  0.45777  1.0000
  C   C828      1.0  0.83853  0.56654  0.24646  1.0000
  H   H1000     1.0  0.85776  0.57480  0.26080  1.0000
  H   H1001     1.0  0.63653  0.51819  0.35623  1.0000
  C   C829      1.0  0.77662  0.50529  0.27337  1.0000
  C   C830      1.0  0.79660  0.52452  0.33174  1.0000
  C   C831      1.0  0.78088  0.52289  0.30144  1.0000
  H   H1002     1.0  0.79997  0.53836  0.35315  1.0000
  H   H1003     1.0  0.77240  0.53551  0.29959  1.0000
  C   C832      1.0  0.82958  0.68127  0.13464  1.0000
  C   C833      1.0  0.82846  0.68997  0.16919  1.0000
  C   C834      1.0  0.81200  0.67250  0.19423  1.0000
  C   C835      1.0  0.79609  0.64615  0.18514  1.0000
  C   C836      1.0  0.79692  0.63757  0.15041  1.0000
  C   C837      1.0  0.81355  0.65497  0.12549  1.0000
  H   H1004     1.0  0.84063  0.71004  0.17688  1.0000
  H   H1005     1.0  0.81170  0.67944  0.22100  1.0000
  H   H1006     1.0  0.78502  0.61742  0.14287  1.0000
  H   H1007     1.0  0.81419  0.64788  0.09897  1.0000
  H   H1008     1.0  0.81648  0.58290  0.29100  1.0000
  C   C838      1.0  0.80552  0.57412  0.21910  1.0000
  C   C839      1.0  0.48421  0.63146  0.13070  1.0000
  H   H1009     1.0  0.84827  0.60961  0.28640  1.0000
  H   H1010     1.0  0.57767  0.49444  0.01015  1.0000
  C   C840      1.0  0.60223  0.53076  0.42573  1.0000
  H   H1011     1.0  0.50813  0.73224  0.08305  1.0000
  H   H1012     1.0  0.52373  0.65365  0.25332  1.0000
  C   C841      1.0  0.65346  0.52275  0.05334  1.0000
  C   C842      1.0  0.56158  0.50402  0.39126  1.0000
  C   C843      1.0  0.53653  0.50389  0.06150  1.0000
  H   H1013     1.0  0.66240  0.54297  0.04701  1.0000
  H   H1014     1.0  0.51300  0.49284  0.32974  1.0000
  S   S225      1.0  0.82853  0.51208  0.37287  1.0000
  C   C844      1.0  0.57770  0.50650  0.07886  1.0000
  C   C845      1.0  0.48208  0.63982  0.42225  1.0000
  H   H1015     1.0  0.54475  0.52490  0.05718  1.0000
  H   H1016     1.0  0.52229  0.62880  0.28176  1.0000
  H   H1017     1.0  0.78136  0.69199  0.04719  1.0000
  S   S226      1.0  0.86771  0.49617  0.44473  1.0000
  H   H1018     1.0  0.83257  0.73253  0.07012  1.0000
  C   C846      1.0  0.58847  0.52172  0.39286  1.0000
  H   H1019     1.0  0.48345  0.73683  0.16971  1.0000
  H   H1020     1.0  0.48593  0.65764  0.23906  1.0000
  C   C847      1.0  0.66192  0.51516  0.08443  1.0000
  H   H1021     1.0  0.60046  0.52966  0.48318  1.0000
  H   H1022     1.0  0.62703  0.56660  0.10393  1.0000
  H   H1023     1.0  0.62693  0.51068  0.00709  1.0000
  C   C848      1.0  0.56345  0.50527  0.45711  1.0000
  C   C849      1.0  0.60695  0.50449  0.12568  1.0000
  N   N52       1.0  0.79508  0.72999  0.07128  1.0000
  C   C850      1.0  0.71571  0.51155  0.34810  1.0000
  S   S227      1.0  0.51410  0.69562  0.34834  1.0000
  C   C851      1.0  0.49957  0.66027  0.40176  1.0000
  C   C852      1.0  0.80361  0.49066  0.30670  1.0000
  H   H1024     1.0  0.76375  0.69324  0.08535  1.0000
  H   H1025     1.0  0.71769  0.51450  0.37763  1.0000
  C   C853      1.0  0.62918  0.50068  0.33995  1.0000
  C   C854      1.0  0.84974  0.60736  0.21541  1.0000
  C   C855      1.0  0.84626  0.62891  0.20686  1.0000
  C   C856      1.0  0.87109  0.60638  0.20044  1.0000
  C   C857      1.0  0.86303  0.64824  0.18487  1.0000
  C   C858      1.0  0.88778  0.62588  0.17845  1.0000
  C   C859      1.0  0.88371  0.64673  0.17063  1.0000
  H   H1026     1.0  0.83025  0.63080  0.21673  1.0000
  H   H1027     1.0  0.87525  0.59070  0.20508  1.0000
  H   H1028     1.0  0.85978  0.66438  0.17849  1.0000
  H   H1029     1.0  0.90387  0.62474  0.16715  1.0000
  H   H1030     1.0  0.89649  0.66169  0.15330  1.0000
  H   H1031     1.0  0.53067  0.50034  0.08977  1.0000
  H   H1032     1.0  0.79099  0.55834  0.23498  1.0000
  C   C860      1.0  0.95586  0.49340  0.45400  1.0000
  H   H1033     1.0  0.68581  0.49145  0.29030  1.0000
  H   H1034     1.0  0.52000  0.66925  0.40885  1.0000
  N   N53       1.0  0.83122  0.58682  0.23800  1.0000
  H   H1035     1.0  0.82010  0.61088  0.26896  1.0000
  C   C861      1.0  0.75732  0.72159  0.02808  1.0000
  H   H1036     1.0  0.81802  0.73182  0.02689  1.0000
  H   H1037     1.0  0.55368  0.49883  0.48201  1.0000
  H   H1038     1.0  0.83849  0.55572  0.22189  1.0000
  H   H1039     1.0  0.57736  0.49962  0.32309  1.0000
  H   H1040     1.0  0.82462  0.55176  0.26416  1.0000
  H   H1041     1.0  0.70398  0.52067  0.33839  1.0000
  H   H1042     1.0  0.63921  0.54056  0.14363  1.0000
  S   S228      1.0  0.75756  0.50296  0.23411  1.0000
  H   H1043     1.0  0.51125  0.71837  0.12489  1.0000
  C   C862      1.0  0.80798  0.50836  0.33469  1.0000
  H   H1044     1.0  0.80618  0.56553  0.19277  1.0000
  N   N54       1.0  0.54632  0.49378  0.35708  1.0000
  H   H1045     1.0  0.56970  0.52592  0.32434  1.0000
  S   S229      1.0  0.48761  0.70712  0.24870  1.0000
  S   S230      1.0  0.68729  0.53917  0.11178  1.0000
  H   H1046     1.0  0.51764  0.65495  0.29943  1.0000
  C   C863      1.0  0.49094  0.66914  0.37214  1.0000
  C   C864      1.0  0.56144  0.50459  0.32475  1.0000
  H   H1047     1.0  0.80993  0.73333  0.12591  1.0000
  H   H1048     1.0  0.57203  0.52172  0.01162  1.0000
  H   H1049     1.0  0.79504  0.69565  0.09125  1.0000
  C   C865      1.0  0.48254  0.64882  0.15512  1.0000
  C   C866      1.0  0.64111  0.50101  0.30780  1.0000
  C   C867      1.0  0.61506  0.54583  0.10370  1.0000
  C   C868      1.0  0.56318  0.50071  0.01638  1.0000
  H   H1050     1.0  0.49382  0.62268  0.21267  1.0000
  C   C869      1.0  0.52444  0.49954  0.35560  1.0000
  C   C870      1.0  0.62188  0.53122  0.12628  1.0000
  H   H1051     1.0  0.50168  0.69393  0.46603  1.0000
  C   C871      1.0  0.63336  0.50448  0.03065  1.0000
  C   C872      1.0  0.48262  0.60869  0.33062  1.0000
  C   C873      1.0  0.59326  0.53375  0.08042  1.0000
  H   H1052     1.0  0.61280  0.49322  0.14270  1.0000
  S   S231      1.0  0.93171  0.49524  0.42557  1.0000
  N   N55       1.0  0.55489  0.49421  0.05359  1.0000
  H   H1053     1.0  0.51867  0.49437  0.04390  1.0000
  H   H1054     1.0  0.67799  0.50906  0.99842  1.0000
  C   C874      1.0  0.74438  0.73082  0.00534  1.0000
  H   H1055     1.0  0.84168  0.57518  0.47289  1.0000
  H   H1056     1.0  0.49127  0.68722  0.08150  1.0000
  H   H1057     1.0  0.78083  0.73594  0.12074  1.0000
  C   C875      1.0  0.48171  0.61051  0.23436  1.0000
  H   H1058     1.0  0.54929  0.49660  0.29962  1.0000
  H   H1059     1.0  0.48036  0.70739  0.47209  1.0000
  H   H1060     1.0  0.48701  0.59503  0.23921  1.0000
  N   N56       1.0  0.48525  0.62595  0.26768  1.0000
  C   C876      1.0  0.65013  0.48904  0.09259  1.0000
  H   H1061     1.0  0.51047  0.48967  0.37674  1.0000
  C   C877      1.0  0.58528  0.49215  0.10222  1.0000
  H   H1062     1.0  0.54668  0.49119  0.99636  1.0000
  C   C878      1.0  0.48598  0.65769  0.62642  1.0000
  N   N57       1.0  0.67460  0.49319  0.94501  1.0000
  S   S232      1.0  0.80742  0.69932  0.59761  1.0000
  Fe  Fe119     1.0  0.74695  0.51901  0.73284  1.0000
  S   S233      1.0  0.78418  0.54879  0.76053  1.0000
  S   S234      1.0  0.82941  0.51275  0.76515  1.0000
  Fe  Fe120     1.0  0.77481  0.51931  0.66395  1.0000
  S   S235      1.0  0.81314  0.54827  0.68830  1.0000
  H   H1063     1.0  0.66995  0.54493  0.80772  1.0000
  Fe  Fe121     1.0  0.80123  0.52481  0.73838  1.0000
  H   H1064     1.0  0.84330  0.63153  0.56156  1.0000
  Fe  Fe122     1.0  0.79238  0.56950  0.70733  1.0000
  S   S236      1.0  0.81320  0.61382  0.69920  1.0000
  H   H1065     1.0  0.90943  0.56366  0.81823  1.0000
  S   S237      1.0  0.75405  0.54099  0.68135  1.0000
  H   H1066     1.0  0.79549  0.58842  0.62356  1.0000
  N   N58       1.0  0.82642  0.59535  0.58873  1.0000
  C   C879      1.0  0.85891  0.52854  0.86973  1.0000
  C   C880      1.0  0.83650  0.55960  0.57376  1.0000
  C   C881      1.0  0.48173  0.69865  0.66065  1.0000
  C   C882      1.0  0.50391  0.69608  0.66653  1.0000
  C   C883      1.0  0.50589  0.67561  0.64972  1.0000
  N   N59       1.0  0.47837  0.68074  0.51240  1.0000
  H   H1067     1.0  0.51928  0.70953  0.68460  1.0000
  H   H1068     1.0  0.52295  0.67358  0.65499  1.0000
  H   H1069     1.0  0.84315  0.61816  0.63754  1.0000
  H   H1070     1.0  0.94097  0.49392  0.60532  1.0000
  H   H1071     1.0  0.73093  0.53993  0.85626  1.0000
  C   C884      1.0  0.83493  0.58589  0.52529  1.0000
  H   H1072     1.0  0.80886  0.61140  0.55243  1.0000
  H   H1073     1.0  0.86415  0.55333  0.82543  1.0000
  H   H1074     1.0  0.84648  0.58998  0.63494  1.0000
  H   H1075     1.0  0.91292  0.50448  0.96731  1.0000
  C   C885      1.0  0.48120  0.50377  0.95033  1.0000
  C   C886      1.0  0.80976  0.67587  0.62582  1.0000
  C   C887      1.0  0.83146  0.68156  0.64822  1.0000
  C   C888      1.0  0.83199  0.66245  0.67047  1.0000
  C   C889      1.0  0.81102  0.63720  0.67065  1.0000
  C   C890      1.0  0.78934  0.63151  0.64819  1.0000
  C   C891      1.0  0.78877  0.65065  0.62604  1.0000
  H   H1076     1.0  0.84788  0.70070  0.64848  1.0000
  H   H1077     1.0  0.84892  0.66726  0.68762  1.0000
  H   H1078     1.0  0.77286  0.61241  0.64807  1.0000
  H   H1079     1.0  0.77179  0.64587  0.60904  1.0000
  H   H1080     1.0  0.49780  0.69511  0.56414  1.0000
  H   H1081     1.0  0.70275  0.53567  0.90486  1.0000
  C   C892      1.0  0.90996  0.53970  0.86130  1.0000
  C   C893      1.0  0.67006  0.52665  0.80806  1.0000
  H   H1082     1.0  0.83887  0.52369  0.87220  1.0000
  H   H1083     1.0  0.78299  0.71462  0.65434  1.0000
  C   C894      1.0  0.49952  0.70085  0.53557  1.0000
  H   H1084     1.0  0.75421  0.73152  0.80322  1.0000
  C   C895      1.0  0.82481  0.61768  0.57324  1.0000
  C   C896      1.0  0.68862  0.52360  0.78884  1.0000
  H   H1085     1.0  0.83211  0.60117  0.51402  1.0000
  S   S238      1.0  0.77082  0.50754  0.60477  1.0000
  C   C897      1.0  0.69002  0.51100  0.97518  1.0000
  H   H1086     1.0  0.76100  0.71061  0.68828  1.0000
  C   C898      1.0  0.84640  0.60553  0.61845  1.0000
  H   H1087     1.0  0.78557  0.56951  0.58222  1.0000
  H   H1088     1.0  0.94223  0.50830  0.92461  1.0000
  C   C899      1.0  0.93780  0.51132  0.55485  1.0000
  C   C900      1.0  0.84050  0.57111  0.50123  1.0000
  H   H1089     1.0  0.77866  0.68866  0.72682  1.0000
  H   H1090     1.0  0.94478  0.53097  0.50381  1.0000
  C   C901      1.0  0.83277  0.58054  0.56246  1.0000
  H   H1091     1.0  0.70252  0.53938  0.77374  1.0000
  H   H1092     1.0  0.82074  0.62878  0.59394  1.0000
  H   H1093     1.0  0.81262  0.70383  0.73833  1.0000
  H   H1094     1.0  0.90522  0.52326  0.51192  1.0000
  C   C902      1.0  0.95100  0.50693  0.58435  1.0000
  C   C903      1.0  0.84420  0.55081  0.51333  1.0000
  C   C904      1.0  0.78076  0.72353  0.67952  1.0000
  C   C905      1.0  0.89965  0.51583  0.53921  1.0000
  H   H1095     1.0  0.69903  0.53156  0.96760  1.0000
  C   C906      1.0  0.80112  0.57811  0.60367  1.0000
  H   H1096     1.0  0.80123  0.56175  0.61787  1.0000
  H   H1097     1.0  0.50061  0.66050  0.50852  1.0000
  C   C907      1.0  0.86990  0.51700  0.89167  1.0000
  S   S239      1.0  0.51690  0.49153  0.92284  1.0000
  H   H1098     1.0  0.91252  0.53402  0.95677  1.0000
  H   H1099     1.0  0.49981  0.71979  0.53385  1.0000
  C   C908      1.0  0.89861  0.55088  0.83919  1.0000
  C   C909      1.0  0.93459  0.51816  0.90632  1.0000
  H   H1100     1.0  0.86601  0.61706  0.60811  1.0000
  H   H1101     1.0  0.90692  0.53257  0.55840  1.0000
  H   H1102     1.0  0.87817  0.50630  0.53803  1.0000
  C   C910      1.0  0.89585  0.52233  0.88831  1.0000
  H   H1103     1.0  0.51881  0.70410  0.52761  1.0000
  C   C911      1.0  0.79803  0.70181  0.71706  1.0000
  S   S240      1.0  0.62753  0.51069  0.84916  1.0000
  N   N60       1.0  0.90671  0.50913  0.91109  1.0000
  H   H1104     1.0  0.90192  0.49879  0.60586  1.0000
  C   C912      1.0  0.65136  0.50617  0.82711  1.0000
  N   N61       1.0  0.90932  0.49767  0.54996  1.0000
  H   H1105     1.0  0.84474  0.52909  0.55884  1.0000
  C   C913      1.0  0.95328  0.52802  0.52824  1.0000
  C   C914      1.0  0.78814  0.49392  0.58354  1.0000
  N   N62       1.0  0.80096  0.72736  0.70728  1.0000
  H   H1106     1.0  0.94639  0.53922  0.91223  1.0000
  H   H1107     1.0  0.48633  0.51724  0.92877  1.0000
  C   C915      1.0  0.84243  0.54524  0.54957  1.0000
  H   H1108     1.0  0.70579  0.50703  0.98489  1.0000
  S   S241      1.0  0.70937  0.49374  0.76119  1.0000
  H   H1109     1.0  0.92964  0.54467  0.85630  1.0000
  S   S242      1.0  0.48921  0.63173  0.60698  1.0000
  H   H1110     1.0  0.80051  0.69155  0.69366  1.0000
  C   C916      1.0  0.77511  0.72882  0.75855  1.0000
  H   H1111     1.0  0.85756  0.50315  0.91048  1.0000
  C   C917      1.0  0.87314  0.54526  0.84334  1.0000
  H   H1112     1.0  0.82796  0.73129  0.66700  1.0000
  H   H1113     1.0  0.75939  0.71021  0.75017  1.0000
  C   C918      1.0  0.65480  0.50017  0.93185  1.0000
  H   H1114     1.0  0.83416  0.55369  0.60131  1.0000
  H   H1115     1.0  0.93818  0.51363  0.87880  1.0000
  C   C919      1.0  0.48091  0.65697  0.51469  1.0000
  S   S243      1.0  0.58700  0.49701  0.93375  1.0000
  C   C920      1.0  0.82450  0.48982  0.79899  1.0000
  S   S244      1.0  0.76409  0.49459  0.71232  1.0000
  H   H1116     1.0  0.88310  0.50382  0.95665  1.0000
  C   C921      1.0  0.68862  0.49992  0.78835  1.0000
  H   H1117     1.0  0.77456  0.49733  0.53057  1.0000
  C   C922      1.0  0.90365  0.51311  0.94954  1.0000
  C   C923      1.0  0.70515  0.51917  0.89789  1.0000
  C   C924      1.0  0.72153  0.52192  0.87024  1.0000
  H   H1118     1.0  0.66302  0.52083  0.92517  1.0000
  C   C925      1.0  0.69184  0.49553  0.91579  1.0000
  H   H1119     1.0  0.73755  0.50340  0.83767  1.0000
  C   C926      1.0  0.97796  0.51885  0.58700  1.0000
  C   C927      1.0  0.78636  0.49111  0.54594  1.0000
  C   C928      1.0  0.72531  0.50136  0.85974  1.0000
  H   H1120     1.0  0.64010  0.49650  0.95202  1.0000
  H   H1121     1.0  0.72777  0.71748  0.98880  1.0000
  H   H1122     1.0  0.84799  0.53907  0.49450  1.0000
  H   H1123     1.0  0.79024  0.48851  0.81904  1.0000
  H   H1124     1.0  0.64454  0.48880  0.90708  1.0000
  C   C929      1.0  0.96601  0.82054  0.35118  1.0000
  S   S245      1.0  0.87406  0.77755  0.12050  1.0000
  Fe  Fe123     1.0  0.92783  0.78423  0.05693  1.0000
  S   S246      1.0  0.92449  0.81802  0.07772  1.0000
  H   H1125     1.0  0.97293  0.81711  0.12859  1.0000
  Fe  Fe124     1.0  0.91731  0.79833  0.13061  1.0000
  S   S247      1.0  0.93751  0.82459  0.17945  1.0000
  Fe  Fe125     1.0  0.88191  0.79420  0.06536  1.0000
  S   S248      1.0  0.86183  0.81586  0.04173  1.0000
  C   C930      1.0  0.83440  0.82922  0.99356  1.0000
  S   S249      1.0  0.88546  0.76121  0.04105  1.0000
  H   H1126     1.0  0.75403  0.76106  0.46480  1.0000
  Fe  Fe126     1.0  0.77487  0.94406  0.39825  1.0000
  S   S250      1.0  0.80472  0.94088  0.36581  1.0000
  C   C931      1.0  0.48893  0.79098  0.18677  1.0000
  Fe  Fe127     1.0  0.73015  0.89338  0.36401  1.0000
  S   S251      1.0  0.75757  0.88745  0.33004  1.0000
  S   S252      1.0  0.68670  0.86514  0.36651  1.0000
  Fe  Fe128     1.0  0.78367  0.89855  0.38011  1.0000
  S   S253      1.0  0.80456  0.87552  0.39652  1.0000
  Fe  Fe129     1.0  0.77570  0.93008  0.31905  1.0000
  S   S254      1.0  0.77770  0.94247  0.26045  1.0000
  S   S255      1.0  0.75543  0.90252  0.41477  1.0000
  S   S256      1.0  0.74681  0.93526  0.35093  1.0000
  Fe  Fe130     1.0  0.56203  0.75545  0.25332  1.0000
  S   S257      1.0  0.53429  0.75879  0.28986  1.0000
  S   S258      1.0  0.60531  0.78364  0.25048  1.0000
  C   C932      1.0  0.79945  0.74085  0.10843  1.0000
  H   H1127     1.0  0.95673  0.78742  0.18773  1.0000
  S   S259      1.0  0.78160  0.97850  0.43428  1.0000
  C   C933      1.0  0.66451  0.84251  0.33381  1.0000
  C   C934      1.0  0.67196  0.83920  0.29987  1.0000
  C   C935      1.0  0.65365  0.82093  0.27495  1.0000
  C   C936      1.0  0.62770  0.80568  0.28355  1.0000
  C   C937      1.0  0.62025  0.80900  0.31748  1.0000
  C   C938      1.0  0.63856  0.82726  0.34240  1.0000
  H   H1128     1.0  0.69177  0.85086  0.29270  1.0000
  H   H1129     1.0  0.65964  0.81870  0.24872  1.0000
  H   H1130     1.0  0.60042  0.79747  0.32460  1.0000
  H   H1131     1.0  0.63257  0.82961  0.36858  1.0000
  C   C939      1.0  0.81736  0.82933  0.46637  1.0000
  C   C940      1.0  0.84146  0.81034  0.00286  1.0000
  H   H1132     1.0  0.87617  0.79013  0.38612  1.0000
  H   H1133     1.0  0.49228  0.97248  0.42784  1.0000
  H   H1134     1.0  0.87509  0.77044  0.44468  1.0000
  H   H1135     1.0  0.69205  0.80452  0.33387  1.0000
  H   H1136     1.0  0.93077  0.78369  0.30755  1.0000
  C   C941      1.0  0.50992  0.79959  0.16460  1.0000
  C   C942      1.0  0.51241  0.81642  0.13650  1.0000
  C   C943      1.0  0.73281  0.79689  0.39410  1.0000
  H   H1137     1.0  0.52463  0.79398  0.16970  1.0000
  H   H1138     1.0  0.52919  0.82372  0.12038  1.0000
  H   H1139     1.0  0.94491  0.83867  0.46252  1.0000
  C   C944      1.0  0.81940  0.84606  0.43832  1.0000
  C   C945      1.0  0.80155  0.85536  0.43351  1.0000
  C   C946      1.0  0.78164  0.84776  0.45743  1.0000
  H   H1140     1.0  0.78189  0.78293  0.41489  1.0000
  H   H1141     1.0  0.83491  0.85178  0.42008  1.0000
  H   H1142     1.0  0.76788  0.85485  0.45458  1.0000
  C   C947      1.0  0.85004  0.97758  0.09194  1.0000
  C   C948      1.0  0.82335  0.92379  0.06402  1.0000
  H   H1143     1.0  0.85445  0.98451  0.06412  1.0000
  C   C949      1.0  0.82513  0.98525  0.24780  1.0000
  H   H1144     1.0  0.97048  0.84296  0.01973  1.0000
  C   C950      1.0  0.78759  0.76555  0.04674  1.0000
  C   C951      1.0  0.94402  0.77829  0.32252  1.0000
  H   H1145     1.0  0.77002  0.80603  0.37148  1.0000
  H   H1146     1.0  0.74621  0.84723  0.39781  1.0000
  S   S260      1.0  0.53691  0.74892  0.20315  1.0000
  H   H1147     1.0  0.76149  0.83542  0.34550  1.0000
  C   C952      1.0  0.96015  0.82268  0.20999  1.0000
  C   C953      1.0  0.97380  0.78662  0.37246  1.0000
  H   H1148     1.0  0.81154  0.76218  0.10973  1.0000
  N   N63       1.0  0.82184  0.96097  0.09534  1.0000
  H   H1149     1.0  0.79630  0.93794  0.13574  1.0000
  C   C954      1.0  0.49380  0.82455  0.12974  1.0000
  C   C955      1.0  0.76354  0.78279  0.41663  1.0000
  C   C956      1.0  0.81152  0.93966  0.06805  1.0000
  C   C957      1.0  0.78947  0.93371  0.04522  1.0000
  H   H1150     1.0  0.96790  0.85772  0.23849  1.0000
  C   C958      1.0  0.75306  0.75722  0.00313  1.0000
  H   H1151     1.0  0.83957  0.92646  0.08122  1.0000
  N   N64       1.0  0.95356  0.79244  0.35746  1.0000
  C   C959      1.0  0.78994  0.97655  0.20539  1.0000
  H   H1152     1.0  0.82521  0.96548  0.15297  1.0000
  C   C960      1.0  0.69790  0.79461  0.35465  1.0000
  H   H1153     1.0  0.94465  0.76871  0.42481  1.0000
  H   H1154     1.0  0.83125  0.82238  0.46953  1.0000
  C   C961      1.0  0.77444  0.77451  0.02409  1.0000
  C   C962      1.0  0.81464  0.90430  0.03742  1.0000
  S   S261      1.0  0.96036  0.78914  0.02092  1.0000
  H   H1155     1.0  0.84188  0.84684  0.00964  1.0000
  H   H1156     1.0  0.60115  0.87825  0.18819  1.0000
  H   H1157     1.0  0.78903  0.96772  0.09857  1.0000
  H   H1158     1.0  0.69985  0.78511  0.42791  1.0000
  C   C963      1.0  0.48926  0.98097  0.45175  1.0000
  H   H1159     1.0  0.76451  0.91036  0.00100  1.0000
  H   H1160     1.0  0.96017  0.78244  0.30460  1.0000
  C   C964      1.0  0.95168  0.82654  0.47545  1.0000
  N   N65       1.0  0.57936  0.84380  0.24453  1.0000
  C   C965      1.0  0.56501  0.81552  0.23789  1.0000
  C   C966      1.0  0.60699  0.85243  0.23839  1.0000
  C   C967      1.0  0.57751  0.84939  0.28281  1.0000
  C   C968      1.0  0.56788  0.85620  0.22126  1.0000
  C   C969      1.0  0.58147  0.87312  0.19353  1.0000
  C   C970      1.0  0.54195  0.85075  0.22520  1.0000
  C   C971      1.0  0.56959  0.88365  0.17117  1.0000
  C   C972      1.0  0.53039  0.86156  0.20289  1.0000
  C   C973      1.0  0.54412  0.87784  0.17578  1.0000
  H   H1161     1.0  0.56636  0.81041  0.20961  1.0000
  H   H1162     1.0  0.57286  0.80551  0.25531  1.0000
  H   H1163     1.0  0.54418  0.80715  0.24327  1.0000
  H   H1164     1.0  0.61505  0.84302  0.25678  1.0000
  H   H1165     1.0  0.61907  0.87360  0.24317  1.0000
  H   H1166     1.0  0.60977  0.84715  0.21085  1.0000
  H   H1167     1.0  0.55723  0.84065  0.29103  1.0000
  H   H1168     1.0  0.58726  0.84144  0.30092  1.0000
  H   H1169     1.0  0.58673  0.87056  0.28843  1.0000
  S   S262      1.0  0.92273  0.76530  0.11060  1.0000
  H   H1170     1.0  0.53006  0.83739  0.24482  1.0000
  H   H1171     1.0  0.82951  0.97865  0.45894  1.0000
  C   C974      1.0  0.72489  0.77131  0.44832  1.0000
  C   C975      1.0  0.81729  0.95005  0.13159  1.0000
  C   C976      1.0  0.71744  0.78436  0.42346  1.0000
  C   C977      1.0  0.75637  0.79601  0.39169  1.0000
  C   C978      1.0  0.79908  0.97034  0.23717  1.0000
  C   C979      1.0  0.89032  0.77391  0.42661  1.0000
  S   S263      1.0  0.48307  0.94842  0.02918  1.0000
  H   H1172     1.0  0.58002  0.89609  0.14968  1.0000
  H   H1173     1.0  0.69554  0.77633  0.34241  1.0000
  H   H1174     1.0  0.80479  0.77991  0.06110  1.0000
  C   C980      1.0  0.78078  0.91398  0.01899  1.0000
  H   H1175     1.0  0.78143  0.79507  0.02178  1.0000
  H   H1176     1.0  0.51032  0.85649  0.20565  1.0000
  C   C981      1.0  0.90949  0.76761  0.43667  1.0000
  H   H1177     1.0  0.95338  0.82617  0.33511  1.0000
  H   H1178     1.0  0.96611  0.76563  0.37673  1.0000
  C   C982      1.0  0.97244  0.84202  0.23690  1.0000
  H   H1179     1.0  0.82656  0.93774  0.13636  1.0000
  C   C983      1.0  0.91137  0.79064  0.37116  1.0000
  H   H1180     1.0  0.77895  0.94443  0.04632  1.0000
  Fe  Fe131     1.0  0.50839  0.75018  0.23984  1.0000
  H   H1181     1.0  0.86131  0.96753  0.09897  1.0000
  S   S264      1.0  0.49940  0.84800  0.09647  1.0000
  H   H1182     1.0  0.72001  0.84496  0.36968  1.0000
  C   C984      1.0  0.93002  0.77326  0.41454  1.0000
  H   H1183     1.0  0.71311  0.76227  0.47090  1.0000
  C   C985      1.0  0.74786  0.77047  0.44485  1.0000
  C   C986      1.0  0.79358  0.89961  0.01467  1.0000
  H   H1184     1.0  0.53472  0.88540  0.15768  1.0000
  C   C987      1.0  0.96618  0.80253  0.20811  1.0000
  H   H1185     1.0  0.73419  0.83015  0.31790  1.0000
  S   S265      1.0  0.48409  0.88320  0.01838  1.0000
  N   N66       1.0  0.72484  0.81118  0.36871  1.0000
  C   C988      1.0  0.72618  0.83389  0.38769  1.0000
  H   H1186     1.0  0.71349  0.82858  0.41084  1.0000
  C   C989      1.0  0.74139  0.82058  0.33735  1.0000
  H   H1187     1.0  0.74199  0.80447  0.32256  1.0000
  H   H1188     1.0  0.76981  0.96518  0.19697  1.0000
  H   H1189     1.0  0.91122  0.79953  0.34604  1.0000
  C   C990      1.0  0.93170  0.78525  0.38112  1.0000
  H   H1190     1.0  0.51488  0.75012  0.12451  1.0000
  H   H1191     1.0  0.68357  0.78970  0.37564  1.0000
  H   H1192     1.0  0.93349  0.75708  0.32621  1.0000
  C   C991      1.0  0.47921  0.97141  0.00183  1.0000
  H   H1193     1.0  0.97141  0.83180  0.37699  1.0000
  H   H1194     1.0  0.83146  0.76053  0.05479  1.0000
  H   H1195     1.0  0.90894  0.75922  0.46257  1.0000
  C   C992      1.0  0.80977  0.97797  0.09224  1.0000
  C   C993      1.0  0.89113  0.78520  0.39377  1.0000
  H   H1196     1.0  0.81149  0.98580  0.06488  1.0000
  Fe  Fe132     1.0  0.87968  0.74536  0.09720  1.0000
  H   H1197     1.0  0.82442  0.89290  0.03407  1.0000
  C   C994      1.0  0.77922  0.83052  0.48488  1.0000
  H   H1198     1.0  0.83252  0.98063  0.27197  1.0000
  H   H1199     1.0  0.93983  0.85586  0.99776  1.0000
  C   C995      1.0  0.97447  0.82700  0.46428  1.0000
  H   H1200     1.0  0.78733  0.88502  0.99333  1.0000
  H   H1201     1.0  0.48011  0.75820  0.11263  1.0000
  S   S266      1.0  0.48588  0.77156  0.22458  1.0000
  C   C996      1.0  0.79708  0.82125  0.48971  1.0000
  H   H1202     1.0  0.90654  0.84796  0.99987  1.0000
  H   H1203     1.0  0.97769  0.82749  0.08305  1.0000
  C   C997      1.0  0.82036  0.73913  0.05506  1.0000
  C   C998      1.0  0.77954  0.73880  0.04934  1.0000
  Fe  Fe133     1.0  0.85108  0.79618  0.62248  1.0000
  S   S267      1.0  0.81125  0.76709  0.60354  1.0000
  S   S268      1.0  0.85812  0.81483  0.67821  1.0000
  Fe  Fe134     1.0  0.87470  0.79040  0.55269  1.0000
  S   S269      1.0  0.83550  0.76026  0.53026  1.0000
  S   S270      1.0  0.90811  0.80997  0.51449  1.0000
  Fe  Fe135     1.0  0.82114  0.78704  0.55052  1.0000
  S   S271      1.0  0.79284  0.79938  0.52483  1.0000
  C   C999      1.0  0.48191  0.80205  0.90927  1.0000
  S   S272      1.0  0.86007  0.81747  0.57107  1.0000
  S   S273      1.0  0.86950  0.77181  0.60686  1.0000
  Fe  Fe136     1.0  0.77436  0.82622  0.88396  1.0000
  S   S274      1.0  0.80499  0.86205  0.86018  1.0000
  S   S275      1.0  0.78397  0.79598  0.90753  1.0000
  Fe  Fe137     1.0  0.73061  0.83827  0.85751  1.0000
  S   S276      1.0  0.75911  0.87537  0.83305  1.0000
  S   S277      1.0  0.68613  0.81989  0.85591  1.0000
  Fe  Fe138     1.0  0.77770  0.85229  0.81213  1.0000
  S   S278      1.0  0.78454  0.85103  0.75233  1.0000
  Fe  Fe139     1.0  0.78391  0.88182  0.88376  1.0000
  S   S279      1.0  0.81042  0.91855  0.91714  1.0000
  S   S280      1.0  0.74806  0.81512  0.83432  1.0000
  S   S281      1.0  0.75436  0.84601  0.90976  1.0000
  Fe  Fe140     1.0  0.50535  0.78730  0.78994  1.0000
  S   S282      1.0  0.53493  0.82526  0.76986  1.0000
  C   C1000     1.0  0.61743  0.85532  0.85412  1.0000
  Fe  Fe141     1.0  0.50189  0.75922  0.71777  1.0000
  S   S283      1.0  0.53158  0.79602  0.69387  1.0000
  Fe  Fe142     1.0  0.55390  0.80334  0.74730  1.0000
  S   S284      1.0  0.59841  0.82241  0.75125  1.0000
  Fe  Fe143     1.0  0.50995  0.81443  0.71882  1.0000
  S   S285      1.0  0.50030  0.84473  0.69545  1.0000
  S   S286      1.0  0.52534  0.76538  0.76969  1.0000
  C   C1001     1.0  0.80506  0.94161  0.94104  1.0000
  C   C1002     1.0  0.82462  0.95916  0.96511  1.0000
  H   H1204     1.0  0.57031  0.86118  0.88264  1.0000
  H   H1205     1.0  0.80951  0.84071  0.58190  1.0000
  C   C1003     1.0  0.78233  0.94331  0.93632  1.0000
  H   H1206     1.0  0.64952  0.84385  0.93926  1.0000
  H   H1207     1.0  0.76713  0.93000  0.91790  1.0000
  C   C1004     1.0  0.66207  0.82116  0.82668  1.0000
  C   C1005     1.0  0.63606  0.80234  0.82930  1.0000
  C   C1006     1.0  0.61639  0.80229  0.80650  1.0000
  C   C1007     1.0  0.62235  0.82133  0.78096  1.0000
  C   C1008     1.0  0.64835  0.84020  0.77844  1.0000
  C   C1009     1.0  0.66800  0.84029  0.80131  1.0000
  H   H1208     1.0  0.63113  0.78744  0.84879  1.0000
  H   H1209     1.0  0.59674  0.78712  0.80804  1.0000
  H   H1210     1.0  0.65328  0.85510  0.75894  1.0000
  H   H1211     1.0  0.68764  0.85552  0.79988  1.0000
  H   H1212     1.0  0.50881  0.94220  0.50029  1.0000
  C   C1010     1.0  0.82157  0.97818  0.98420  1.0000
  C   C1011     1.0  0.81406  0.77710  0.78263  1.0000
  C   C1012     1.0  0.89419  0.83149  0.92983  1.0000
  H   H1213     1.0  0.56190  0.79726  0.91508  1.0000
  C   C1013     1.0  0.49929  0.91602  0.93523  1.0000
  C   C1014     1.0  0.83692  0.82406  0.69848  1.0000
  C   C1015     1.0  0.84149  0.83223  0.73470  1.0000
  C   C1016     1.0  0.82511  0.83966  0.75193  1.0000
  C   C1017     1.0  0.80441  0.83977  0.73274  1.0000
  C   C1018     1.0  0.80000  0.83188  0.69634  1.0000
  C   C1019     1.0  0.81595  0.82375  0.67938  1.0000
  H   H1214     1.0  0.85784  0.83285  0.74955  1.0000
  H   H1215     1.0  0.82895  0.84602  0.77978  1.0000
  H   H1216     1.0  0.78417  0.83208  0.68116  1.0000
  H   H1217     1.0  0.81227  0.81761  0.65145  1.0000
  H   H1218     1.0  0.57422  0.81461  0.82035  1.0000
  Fe  Fe144     1.0  0.82950  0.74310  0.58578  1.0000
  C   C1020     1.0  0.55849  0.81350  0.90696  1.0000
  H   H1219     1.0  0.51809  0.85377  0.59805  1.0000
  H   H1220     1.0  0.83708  0.77306  0.98827  1.0000
  H   H1221     1.0  0.80643  0.76589  0.93663  1.0000
  N   N67       1.0  0.57279  0.82628  0.87474  1.0000
  H   H1222     1.0  0.57061  0.85268  0.83635  1.0000
  H   H1223     1.0  0.84257  0.88661  0.62811  1.0000
  H   H1224     1.0  0.83443  0.87163  0.51466  1.0000
  H   H1225     1.0  0.78881  0.77432  0.82445  1.0000
  C   C1021     1.0  0.80700  0.80246  0.94340  1.0000
  H   H1226     1.0  0.74105  0.83374  0.70091  1.0000
  H   H1227     1.0  0.82930  0.76077  0.68101  1.0000
  H   H1228     1.0  0.87082  0.89910  0.60124  1.0000
  H   H1229     1.0  0.48662  0.93464  0.57523  1.0000
  H   H1230     1.0  0.76329  0.82425  0.50247  1.0000
  C   C1022     1.0  0.84596  0.87481  0.54008  1.0000
  C   C1023     1.0  0.94802  0.82162  0.92478  1.0000
  H   H1231     1.0  0.71675  0.84228  0.69026  1.0000
  C   C1024     1.0  0.71532  0.79433  0.74087  1.0000
  S   S287      1.0  0.47929  0.77763  0.74049  1.0000
  C   C1025     1.0  0.79135  0.76495  0.80094  1.0000
  H   H1232     1.0  0.51802  0.92259  0.92240  1.0000
  C   C1026     1.0  0.95092  0.86335  0.91425  1.0000
  C   C1027     1.0  0.84405  0.92692  0.58588  1.0000
  C   C1028     1.0  0.65576  0.86286  0.88913  1.0000
  C   C1029     1.0  0.71972  0.82560  0.69736  1.0000
  C   C1030     1.0  0.67795  0.80034  0.72602  1.0000
  C   C1031     1.0  0.66239  0.78401  0.75289  1.0000
  C   C1032     1.0  0.48816  0.98590  0.87965  1.0000
  H   H1233     1.0  0.81194  0.84000  0.95731  1.0000
  H   H1234     1.0  0.67500  0.81797  0.67566  1.0000
  H   H1235     1.0  0.85216  0.86529  0.60786  1.0000
  H   H1236     1.0  0.70988  0.78713  0.76829  1.0000
  C   C1033     1.0  0.56377  0.84475  0.86305  1.0000
  H   H1237     1.0  0.84260  0.74525  0.70993  1.0000
  H   H1238     1.0  0.79550  0.85411  0.55177  1.0000
  H   H1239     1.0  0.53326  0.93341  0.51286  1.0000
  H   H1240     1.0  0.80384  0.92695  0.50136  1.0000
  C   C1034     1.0  0.81741  0.82541  0.96389  1.0000
  H   H1241     1.0  0.85099  0.96596  0.59494  1.0000
  H   H1242     1.0  0.85550  0.92831  0.60978  1.0000
  H   H1243     1.0  0.73609  0.84403  0.76305  1.0000
  H   H1244     1.0  0.54592  0.92829  0.64800  1.0000
  C   C1035     1.0  0.82715  0.94876  0.54738  1.0000
  H   H1245     1.0  0.62834  0.79833  0.67256  1.0000
  C   C1036     1.0  0.60118  0.83961  0.88091  1.0000
  H   H1246     1.0  0.93549  0.78205  0.54025  1.0000
  H   H1247     1.0  0.71315  0.81153  0.67433  1.0000
  C   C1037     1.0  0.84159  0.94879  0.57771  1.0000
  C   C1038     1.0  0.64427  0.86704  0.85853  1.0000
  C   C1039     1.0  0.71479  0.83338  0.75894  1.0000
  H   H1248     1.0  0.79894  0.86265  0.59855  1.0000
  N   N68       1.0  0.70645  0.81316  0.73039  1.0000
  H   H1249     1.0  0.52751  0.96454  0.94255  1.0000
  H   H1250     1.0  0.54229  0.83533  0.86016  1.0000
  C   C1040     1.0  0.56574  0.80622  0.84623  1.0000
  C   C1041     1.0  0.80848  0.85870  0.57601  1.0000
  H   H1251     1.0  0.87676  0.82658  0.94537  1.0000
  H   H1252     1.0  0.65623  0.87855  0.83737  1.0000
  N   N69       1.0  0.91574  0.83278  0.95293  1.0000
  H   H1253     1.0  0.94002  0.80285  0.93652  1.0000
  H   H1254     1.0  0.54200  0.88469  0.64768  1.0000
  H   H1255     1.0  0.70837  0.84779  0.75222  1.0000
  C   C1042     1.0  0.85073  0.88325  0.60345  1.0000
  H   H1256     1.0  0.57248  0.79218  0.85375  1.0000
  H   H1257     1.0  0.88855  0.81661  0.90798  1.0000
  C   C1043     1.0  0.51611  0.96942  0.92416  1.0000
  N   N70       1.0  0.49779  0.91268  0.53995  1.0000
  C   C1044     1.0  0.52023  0.87307  0.59740  1.0000
  H   H1258     1.0  0.92667  0.87197  0.97037  1.0000
  H   H1259     1.0  0.89907  0.79125  0.95138  1.0000
  C   C1045     1.0  0.51022  0.90478  0.56877  1.0000
  C   C1046     1.0  0.50846  0.87989  0.56947  1.0000
  C   C1047     1.0  0.52420  0.92209  0.59784  1.0000
  C   C1048     1.0  0.81749  0.76532  0.75215  1.0000
  C   C1049     1.0  0.53571  0.91496  0.62574  1.0000
  C   C1050     1.0  0.53371  0.89049  0.62552  1.0000
  C   C1051     1.0  0.83174  0.78771  0.98169  1.0000
  H   H1260     1.0  0.62407  0.76041  0.77109  1.0000
  C   C1052     1.0  0.48235  0.80248  0.87162  1.0000
  H   H1261     1.0  0.97574  0.78288  0.52087  1.0000
  H   H1262     1.0  0.52614  0.95327  0.54207  1.0000
  C   C1053     1.0  0.82634  0.74185  0.69080  1.0000
  C   C1054     1.0  0.79899  0.98011  0.97903  1.0000
  H   H1263     1.0  0.83542  0.77616  0.73897  1.0000
  H   H1264     1.0  0.67656  0.87107  0.89169  1.0000
  H   H1265     1.0  0.80747  0.88840  0.51471  1.0000
  H   H1266     1.0  0.52601  0.94117  0.59948  1.0000
  C   C1055     1.0  0.63797  0.79386  0.69446  1.0000
  H   H1267     1.0  0.78178  0.74229  0.67248  1.0000
  H   H1268     1.0  0.82533  0.96576  0.54113  1.0000
  H   H1269     1.0  0.48938  0.79108  0.92376  1.0000
  C   C1056     1.0  0.63549  0.77242  0.74991  1.0000
  C   C1057     1.0  0.66489  0.80513  0.69673  1.0000
  H   H1270     1.0  0.49830  0.88764  0.49797  1.0000
  C   C1058     1.0  0.83200  0.90425  0.56354  1.0000
  C   C1059     1.0  0.81441  0.78372  0.95232  1.0000
  H   H1271     1.0  0.94438  0.87748  0.91708  1.0000
  H   H1272     1.0  0.67086  0.78088  0.77722  1.0000
  N   N71       1.0  0.83439  0.88082  0.57090  1.0000
  C   C1060     1.0  0.93824  0.83910  0.93086  1.0000
  H   H1273     1.0  0.70691  0.82518  0.78517  1.0000
  C   C1061     1.0  0.81727  0.90488  0.53297  1.0000
  C   C1062     1.0  0.77938  0.96249  0.95515  1.0000
  C   C1063     1.0  0.96908  0.79512  0.50802  1.0000
  H   H1274     1.0  0.53721  0.80475  0.90183  1.0000
  C   C1064     1.0  0.93731  0.81031  0.50286  1.0000
  H   H1275     1.0  0.73676  0.80317  0.74158  1.0000
  H   H1276     1.0  0.60287  0.82388  0.93348  1.0000
  H   H1277     1.0  0.84222  0.95791  0.96911  1.0000
  H   H1278     1.0  0.89924  0.85016  0.91704  1.0000
  H   H1279     1.0  0.70732  0.77748  0.72180  1.0000
  C   C1065     1.0  0.79809  0.74061  0.73930  1.0000
  H   H1280     1.0  0.60955  0.85784  0.82880  1.0000
  C   C1066     1.0  0.94625  0.79464  0.51918  1.0000
  H   H1281     1.0  0.82905  0.79597  0.79195  1.0000
  C   C1067     1.0  0.81501  0.92685  0.52505  1.0000
  C   C1068     1.0  0.61353  0.83594  0.91203  1.0000
  C   C1069     1.0  0.92255  0.85303  0.98133  1.0000
  C   C1070     1.0  0.96947  0.82840  0.90405  1.0000
  H   H1282     1.0  0.84734  0.85683  0.54402  1.0000
  H   H1283     1.0  0.49757  0.86502  0.54935  1.0000
  H   H1284     1.0  0.56370  0.82750  0.92987  1.0000
  C   C1071     1.0  0.90629  0.80775  0.97101  1.0000
  C   C1072     1.0  0.51736  0.93634  0.52313  1.0000
  S   S288      1.0  0.49481  0.78451  0.84881  1.0000
  C   C1073     1.0  0.97257  0.87002  0.89400  1.0000
  H   H1285     1.0  0.54457  0.79512  0.84098  1.0000
  H   H1286     1.0  0.92174  0.80748  0.98876  1.0000
  C   C1074     1.0  0.64043  0.84740  0.91583  1.0000
  H   H1287     1.0  0.74350  0.76439  0.98468  1.0000
  H   H1288     1.0  0.97718  0.81516  0.90075  1.0000
  H   H1289     1.0  0.86567  0.89078  0.53569  1.0000
  H   H1290     1.0  0.50291  0.92462  0.96288  1.0000
  C   C1075     1.0  0.62331  0.77749  0.72091  1.0000
  H   H1291     1.0  0.88988  0.80389  0.98816  1.0000
  H   H1292     1.0  0.76178  0.96374  0.95103  1.0000
  C   C1076     1.0  0.48459  0.89267  0.51105  1.0000
  H   H1293     1.0  0.60250  0.76947  0.71958  1.0000
  H   H1294     1.0  0.47914  0.87664  0.67000  1.0000
  H   H1295     1.0  0.49349  0.91593  0.86242  1.0000
  H   H1296     1.0  0.49086  0.89480  0.93851  1.0000
  C   C1077     1.0  0.77189  0.74085  0.78890  1.0000
  C   C1078     1.0  0.49239  0.95048  0.90766  1.0000
  N   N72       1.0  0.48168  0.92251  0.91356  1.0000
  C   C1079     1.0  0.47863  0.95959  0.88539  1.0000
  C   C1080     1.0  0.47817  0.91826  0.55537  1.0000
