data_image0
_chemical_formula_structural       HFeS2FeSHFeSFeS3FeS2FeS2FeSFeS3H2SC3HCHC3HCH3C6H2CHC6H4C2HCH2C2H3CNHC8HCH4C2H13CHNH5SH2CHCH2C3H2CHCH9CHCHSCHCH7NH5NC8H5C2H2CHC3HSC2HFeH2C2HCH3C3HC4NCH4C2H2NCH4CFeS2FeS2FeSCFeS2FeSFeS3FeS2FeS2FeSFeS3C6H3C3H2CH4C3H3CH2C2H3C3H4CHC6H6CHCHCHCHC2H2C2H4C5FeHC2H3NC9H15NH4CH3CH2C5HCHNSC2HC2H2CNCH9CH2CH3C2HCHC2HNCHCH3C2HCHCH2C2HSH2SHFeSFeS2FeSFeC2FeSCSCHC2H2C4H2C4SCH2CS2C4H2CHFeCSFeSCHFeS3FeS2FeS2FeSFeS3H2C5HFeCHCHC7H2C2H4C2H3CH2CNCNC9H16C2HCHCHCSH2CFeC4H2C2H2CH3SH2C2H4CH3CNHC4H4NH2CHC2SH2S2FeS2FeS2FeSFeHS2H2C2HC4H3C6H4CH3C2FeS2FeS2FeSFeS3FeNS2HSC6H3C4HC3HC2NC7H9CH5C2H3CH2C3H3CH3CH4CHCHCH3CHC2H4CHC2HCH2FeHCHC2H5NH3CHNCNC2NC3H7C2HC4H2NH3CHCH5CH6C2HC3HFeS2FeS2FeSFeS4FeS2FeSHFeSFeS3C2HCH4C3H3CHCHC4H2C6H4C6H4C2H3C3HC4H8CFeCH2CH2CNCH3C2HN2HC2H2NHCH6CNH2CH4CHCH2CH4CHCHCH4CH2CHC3HC3HC4HC5HNC2HCHC2HCH3C2H11CH2CSCHCHC2H2CHFeS2FeS2FeSFeS3HSCFeSCFeS2FeSHFeSFeS3H2NCHC6H4C5HC2HC2H6C2H2C2HSH2C6H2CHC2HCH2NCHCHCH2CFeNCH3C2HSHCHC2H3CH2CHNC6H2CH11SH5C3NCHC3HCH3C2HC2HCHC2HCH6C2H6CHCHCHSFeCHCH4CH2SCHCHSHCHNHFeS2FeSCFeSFeS3FeS2FeS2FeSFeS3HCSHC2H3C2HC2H3C6HNH2C6H4C2HCH2C3H2CHSH2C3H3CHC2HCHCNC2HC2H2CHCH3CNHC5SCHCH3CH4CH2CH3C2HCHCH6CH5CHCH5CHNH2NHCH4C2FeC3H4CH2CH2C2HCHC2H5C2HCH2C2H2NH3C3H2FeS2FeS2FeSCFeS2FeSFeS3FeSCFeS2FeSFeS3C6H3C2H2C2HFeH2C2HCHSC2H2C2H3CH2CH4C6H5CHCNHCHNCHCHCHCH4SHNCH5C2H3NC4HC4H9CHC2SC3H4C4SHC3HC2H3CHC5H2C2HCH2CH5C2H3C2H2CH5NH2CH2C4FeSHFeSCFeSFeCSFeSFeHCFeS3C4H2C4H2C6H4SC3H5FeCSFeSHCFeS3FeSHFeS2FeSFeHSHSCHC7H3C7H2C2HCH2C2H2CSH2SC2HCHSH3SH6C2H2CFeHSCHSCSHCH5CSHC2HSHCHCH2C2NH5NC9H7C3H2NH2CSC2H2C2SNFeS2FeS2FeSFeS3CH4C4H3C6H4C5HFeS2FeS2FeSFeS3FeCSCHSC6H4CHNC4HC6HC2H2C2H3C2HSH5C2HNH4CH3CH2CH3CHCNH3FeH6CH10NH4CH3NC9H9CH3C2H2CH4C4HC2H2CHC3HCHFeS2FeS2FeSFeS4FeS2FeSHFeSFeS3CHC2H2CHC2H2CH5CHC2H2C6H4C6H4CHC2H2CHNCHC3H3CH4NC9H13CNSC4HCH7CHNC6H2CH2CHC2H2C2HCH5CHCH4CH2C2HCH2C3HCH2SH2CHC3H11CH2CHN2HC2H3C6H5FeS2FeS2FeSFeS3FeSHFeSHFeS2FeSHFeSFeS3CHC2HC6H4SC2H5C3H4CHC2H3CH4C6H2CHC2SH3CHC4HC3HCH3FeC2NCHCHC7H7CNC5HCH2C3H4CHCNCH9CHSC5HCH5SH2CHCHCHNHC3H2C2HCHCH8CH2C2SCH2C3H2CH2C
_chemical_formula_sum              "H1152 Fe128 S256 C960 N64"
_cell_length_a       46.0562
_cell_length_b       45.9175
_cell_length_c       40.4516
_cell_angle_alpha    89.7761
_cell_angle_beta     89.7975
_cell_angle_gamma    90.219

_space_group_name_H-M_alt    "P 1"
_space_group_IT_number       1

loop_
  _space_group_symop_operation_xyz
  'x, y, z'

loop_
  _atom_site_type_symbol
  _atom_site_label
  _atom_site_symmetry_multiplicity
  _atom_site_fract_x
  _atom_site_fract_y
  _atom_site_fract_z
  _atom_site_occupancy
  H   H1        1.0  0.20032  0.29568  0.26602  1.0000
  Fe  Fe1       1.0  0.07772  0.09845  0.14532  1.0000
  S   S1        1.0  0.10524  0.13136  0.17242  1.0000
  S   S2        1.0  0.10001  0.07875  0.09955  1.0000
  Fe  Fe2       1.0  0.02941  0.10169  0.19890  1.0000
  S   S3        1.0  0.05362  0.13480  0.22899  1.0000
  H   H2        1.0  0.23591  0.25720  0.25370  1.0000
  Fe  Fe3       1.0  0.06341  0.15553  0.17981  1.0000
  S   S4        1.0  0.06436  0.20422  0.17217  1.0000
  Fe  Fe4       1.0  0.09351  0.10784  0.21918  1.0000
  S   S5        1.0  0.12399  0.09517  0.26134  1.0000
  S   S6        1.0  0.03649  0.12447  0.14982  1.0000
  S   S7        1.0  0.06871  0.07286  0.19212  1.0000
  Fe  Fe5       1.0  0.31578  0.12383  0.39328  1.0000
  S   S8        1.0  0.34811  0.08956  0.37861  1.0000
  S   S9        1.0  0.31517  0.15262  0.43977  1.0000
  Fe  Fe6       1.0  0.28483  0.12072  0.32499  1.0000
  S   S10       1.0  0.31546  0.08662  0.30566  1.0000
  S   S11       1.0  0.25182  0.14274  0.29105  1.0000
  Fe  Fe7       1.0  0.30935  0.06658  0.35617  1.0000
  S   S12       1.0  0.30393  0.01766  0.36158  1.0000
  Fe  Fe8       1.0  0.35164  0.11232  0.32919  1.0000
  S   S13       1.0  0.39440  0.12922  0.30653  1.0000
  S   S14       1.0  0.27659  0.09921  0.37423  1.0000
  S   S15       1.0  0.32128  0.14807  0.34508  1.0000
  H   H3        1.0  0.04385  0.19444  0.10252  1.0000
  H   H4        1.0  0.25508  0.03091  0.48037  1.0000
  S   S16       1.0  0.44328  0.25958  0.18976  1.0000
  C   C1        1.0  0.32862  0.14634  0.48065  1.0000
  C   C2        1.0  0.10855  0.23887  0.28502  1.0000
  C   C3        1.0  0.18459  0.99738  0.25641  1.0000
  H   H5        1.0  0.13110  0.04086  0.22744  1.0000
  C   C4        1.0  0.30514  0.31095  0.26588  1.0000
  H   H6        1.0  0.22017  0.17828  0.33817  1.0000
  C   C5        1.0  0.02827  0.25168  0.17171  1.0000
  C   C6        1.0  0.03007  0.22119  0.17182  1.0000
  C   C7        1.0  0.46408  0.30807  0.06915  1.0000
  H   H7        1.0  0.15488  0.03477  0.29452  1.0000
  C   C8        1.0  0.04281  0.18502  0.07714  1.0000
  H   H8        1.0  0.04789  0.26469  0.17232  1.0000
  H   H9        1.0  0.45489  0.23740  0.11893  1.0000
  H   H10       1.0  0.46168  0.20027  0.19626  1.0000
  C   C9        1.0  0.42080  0.11318  0.27977  1.0000
  C   C10       1.0  0.41732  0.08539  0.26615  1.0000
  C   C11       1.0  0.43877  0.07392  0.24478  1.0000
  C   C12       1.0  0.46396  0.09003  0.23669  1.0000
  C   C13       1.0  0.46740  0.11779  0.25030  1.0000
  C   C14       1.0  0.44601  0.12921  0.27169  1.0000
  H   H11       1.0  0.39811  0.07278  0.27208  1.0000
  H   H12       1.0  0.43584  0.05244  0.23447  1.0000
  C   C15       1.0  0.46489  0.17090  0.48527  1.0000
  H   H13       1.0  0.44922  0.15056  0.28222  1.0000
  C   C16       1.0  0.15958  0.10867  0.26885  1.0000
  C   C17       1.0  0.17307  0.12893  0.24788  1.0000
  C   C18       1.0  0.20144  0.13886  0.25478  1.0000
  C   C19       1.0  0.21676  0.12844  0.28243  1.0000
  C   C20       1.0  0.20337  0.10797  0.30320  1.0000
  C   C21       1.0  0.17487  0.09835  0.29657  1.0000
  H   H14       1.0  0.16172  0.13685  0.22630  1.0000
  H   H15       1.0  0.21176  0.15439  0.23834  1.0000
  H   H16       1.0  0.21475  0.09995  0.32473  1.0000
  H   H17       1.0  0.16453  0.08309  0.31332  1.0000
  C   C22       1.0  0.09318  0.07543  0.05618  1.0000
  C   C23       1.0  0.06540  0.07829  0.04260  1.0000
  H   H18       1.0  0.28533  0.19606  0.39153  1.0000
  C   C24       1.0  0.11631  0.06792  0.03502  1.0000
  H   H19       1.0  0.04727  0.08377  0.05842  1.0000
  H   H20       1.0  0.13788  0.06544  0.04515  1.0000
  C   C25       1.0  0.24502  0.01711  0.34816  1.0000
  C   C26       1.0  0.09089  0.20221  0.06492  1.0000
  H   H21       1.0  0.21905  0.20724  0.24058  1.0000
  H   H22       1.0  0.24637  0.04062  0.34669  1.0000
  H   H23       1.0  0.41346  0.26333  0.10355  1.0000
  C   C27       1.0  0.43583  0.16859  0.47609  1.0000
  N   N1        1.0  0.12070  0.23369  0.25155  1.0000
  H   H24       1.0  0.12196  0.18705  0.25963  1.0000
  C   C28       1.0  0.33528  0.25456  0.34992  1.0000
  C   C29       1.0  0.11304  0.20338  0.24198  1.0000
  C   C30       1.0  0.15239  0.23950  0.25179  1.0000
  C   C31       1.0  0.16305  0.26773  0.25942  1.0000
  C   C32       1.0  0.17351  0.21770  0.24511  1.0000
  C   C33       1.0  0.19278  0.27389  0.26005  1.0000
  C   C34       1.0  0.20327  0.22412  0.24576  1.0000
  C   C35       1.0  0.21287  0.25218  0.25313  1.0000
  H   H25       1.0  0.46436  0.01882  0.17783  1.0000
  C   C36       1.0  0.38138  0.23551  0.23961  1.0000
  H   H26       1.0  0.11383  0.19689  0.05890  1.0000
  H   H27       1.0  0.16717  0.04973  0.23878  1.0000
  H   H28       1.0  0.08480  0.23425  0.28600  1.0000
  H   H29       1.0  0.43767  0.28304  0.01790  1.0000
  C   C37       1.0  0.34294  0.12067  0.48957  1.0000
  C   C38       1.0  0.48351  0.25055  0.04195  1.0000
  H   H30       1.0  0.14843  0.28538  0.26502  1.0000
  H   H31       1.0  0.24986  0.29093  0.43328  1.0000
  H   H32       1.0  0.16763  0.19553  0.23926  1.0000
  H   H33       1.0  0.11938  0.22493  0.30382  1.0000
  H   H34       1.0  0.08248  0.24890  0.22584  1.0000
  H   H35       1.0  0.32036  0.26120  0.36925  1.0000
  H   H36       1.0  0.14379  0.99839  0.30413  1.0000
  H   H37       1.0  0.22245  0.25656  0.33067  1.0000
  H   H38       1.0  0.26153  0.00552  0.42709  1.0000
  H   H39       1.0  0.22919  0.27194  0.38314  1.0000
  H   H40       1.0  0.30647  0.00376  0.28407  1.0000
  H   H41       1.0  0.39157  0.16708  0.49301  1.0000
  H   H42       1.0  0.30072  0.28864  0.25896  1.0000
  C   C39       1.0  0.08357  0.15474  0.08921  1.0000
  H   H43       1.0  0.37836  0.25922  0.23519  1.0000
  N   N2        1.0  0.07195  0.17602  0.06504  1.0000
  H   H44       1.0  0.05378  0.03038  0.13292  1.0000
  H   H45       1.0  0.07084  0.13410  0.08866  1.0000
  H   H46       1.0  0.37168  0.19493  0.32456  1.0000
  H   H47       1.0  0.09107  0.21303  0.08959  1.0000
  H   H48       1.0  0.41406  0.19169  0.29577  1.0000
  S   S17       1.0  0.25523  0.30661  0.30357  1.0000
  H   H49       1.0  0.34601  0.10374  0.47138  1.0000
  H   H50       1.0  0.19851  0.01616  0.26384  1.0000
  C   C40       1.0  0.04591  0.16039  0.01238  1.0000
  H   H51       1.0  0.08332  0.21847  0.04639  1.0000
  C   C41       1.0  0.06086  0.07299  0.00856  1.0000
  H   H52       1.0  0.41075  0.30000  0.04273  1.0000
  H   H53       1.0  0.25545  0.20804  0.30251  1.0000
  C   C42       1.0  0.42778  0.28278  0.10095  1.0000
  C   C43       1.0  0.40266  0.19788  0.27257  1.0000
  C   C44       1.0  0.46525  0.25548  0.06973  1.0000
  H   H54       1.0  0.19891  0.01568  0.33900  1.0000
  H   H55       1.0  0.01683  0.00101  0.16026  1.0000
  C   C45       1.0  0.42184  0.24639  0.27538  1.0000
  H   H56       1.0  0.33638  0.29686  0.32699  1.0000
  C   C46       1.0  0.42604  0.28117  0.04191  1.0000
  H   H57       1.0  0.43157  0.24359  0.30033  1.0000
  H   H58       1.0  0.43844  0.23963  0.25683  1.0000
  H   H59       1.0  0.41832  0.27008  0.27124  1.0000
  H   H60       1.0  0.10656  0.14884  0.08436  1.0000
  H   H61       1.0  0.48320  0.26500  0.02081  1.0000
  H   H62       1.0  0.43000  0.16642  0.45025  1.0000
  H   H63       1.0  0.11797  0.15286  0.03058  1.0000
  H   H64       1.0  0.30567  0.21660  0.44171  1.0000
  H   H65       1.0  0.03316  0.20219  0.06114  1.0000
  C   C47       1.0  0.05104  0.00784  0.08675  1.0000
  H   H66       1.0  0.02762  0.16613  0.07875  1.0000
  C   C48       1.0  0.27923  0.25513  0.44060  1.0000
  H   H67       1.0  0.21805  0.18695  0.38148  1.0000
  S   S18       1.0  0.17929  0.30484  0.44306  1.0000
  C   C49       1.0  0.37428  0.23736  0.29906  1.0000
  H   H68       1.0  0.11124  0.26189  0.29298  1.0000
  C   C50       1.0  0.04325  0.01286  0.11951  1.0000
  H   H69       1.0  0.41771  0.19228  0.25192  1.0000
  H   H70       1.0  0.41282  0.26083  0.04140  1.0000
  H   H71       1.0  0.02508  0.16794  0.02101  1.0000
  H   H72       1.0  0.10797  0.27688  0.23517  1.0000
  H   H73       1.0  0.27195  0.24027  0.31969  1.0000
  H   H74       1.0  0.34471  0.31388  0.23681  1.0000
  H   H75       1.0  0.38324  0.18356  0.26980  1.0000
  N   N3        1.0  0.39466  0.22920  0.27224  1.0000
  H   H76       1.0  0.16138  0.02574  0.20458  1.0000
  H   H77       1.0  0.19914  0.23635  0.35878  1.0000
  H   H78       1.0  0.11550  0.00239  0.19808  1.0000
  H   H79       1.0  0.25087  0.17285  0.36346  1.0000
  H   H80       1.0  0.20634  0.22320  0.31796  1.0000
  N   N4        1.0  0.24192  0.21825  0.35221  1.0000
  C   C51       1.0  0.26416  0.21781  0.32563  1.0000
  C   C52       1.0  0.23236  0.18789  0.35925  1.0000
  C   C53       1.0  0.21633  0.23435  0.33949  1.0000
  C   C54       1.0  0.25465  0.23141  0.38226  1.0000
  C   C55       1.0  0.24567  0.25886  0.39486  1.0000
  C   C56       1.0  0.27702  0.21683  0.39974  1.0000
  C   C57       1.0  0.25768  0.27029  0.42376  1.0000
  C   C58       1.0  0.28899  0.22853  0.42851  1.0000
  H   H81       1.0  0.11932  0.02265  0.28310  1.0000
  H   H82       1.0  0.28338  0.20459  0.33260  1.0000
  H   H83       1.0  0.12083  0.19828  0.21656  1.0000
  H   H84       1.0  0.08289  0.16345  0.11485  1.0000
  H   H85       1.0  0.31396  0.18803  0.49838  1.0000
  C   C59       1.0  0.00107  0.26554  0.17083  1.0000
  C   C60       1.0  0.21817  0.00292  0.34370  1.0000
  H   H86       1.0  0.11557  0.25139  0.20255  1.0000
  H   H87       1.0  0.34410  0.00059  0.29231  1.0000
  C   C61       1.0  0.34435  0.27463  0.32612  1.0000
  H   H88       1.0  0.08907  0.19989  0.24160  1.0000
  C   C62       1.0  0.10619  0.25361  0.22782  1.0000
  C   C63       1.0  0.24539  0.00958  0.47678  1.0000
  C   C64       1.0  0.02190  0.99570  0.13489  1.0000
  H   H89       1.0  0.48078  0.30799  0.08898  1.0000
  S   S19       1.0  0.18121  0.30650  0.34930  1.0000
  C   C65       1.0  0.14245  0.01579  0.28495  1.0000
  C   C66       1.0  0.47553  0.99947  0.18851  1.0000
  H   H90       1.0  0.37040  0.28282  0.28357  1.0000
  Fe  Fe9       1.0  0.44083  0.30852  0.18632  1.0000
  H   H91       1.0  0.35983  0.22466  0.23729  1.0000
  H   H92       1.0  0.48163  0.17067  0.46635  1.0000
  C   C67       1.0  0.36469  0.21740  0.32386  1.0000
  C   C68       1.0  0.07160  0.16288  0.03164  1.0000
  H   H93       1.0  0.39531  0.22777  0.21886  1.0000
  C   C69       1.0  0.15330  0.03152  0.22965  1.0000
  H   H94       1.0  0.28828  0.26397  0.46315  1.0000
  H   H95       1.0  0.33886  0.21058  0.36782  1.0000
  H   H96       1.0  0.44131  0.28455  0.12356  1.0000
  C   C70       1.0  0.34559  0.22608  0.34893  1.0000
  C   C71       1.0  0.36371  0.26631  0.30119  1.0000
  C   C72       1.0  0.26991  0.00087  0.35507  1.0000
  H   H97       1.0  0.00570  0.18108  0.17117  1.0000
  C   C73       1.0  0.09762  0.15198  0.01742  1.0000
  C   C74       1.0  0.41420  0.16899  0.50018  1.0000
  C   C75       1.0  0.00457  0.20459  0.17101  1.0000
  C   C76       1.0  0.47766  0.24347  0.18527  1.0000
  N   N5        1.0  0.44602  0.28127  0.07063  1.0000
  C   C77       1.0  0.24900  0.99527  0.44679  1.0000
  H   H98       1.0  0.06768  0.02116  0.07506  1.0000
  H   H99       1.0  0.31307  0.99851  0.22366  1.0000
  H   H100      1.0  0.41332  0.30220  0.10079  1.0000
  H   H101      1.0  0.47562  0.31052  0.04512  1.0000
  C   C78       1.0  0.17039  0.31380  0.48482  1.0000
  C   C79       1.0  0.46763  0.23550  0.09658  1.0000
  H   H102      1.0  0.99990  0.28905  0.17090  1.0000
  H   H103      1.0  0.16801  0.26878  0.49993  1.0000
  N   N6        1.0  0.15376  0.00608  0.25247  1.0000
  C   C80       1.0  0.48046  0.21329  0.18958  1.0000
  H   H104      1.0  0.06276  0.30307  0.26717  1.0000
  H   H105      1.0  0.35134  0.99956  0.23234  1.0000
  H   H106      1.0  0.46064  0.99018  0.20758  1.0000
  H   H107      1.0  0.48661  0.13046  0.24443  1.0000
  C   C81       1.0  0.38100  0.30917  0.77220  1.0000
  Fe  Fe10      1.0  0.13313  0.26547  0.69642  1.0000
  S   S20       1.0  0.10067  0.28896  0.72809  1.0000
  S   S21       1.0  0.15533  0.22277  0.71082  1.0000
  Fe  Fe11      1.0  0.07781  0.29728  0.68011  1.0000
  S   S22       1.0  0.02901  0.29749  0.67639  1.0000
  S   S23       1.0  0.10826  0.27095  0.64865  1.0000
  Fe  Fe12      1.0  0.10985  0.01794  0.83346  1.0000
  S   S24       1.0  0.14315  0.04792  0.81066  1.0000
  C   C82       1.0  0.15925  0.29708  0.54137  1.0000
  Fe  Fe13      1.0  0.10679  0.05331  0.89924  1.0000
  S   S25       1.0  0.14049  0.08528  0.88096  1.0000
  S   S26       1.0  0.07677  0.05837  0.94469  1.0000
  Fe  Fe14      1.0  0.11750  0.08523  0.83187  1.0000
  S   S27       1.0  0.09943  0.12611  0.80646  1.0000
  Fe  Fe15      1.0  0.16360  0.04549  0.86118  1.0000
  S   S28       1.0  0.21249  0.04159  0.86589  1.0000
  S   S29       1.0  0.08244  0.05531  0.85103  1.0000
  S   S30       1.0  0.13160  0.01340  0.88299  1.0000
  Fe  Fe16      1.0  0.42062  0.16341  0.68673  1.0000
  S   S31       1.0  0.39241  0.19215  0.65538  1.0000
  S   S32       1.0  0.46970  0.16625  0.68755  1.0000
  Fe  Fe17      1.0  0.37023  0.12541  0.71124  1.0000
  S   S33       1.0  0.33810  0.15192  0.68186  1.0000
  S   S34       1.0  0.35084  0.08660  0.73947  1.0000
  Fe  Fe18      1.0  0.37009  0.15057  0.63953  1.0000
  S   S35       1.0  0.36371  0.13228  0.58700  1.0000
  Fe  Fe19      1.0  0.36293  0.19130  0.70013  1.0000
  S   S36       1.0  0.33791  0.23016  0.72087  1.0000
  S   S37       1.0  0.40075  0.12187  0.66824  1.0000
  S   S38       1.0  0.39260  0.16484  0.73239  1.0000
  C   C83       1.0  0.36761  0.05849  0.76293  1.0000
  C   C84       1.0  0.35058  0.03464  0.77337  1.0000
  C   C85       1.0  0.36254  0.01212  0.79274  1.0000
  C   C86       1.0  0.39172  0.01325  0.80215  1.0000
  C   C87       1.0  0.40879  0.03716  0.79184  1.0000
  C   C88       1.0  0.39684  0.05964  0.77223  1.0000
  H   H108      1.0  0.32799  0.03345  0.76630  1.0000
  H   H109      1.0  0.43128  0.03836  0.79927  1.0000
  H   H110      1.0  0.41003  0.07803  0.76470  1.0000
  C   C89       1.0  0.35511  0.26010  0.74101  1.0000
  C   C90       1.0  0.38529  0.26381  0.74056  1.0000
  C   C91       1.0  0.39809  0.28825  0.75590  1.0000
  H   H111      1.0  0.45143  0.12920  0.58588  1.0000
  H   H112      1.0  0.11778  0.13019  0.97613  1.0000
  C   C92       1.0  0.33799  0.28101  0.75731  1.0000
  H   H113      1.0  0.39880  0.24801  0.72813  1.0000
  H   H114      1.0  0.42142  0.29091  0.75512  1.0000
  H   H115      1.0  0.00926  0.00005  0.94021  1.0000
  H   H116      1.0  0.31468  0.27839  0.75805  1.0000
  C   C93       1.0  0.33542  0.16423  0.53745  1.0000
  C   C94       1.0  0.34957  0.13846  0.54641  1.0000
  C   C95       1.0  0.35330  0.11681  0.52217  1.0000
  H   H117      1.0  0.03319  0.17072  0.73593  1.0000
  H   H118      1.0  0.33237  0.18115  0.55564  1.0000
  H   H119      1.0  0.36429  0.09681  0.52866  1.0000
  C   C96       1.0  0.22921  0.00765  0.85845  1.0000
  H   H120      1.0  0.06800  0.13353  0.73926  1.0000
  H   H121      1.0  0.27238  0.02477  0.86557  1.0000
  C   C97       1.0  0.01592  0.22107  0.58821  1.0000
  C   C98       1.0  0.35083  0.30532  0.77294  1.0000
  H   H122      1.0  0.04247  0.01627  0.90153  1.0000
  H   H123      1.0  0.12995  0.05741  0.98510  1.0000
  H   H124      1.0  0.01032  0.03263  0.85617  1.0000
  C   C99       1.0  0.01459  0.21059  0.66881  1.0000
  C   C100      1.0  0.02857  0.23768  0.67188  1.0000
  C   C101      1.0  0.01215  0.26306  0.67511  1.0000
  H   H125      1.0  0.08834  0.29022  0.53197  1.0000
  H   H126      1.0  0.01481  0.15086  0.70433  1.0000
  H   H127      1.0  0.02742  0.19118  0.66518  1.0000
  H   H128      1.0  0.05200  0.23896  0.67091  1.0000
  C   C102      1.0  0.01320  0.27361  0.58499  1.0000
  H   H129      1.0  0.44496  0.22450  0.68664  1.0000
  C   C103      1.0  0.14017  0.19660  0.73860  1.0000
  C   C104      1.0  0.15615  0.17149  0.74686  1.0000
  C   C105      1.0  0.14443  0.14997  0.76821  1.0000
  C   C106      1.0  0.11654  0.15335  0.78152  1.0000
  C   C107      1.0  0.10084  0.17867  0.77361  1.0000
  C   C108      1.0  0.11250  0.20010  0.75228  1.0000
  H   H130      1.0  0.17759  0.16854  0.73643  1.0000
  H   H131      1.0  0.15675  0.13060  0.77394  1.0000
  H   H132      1.0  0.07951  0.18190  0.78409  1.0000
  H   H133      1.0  0.10001  0.21933  0.74637  1.0000
  H   H134      1.0  0.34912  0.99393  0.80050  1.0000
  H   H135      1.0  0.19641  0.24766  0.66084  1.0000
  C   C109      1.0  0.01286  0.01047  0.84547  1.0000
  H   H136      1.0  0.28594  0.27235  0.63939  1.0000
  C   C110      1.0  0.48153  0.25396  0.68346  1.0000
  H   H137      1.0  0.03921  0.07481  0.99852  1.0000
  C   C111      1.0  0.47248  0.17334  0.51865  1.0000
  H   H138      1.0  0.25361  0.27480  0.71587  1.0000
  C   C112      1.0  0.26283  0.27288  0.63479  1.0000
  H   H139      1.0  0.00589  0.20033  0.59444  1.0000
  C   C113      1.0  0.25960  0.00560  0.86003  1.0000
  C   C114      1.0  0.05801  0.24909  0.57081  1.0000
  H   H140      1.0  0.42090  0.15081  0.59766  1.0000
  H   H141      1.0  0.15603  0.27935  0.55866  1.0000
  C   C115      1.0  0.23088  0.22204  0.70008  1.0000
  C   C116      1.0  0.44497  0.15019  0.59739  1.0000
  H   H142      1.0  0.46694  0.11698  0.73542  1.0000
  H   H143      1.0  0.45477  0.22216  0.58027  1.0000
  H   H144      1.0  0.05971  0.09758  0.75206  1.0000
  H   H145      1.0  0.23975  0.20796  0.72002  1.0000
  C   C117      1.0  0.09785  0.13914  0.98614  1.0000
  C   C118      1.0  0.26858  0.25754  0.70690  1.0000
  C   C119      1.0  0.08403  0.06545  0.98739  1.0000
  C   C120      1.0  0.02403  0.13235  0.78480  1.0000
  C   C121      1.0  0.05122  0.11610  0.73721  1.0000
  Fe  Fe20      1.0  0.13296  0.31304  0.64207  1.0000
  H   H146      1.0  0.21516  0.23700  0.71221  1.0000
  C   C122      1.0  0.25307  0.29046  0.60879  1.0000
  C   C123      1.0  0.24317  0.25650  0.65467  1.0000
  H   H147      1.0  0.28826  0.26844  0.69658  1.0000
  H   H148      1.0  0.02260  0.06988  0.77202  1.0000
  H   H149      1.0  0.27621  0.24494  0.72876  1.0000
  N   N7        1.0  0.26284  0.09037  0.78258  1.0000
  C   C124      1.0  0.28594  0.07966  0.80504  1.0000
  C   C125      1.0  0.23475  0.07858  0.79506  1.0000
  C   C126      1.0  0.26780  0.07811  0.74918  1.0000
  C   C127      1.0  0.26374  0.12263  0.78082  1.0000
  C   C128      1.0  0.23945  0.14042  0.78876  1.0000
  C   C129      1.0  0.28956  0.13725  0.77077  1.0000
  C   C130      1.0  0.24140  0.17085  0.78749  1.0000
  C   C131      1.0  0.29129  0.16765  0.76962  1.0000
  C   C132      1.0  0.26735  0.18441  0.77833  1.0000
  H   H150      1.0  0.28377  0.08943  0.83007  1.0000
  H   H151      1.0  0.28507  0.05553  0.80812  1.0000
  H   H152      1.0  0.30815  0.08470  0.79567  1.0000
  H   H153      1.0  0.22982  0.08672  0.82037  1.0000
  H   H154      1.0  0.23500  0.05435  0.79707  1.0000
  H   H155      1.0  0.21638  0.08415  0.77843  1.0000
  H   H156      1.0  0.28942  0.08424  0.73895  1.0000
  H   H157      1.0  0.26709  0.05386  0.74949  1.0000
  H   H158      1.0  0.25117  0.08597  0.73139  1.0000
  H   H159      1.0  0.21874  0.13144  0.79631  1.0000
  H   H160      1.0  0.30877  0.12525  0.76390  1.0000
  H   H161      1.0  0.22267  0.18395  0.79399  1.0000
  H   H162      1.0  0.31145  0.17824  0.76221  1.0000
  H   H163      1.0  0.26901  0.20796  0.77801  1.0000
  H   H164      1.0  0.28322  0.20226  0.69007  1.0000
  N   N8        1.0  0.45793  0.17541  0.57954  1.0000
  H   H165      1.0  0.45062  0.20496  0.62004  1.0000
  H   H166      1.0  0.10057  0.29327  0.57441  1.0000
  H   H167      1.0  0.00730  0.30130  0.74376  1.0000
  H   H168      1.0  0.18065  0.27848  0.61571  1.0000
  C   C133      1.0  0.21313  0.25895  0.64698  1.0000
  H   H169      1.0  0.03953  0.15036  0.79011  1.0000
  H   H170      1.0  0.21870  0.20740  0.68312  1.0000
  H   H171      1.0  0.03966  0.31820  0.75821  1.0000
  C   C134      1.0  0.04644  0.14753  0.98106  1.0000
  H   H172      1.0  0.29540  0.22743  0.65985  1.0000
  H   H173      1.0  0.05037  0.10922  0.71088  1.0000
  C   C135      1.0  0.27545  0.21695  0.66998  1.0000
  C   C136      1.0  0.32501  0.16808  0.50485  1.0000
  C   C137      1.0  0.98940  0.99472  0.92740  1.0000
  C   C138      1.0  0.20365  0.27664  0.62096  1.0000
  C   C139      1.0  0.07232  0.13690  0.96801  1.0000
  H   H174      1.0  0.45159  0.14949  0.62379  1.0000
  C   C140      1.0  0.04247  0.27567  0.57402  1.0000
  H   H175      1.0  0.99520  0.16376  0.74011  1.0000
  N   N9        1.0  0.25409  0.23848  0.68241  1.0000
  S   S39       1.0  0.16043  0.30584  0.68751  1.0000
  C   C141      1.0  0.01601  0.15401  0.73157  1.0000
  C   C142      1.0  0.48466  0.06149  0.75654  1.0000
  H   H176      1.0  0.07253  0.12625  0.94409  1.0000
  C   C143      1.0  0.04241  0.99408  0.89043  1.0000
  C   C144      1.0  0.00028  0.10318  0.74312  1.0000
  H   H177      1.0  0.05713  0.20229  0.57587  1.0000
  H   H178      1.0  0.26588  0.20317  0.65020  1.0000
  C   C145      1.0  0.44571  0.20268  0.59320  1.0000
  N   N10       1.0  0.02235  0.12615  0.74889  1.0000
  C   C146      1.0  0.46835  0.22633  0.68543  1.0000
  H   H179      1.0  0.00244  0.13861  0.79489  1.0000
  H   H180      1.0  0.46813  0.27326  0.68287  1.0000
  H   H181      1.0  0.34147  0.99426  0.99326  1.0000
  H   H182      1.0  0.06186  0.99312  0.87398  1.0000
  H   H183      1.0  0.46918  0.01742  0.75071  1.0000
  H   H184      1.0  0.01212  0.30719  0.78732  1.0000
  H   H185      1.0  0.46291  0.06962  0.75326  1.0000
  H   H186      1.0  0.42169  0.20357  0.59075  1.0000
  H   H187      1.0  0.46157  0.11446  0.77980  1.0000
  C   C147      1.0  0.01580  0.31694  0.76241  1.0000
  H   H188      1.0  0.03202  0.11336  0.79926  1.0000
  H   H189      1.0  0.08052  0.24840  0.56329  1.0000
  C   C148      1.0  0.47609  0.12301  0.75994  1.0000
  H   H190      1.0  0.02660  0.14539  0.96692  1.0000
  H   H191      1.0  0.26846  0.30281  0.59394  1.0000
  H   H192      1.0  0.06601  0.31097  0.61785  1.0000
  C   C149      1.0  0.48550  0.20126  0.68595  1.0000
  C   C150      1.0  0.04479  0.22227  0.57790  1.0000
  H   H193      1.0  0.40388  0.17171  0.55125  1.0000
  C   C151      1.0  0.45090  0.17345  0.54390  1.0000
  H   H194      1.0  0.03261  0.01078  0.82943  1.0000
  C   C152      1.0  0.16603  0.29114  0.50796  1.0000
  C   C153      1.0  0.22352  0.29237  0.60193  1.0000
  H   H195      1.0  0.99409  0.00650  0.82888  1.0000
  N   N11       1.0  0.05562  0.30452  0.56681  1.0000
  C   C154      1.0  0.00017  0.24669  0.59176  1.0000
  H   H196      1.0  0.21588  0.30621  0.58197  1.0000
  C   C155      1.0  0.00381  0.07501  0.75716  1.0000
  H   H197      1.0  0.00032  0.29288  0.58914  1.0000
  H   H198      1.0  0.03770  0.30609  0.51785  1.0000
  H   H199      1.0  0.22664  0.00772  0.52539  1.0000
  C   C156      1.0  0.42152  0.17154  0.53354  1.0000
  C   C157      1.0  0.11188  0.06326  0.00086  1.0000
  H   H200      1.0  0.48113  0.30455  0.78859  1.0000
  C   C158      1.0  0.08621  0.30294  0.55522  1.0000
  H   H201      1.0  0.47468  0.31322  0.72733  1.0000
  C   C159      1.0  0.22936  0.99644  0.50208  1.0000
  H   H202      1.0  0.47498  0.14725  0.76104  1.0000
  H   H203      1.0  0.33740  0.32117  0.78541  1.0000
  C   C160      1.0  0.98870  0.98873  0.89291  1.0000
  C   C161      1.0  0.03874  0.31954  0.54068  1.0000
  H   H204      1.0  0.48123  0.53712  0.15016  1.0000
  S   S40       1.0  0.15365  0.36708  0.37593  1.0000
  H   H205      1.0  0.15035  0.63182  0.22284  1.0000
  H   H206      1.0  0.02363  0.32697  0.23488  1.0000
  S   S41       1.0  0.19188  0.36538  0.30616  1.0000
  H   H207      1.0  0.27649  0.62368  0.41892  1.0000
  Fe  Fe21      1.0  0.19461  0.38799  0.35542  1.0000
  S   S42       1.0  0.20003  0.43714  0.35594  1.0000
  Fe  Fe22      1.0  0.15328  0.34201  0.32813  1.0000
  S   S43       1.0  0.46642  0.33757  0.15203  1.0000
  S   S44       1.0  0.22504  0.35567  0.37889  1.0000
  Fe  Fe23      1.0  0.42326  0.35789  0.13971  1.0000
  S   S45       1.0  0.40222  0.36455  0.08879  1.0000
  Fe  Fe24      1.0  0.46763  0.36789  0.19586  1.0000
  C   C162      1.0  0.46729  0.45898  0.25547  1.0000
  C   C163      1.0  0.22276  0.60517  0.40159  1.0000
  Fe  Fe25      1.0  0.40321  0.35732  0.21315  1.0000
  S   S46       1.0  0.36790  0.37267  0.24875  1.0000
  C   C164      1.0  0.06198  0.50732  0.26243  1.0000
  S   S47       1.0  0.42609  0.39061  0.18108  1.0000
  C   C165      1.0  0.40918  0.37504  0.04690  1.0000
  H   H208      1.0  0.23685  0.58651  0.40856  1.0000
  C   C166      1.0  0.42013  0.43646  0.26250  1.0000
  C   C167      1.0  0.43665  0.38388  0.03567  1.0000
  H   H209      1.0  0.45907  0.41322  0.24963  1.0000
  H   H210      1.0  0.45465  0.38467  0.05272  1.0000
  C   C168      1.0  0.23512  0.45298  0.35592  1.0000
  C   C169      1.0  0.23779  0.48347  0.35599  1.0000
  C   C170      1.0  0.28781  0.44935  0.35626  1.0000
  C   C171      1.0  0.26024  0.43595  0.35574  1.0000
  H   H211      1.0  0.30708  0.43597  0.35670  1.0000
  H   H212      1.0  0.25847  0.41246  0.35556  1.0000
  C   C172      1.0  0.04122  0.37013  0.24054  1.0000
  C   C173      1.0  0.06406  0.38657  0.25426  1.0000
  C   C174      1.0  0.08630  0.37304  0.27264  1.0000
  C   C175      1.0  0.08603  0.34286  0.27743  1.0000
  S   S48       1.0  0.11360  0.32458  0.30013  1.0000
  C   C176      1.0  0.04099  0.33993  0.24530  1.0000
  H   H213      1.0  0.06447  0.40989  0.25077  1.0000
  H   H214      1.0  0.10364  0.38580  0.28319  1.0000
  C   C177      1.0  0.42573  0.48834  0.27075  1.0000
  S   S49       1.0  0.01370  0.38833  0.21760  1.0000
  S   S50       1.0  0.39758  0.32630  0.17123  1.0000
  C   C178      1.0  0.29186  0.35426  0.29605  1.0000
  C   C179      1.0  0.31695  0.36834  0.28383  1.0000
  C   C180      1.0  0.33628  0.35389  0.26253  1.0000
  C   C181      1.0  0.05050  0.52737  0.24020  1.0000
  H   H215      1.0  0.27732  0.36566  0.31257  1.0000
  H   H216      1.0  0.32140  0.39056  0.29106  1.0000
  C   C182      1.0  0.29028  0.63569  0.30661  1.0000
  H   H217      1.0  0.42870  0.46764  0.09229  1.0000
  Fe  Fe26      1.0  0.07548  0.61001  0.12530  1.0000
  C   C183      1.0  0.06329  0.32641  0.26358  1.0000
  S   S51       1.0  0.10022  0.60494  0.07610  1.0000
  Fe  Fe27      1.0  0.02547  0.60303  0.17635  1.0000
  S   S52       1.0  0.04930  0.62750  0.21567  1.0000
  C   C184      1.0  0.16792  0.34259  0.49566  1.0000
  H   H218      1.0  0.34132  0.49556  0.28903  1.0000
  Fe  Fe28      1.0  0.08876  0.60244  0.19980  1.0000
  S   S53       1.0  0.11663  0.57902  0.23795  1.0000
  S   S54       1.0  0.03455  0.63564  0.13553  1.0000
  S   S55       1.0  0.06427  0.57525  0.16292  1.0000
  Fe  Fe29      1.0  0.33066  0.59724  0.40888  1.0000
  S   S56       1.0  0.36555  0.56837  0.38792  1.0000
  S   S57       1.0  0.32093  0.60994  0.46276  1.0000
  Fe  Fe30      1.0  0.29402  0.60227  0.33959  1.0000
  S   S58       1.0  0.33044  0.57258  0.31658  1.0000
  S   S59       1.0  0.23380  0.63105  0.29830  1.0000
  Fe  Fe31      1.0  0.32878  0.54510  0.36228  1.0000
  S   S60       1.0  0.32543  0.49603  0.35791  1.0000
  Fe  Fe32      1.0  0.36445  0.59812  0.34332  1.0000
  S   S61       1.0  0.40379  0.62039  0.31914  1.0000
  S   S62       1.0  0.29424  0.57160  0.38600  1.0000
  S   S63       1.0  0.33146  0.62829  0.36587  1.0000
  H   H219      1.0  0.21140  0.61210  0.42457  1.0000
  H   H220      1.0  0.38321  0.62365  0.47048  1.0000
  C   C185      1.0  0.44973  0.43427  0.25540  1.0000
  C   C186      1.0  0.25132  0.59104  0.33991  1.0000
  C   C187      1.0  0.42954  0.60538  0.29108  1.0000
  C   C188      1.0  0.42513  0.57853  0.27559  1.0000
  C   C189      1.0  0.44572  0.56803  0.25262  1.0000
  H   H221      1.0  0.99465  0.45054  0.15045  1.0000
  Fe  Fe33      1.0  0.18400  0.33292  0.39605  1.0000
  C   C190      1.0  0.45473  0.62151  0.28326  1.0000
  H   H222      1.0  0.40571  0.56608  0.28102  1.0000
  C   C191      1.0  0.45534  0.48596  0.26326  1.0000
  H   H223      1.0  0.44188  0.54755  0.24032  1.0000
  C   C192      1.0  0.33015  0.32515  0.25339  1.0000
  C   C193      1.0  0.14984  0.59322  0.25314  1.0000
  C   C194      1.0  0.16150  0.61962  0.24184  1.0000
  C   C195      1.0  0.18770  0.63027  0.25519  1.0000
  C   C196      1.0  0.20256  0.61477  0.27995  1.0000
  C   C197      1.0  0.19098  0.58811  0.29082  1.0000
  C   C198      1.0  0.16478  0.57753  0.27756  1.0000
  H   H224      1.0  0.20157  0.57579  0.30992  1.0000
  H   H225      1.0  0.15574  0.55730  0.28668  1.0000
  C   C199      1.0  0.09675  0.58800  0.03659  1.0000
  C   C200      1.0  0.27587  0.64274  0.33932  1.0000
  H   H226      1.0  0.02036  0.44008  0.18105  1.0000
  H   H227      1.0  0.40749  0.41666  0.26176  1.0000
  H   H228      1.0  0.05359  0.57109  0.04382  1.0000
  H   H229      1.0  0.02841  0.47023  0.15432  1.0000
  C   C201      1.0  0.26533  0.49685  0.35629  1.0000
  C   C202      1.0  0.29048  0.47984  0.35679  1.0000
  H   H230      1.0  0.21849  0.49680  0.35616  1.0000
  H   H231      1.0  0.26707  0.52028  0.35633  1.0000
  H   H232      1.0  0.41801  0.50980  0.27694  1.0000
  C   C203      1.0  0.01069  0.45929  0.16849  1.0000
  H   H233      1.0  0.26137  0.56367  0.29505  1.0000
  H   H234      1.0  0.07848  0.51423  0.27979  1.0000
  C   C204      1.0  0.05248  0.47848  0.26191  1.0000
  N   N12       1.0  0.37538  0.46531  0.27631  1.0000
  C   C205      1.0  0.07169  0.57302  0.02685  1.0000
  N   N13       1.0  0.15360  0.46198  0.27305  1.0000
  C   C206      1.0  0.17342  0.43756  0.26491  1.0000
  C   C207      1.0  0.17187  0.48662  0.28467  1.0000
  C   C208      1.0  0.13447  0.45296  0.30086  1.0000
  C   C209      1.0  0.13550  0.46932  0.24399  1.0000
  C   C210      1.0  0.13387  0.49795  0.23051  1.0000
  C   C211      1.0  0.11820  0.44754  0.22871  1.0000
  C   C212      1.0  0.11633  0.50405  0.20321  1.0000
  C   C213      1.0  0.10066  0.45392  0.20149  1.0000
  C   C214      1.0  0.09980  0.48212  0.18871  1.0000
  H   H235      1.0  0.18675  0.44268  0.24260  1.0000
  H   H236      1.0  0.18872  0.43282  0.28555  1.0000
  H   H237      1.0  0.16167  0.41679  0.26033  1.0000
  H   H238      1.0  0.18679  0.49457  0.26486  1.0000
  H   H239      1.0  0.18580  0.48013  0.30594  1.0000
  H   H240      1.0  0.15840  0.50505  0.29359  1.0000
  H   H241      1.0  0.12162  0.43314  0.29507  1.0000
  H   H242      1.0  0.14719  0.44769  0.32347  1.0000
  H   H243      1.0  0.11896  0.47055  0.30743  1.0000
  H   H244      1.0  0.14578  0.51620  0.24054  1.0000
  H   H245      1.0  0.11802  0.42537  0.23780  1.0000
  H   H246      1.0  0.11538  0.52612  0.19345  1.0000
  H   H247      1.0  0.08761  0.43686  0.19035  1.0000
  H   H248      1.0  0.08623  0.48713  0.16763  1.0000
  H   H249      1.0  0.05815  0.54978  0.24044  1.0000
  H   H250      1.0  0.36438  0.43303  0.23951  1.0000
  C   C215      1.0  0.26566  0.58423  0.30715  1.0000
  C   C216      1.0  0.47100  0.58407  0.24502  1.0000
  H   H251      1.0  0.17130  0.36029  0.47832  1.0000
  C   C217      1.0  0.02940  0.51877  0.21743  1.0000
  H   H252      1.0  0.02521  0.44693  0.23928  1.0000
  C   C218      1.0  0.36523  0.49508  0.28467  1.0000
  H   H253      1.0  0.37941  0.45139  0.32698  1.0000
  C   C219      1.0  0.47532  0.61098  0.26036  1.0000
  S   S64       1.0  0.10234  0.63556  0.16197  1.0000
  H   H254      1.0  0.02157  0.53551  0.20101  1.0000
  H   H255      1.0  0.19654  0.65067  0.24616  1.0000
  C   C220      1.0  0.40707  0.46357  0.27014  1.0000
  Fe  Fe34      1.0  0.21987  0.33175  0.33081  1.0000
  C   C221      1.0  0.34236  0.62294  0.49640  1.0000
  C   C222      1.0  0.25622  0.62059  0.35685  1.0000
  C   C223      1.0  0.38614  0.37421  0.02413  1.0000
  C   C224      1.0  0.03152  0.46963  0.23908  1.0000
  H   H256      1.0  0.36533  0.46974  0.22461  1.0000
  H   H257      1.0  0.37535  0.50307  0.30794  1.0000
  C   C225      1.0  0.26017  0.64039  0.41226  1.0000
  C   C226      1.0  0.46658  0.48518  0.11667  1.0000
  H   H258      1.0  0.00004  0.51540  0.15741  1.0000
  H   H259      1.0  0.20562  0.59730  0.38441  1.0000
  C   C227      1.0  0.36715  0.44579  0.30418  1.0000
  H   H260      1.0  0.33554  0.45691  0.24995  1.0000
  H   H261      1.0  0.44032  0.41649  0.10530  1.0000
  H   H262      1.0  0.36971  0.51088  0.26436  1.0000
  S   S65       1.0  0.44487  0.33722  0.23092  1.0000
  H   H263      1.0  0.23741  0.57447  0.35046  1.0000
  H   H264      1.0  0.45073  0.32804  0.07222  1.0000
  C   C228      1.0  0.01907  0.48956  0.21630  1.0000
  C   C229      1.0  0.28462  0.60682  0.29027  1.0000
  H   H265      1.0  0.13951  0.60177  0.02118  1.0000
  H   H266      1.0  0.29359  0.60250  0.26600  1.0000
  H   H267      1.0  0.37105  0.42242  0.29861  1.0000
  H   H268      1.0  0.34362  0.44753  0.31036  1.0000
  C   C230      1.0  0.35950  0.45591  0.24631  1.0000
  H   H269      1.0  0.36478  0.36745  0.03243  1.0000
  H   H270      1.0  0.45846  0.64224  0.29514  1.0000
  H   H271      1.0  0.20388  0.64553  0.35861  1.0000
  C   C231      1.0  0.37231  0.62770  0.49374  1.0000
  N   N14       1.0  0.23993  0.62935  0.38673  1.0000
  H   H272      1.0  0.06151  0.46278  0.27907  1.0000
  C   C232      1.0  0.45478  0.43379  0.11331  1.0000
  C   C233      1.0  0.28591  0.32542  0.28732  1.0000
  C   C234      1.0  0.44823  0.46270  0.10610  1.0000
  C   C235      1.0  0.47975  0.42717  0.13110  1.0000
  H   H273      1.0  0.46901  0.50521  0.26349  1.0000
  H   H274      1.0  0.46014  0.50705  0.11023  1.0000
  H   H275      1.0  0.03267  0.64172  0.00487  1.0000
  H   H276      1.0  0.48471  0.40468  0.13706  1.0000
  N   N15       1.0  0.99698  0.47957  0.19226  1.0000
  H   H277      1.0  0.35929  0.55203  0.48380  1.0000
  H   H278      1.0  0.30334  0.65195  0.29402  1.0000
  C   C236      1.0  0.12000  0.59030  0.01395  1.0000
  H   H279      1.0  0.24869  0.64634  0.43552  1.0000
  C   C237      1.0  0.21944  0.65295  0.37790  1.0000
  C   C238      1.0  0.44080  0.39191  0.00218  1.0000
  S   S66       1.0  0.10037  0.33988  0.67043  1.0000
  H   H280      1.0  0.29469  0.61384  0.85108  1.0000
  H   H281      1.0  0.15687  0.63300  0.75639  1.0000
  S   S67       1.0  0.13816  0.36134  0.75725  1.0000
  S   S68       1.0  0.39851  0.33987  0.79040  1.0000
  Fe  Fe35      1.0  0.39328  0.40374  0.89285  1.0000
  S   S69       1.0  0.35909  0.37294  0.87337  1.0000
  S   S70       1.0  0.42419  0.40185  0.93751  1.0000
  Fe  Fe36      1.0  0.38950  0.44330  0.83058  1.0000
  S   S71       1.0  0.35531  0.41566  0.80628  1.0000
  S   S72       1.0  0.41355  0.48342  0.81116  1.0000
  Fe  Fe37      1.0  0.33575  0.41407  0.85747  1.0000
  S   S73       1.0  0.28728  0.41874  0.86551  1.0000
  Fe  Fe38      1.0  0.38078  0.37644  0.82335  1.0000
  H   H282      1.0  0.22517  0.35797  0.77823  1.0000
  S   S74       1.0  0.36821  0.44440  0.88059  1.0000
  S   S75       1.0  0.41659  0.40443  0.84379  1.0000
  H   H283      1.0  0.23178  0.59766  0.81414  1.0000
  H   H284      1.0  0.47062  0.43830  0.89276  1.0000
  C   C239      1.0  0.00508  0.39428  0.83638  1.0000
  C   C240      1.0  0.32868  0.62830  0.52698  1.0000
  H   H285      1.0  0.35552  0.48906  0.78250  1.0000
  C   C241      1.0  0.22671  0.48279  0.86304  1.0000
  C   C242      1.0  0.24100  0.45612  0.86821  1.0000
  C   C243      1.0  0.27064  0.45314  0.86070  1.0000
  C   C244      1.0  0.28599  0.47712  0.84814  1.0000
  H   H286      1.0  0.20388  0.48477  0.86888  1.0000
  H   H287      1.0  0.22899  0.43768  0.87797  1.0000
  H   H288      1.0  0.30881  0.47502  0.84219  1.0000
  C   C245      1.0  0.12530  0.39726  0.76411  1.0000
  C   C246      1.0  0.10531  0.41068  0.74304  1.0000
  C   C247      1.0  0.09630  0.43953  0.74914  1.0000
  C   C248      1.0  0.10747  0.45540  0.77598  1.0000
  C   C249      1.0  0.12711  0.44181  0.79728  1.0000
  C   C250      1.0  0.13577  0.41287  0.79148  1.0000
  H   H289      1.0  0.09701  0.39896  0.72193  1.0000
  H   H290      1.0  0.08101  0.44980  0.73258  1.0000
  H   H291      1.0  0.13581  0.45364  0.81811  1.0000
  H   H292      1.0  0.15091  0.40267  0.80824  1.0000
  C   C251      1.0  0.01193  0.44710  0.92131  1.0000
  H   H293      1.0  0.20114  0.49946  0.78994  1.0000
  H   H294      1.0  0.00527  0.49093  0.78887  1.0000
  H   H295      1.0  0.07602  0.39604  0.81331  1.0000
  C   C252      1.0  0.23790  0.61834  0.80325  1.0000
  C   C253      1.0  0.21220  0.37755  0.77168  1.0000
  Fe  Fe39      1.0  0.11971  0.52369  0.81633  1.0000
  S   S76       1.0  0.15382  0.55524  0.79793  1.0000
  S   S77       1.0  0.09626  0.49198  0.78208  1.0000
  Fe  Fe40      1.0  0.11963  0.54954  0.88677  1.0000
  S   S78       1.0  0.15472  0.58202  0.87373  1.0000
  S   S79       1.0  0.09006  0.54640  0.93256  1.0000
  Fe  Fe41      1.0  0.13040  0.59010  0.82633  1.0000
  S   S80       1.0  0.11759  0.63725  0.81409  1.0000
  Fe  Fe42      1.0  0.17579  0.54487  0.84626  1.0000
  S   S81       1.0  0.22484  0.54054  0.84313  1.0000
  S   S82       1.0  0.09421  0.55942  0.84068  1.0000
  S   S83       1.0  0.14283  0.51145  0.86311  1.0000
  Fe  Fe43      1.0  0.37677  0.62467  0.70562  1.0000
  N   N16       1.0  0.46239  0.48351  0.90403  1.0000
  S   S84       1.0  0.35544  0.58172  0.72118  1.0000
  S   S85       1.0  0.14842  0.33513  0.59402  1.0000
  H   H296      1.0  0.07011  0.61145  0.90926  1.0000
  S   S86       1.0  0.41398  0.62702  0.66987  1.0000
  C   C254      1.0  0.37193  0.55489  0.74660  1.0000
  C   C255      1.0  0.35583  0.53001  0.75569  1.0000
  C   C256      1.0  0.36813  0.50811  0.77573  1.0000
  C   C257      1.0  0.39683  0.51076  0.78661  1.0000
  C   C258      1.0  0.41291  0.53567  0.77753  1.0000
  C   C259      1.0  0.40052  0.55769  0.75772  1.0000
  H   H297      1.0  0.33377  0.52750  0.74708  1.0000
  H   H298      1.0  0.43513  0.53790  0.78575  1.0000
  H   H299      1.0  0.41318  0.57669  0.75090  1.0000
  C   C260      1.0  0.05305  0.39062  0.81271  1.0000
  C   C261      1.0  0.26716  0.62440  0.79429  1.0000
  C   C262      1.0  0.35991  0.55310  0.51059  1.0000
  C   C263      1.0  0.00878  0.35865  0.72681  1.0000
  H   H300      1.0  0.02807  0.44021  0.93915  1.0000
  C   C264      1.0  0.47088  0.42115  0.77941  1.0000
  C   C265      1.0  0.24204  0.50676  0.85047  1.0000
  C   C266      1.0  0.27174  0.50385  0.84317  1.0000
  H   H301      1.0  0.28379  0.52225  0.83350  1.0000
  C   C267      1.0  0.03455  0.40126  0.83710  1.0000
  C   C268      1.0  0.09335  0.56274  0.97244  1.0000
  N   N17       1.0  0.36127  0.56161  0.61696  1.0000
  C   C269      1.0  0.34901  0.59044  0.62532  1.0000
  C   C270      1.0  0.34314  0.53864  0.63286  1.0000
  C   C271      1.0  0.36130  0.55808  0.58055  1.0000
  C   C272      1.0  0.38728  0.55690  0.56143  1.0000
  C   C273      1.0  0.33468  0.55690  0.56295  1.0000
  C   C274      1.0  0.41767  0.39119  0.97943  1.0000
  C   C275      1.0  0.33411  0.55433  0.52853  1.0000
  H   H302      1.0  0.46209  0.39877  0.99382  1.0000
  H   H303      1.0  0.36252  0.60831  0.61463  1.0000
  H   H304      1.0  0.34799  0.59377  0.65251  1.0000
  H   H305      1.0  0.32660  0.59332  0.61582  1.0000
  H   H306      1.0  0.35054  0.51654  0.62544  1.0000
  H   H307      1.0  0.34416  0.53987  0.66041  1.0000
  H   H308      1.0  0.31980  0.54059  0.62651  1.0000
  H   H309      1.0  0.40856  0.55832  0.57236  1.0000
  H   H310      1.0  0.31407  0.55876  0.57554  1.0000
  C   C276      1.0  0.01236  0.36513  0.78616  1.0000
  H   H311      1.0  0.04314  0.41476  0.85669  1.0000
  H   H312      1.0  0.45297  0.49548  0.95482  1.0000
  H   H313      1.0  0.32066  0.61781  0.76322  1.0000
  H   H314      1.0  0.19369  0.63359  0.80547  1.0000
  H   H315      1.0  0.00045  0.38131  0.72475  1.0000
  C   C277      1.0  0.38823  0.63780  0.52126  1.0000
  C   C278      1.0  0.21625  0.45598  0.77994  1.0000
  H   H316      1.0  0.07662  0.63806  0.69593  1.0000
  H   H317      1.0  0.45045  0.51312  0.86508  1.0000
  H   H318      1.0  0.26655  0.42375  0.79279  1.0000
  C   C279      1.0  0.15702  0.32591  0.55223  1.0000
  H   H319      1.0  0.40117  0.53865  0.62655  1.0000
  H   H320      1.0  0.40640  0.55410  0.51275  1.0000
  C   C280      1.0  0.19044  0.43005  0.73704  1.0000
  C   C281      1.0  0.14805  0.65479  0.75734  1.0000
  C   C282      1.0  0.48229  0.32863  0.79169  1.0000
  H   H321      1.0  0.19965  0.37154  0.74931  1.0000
  H   H322      1.0  0.06681  0.34370  0.59357  1.0000
  H   H323      1.0  0.41133  0.64152  0.51876  1.0000
  C   C283      1.0  0.99879  0.47799  0.81108  1.0000
  H   H324      1.0  0.05190  0.48042  0.83746  1.0000
  H   H325      1.0  0.26367  0.38020  0.73988  1.0000
  H   H326      1.0  0.45087  0.43294  0.78403  1.0000
  C   C284      1.0  0.37455  0.64309  0.55186  1.0000
  H   H327      1.0  0.28179  0.58099  0.75356  1.0000
  H   H328      1.0  0.03255  0.35916  0.72185  1.0000
  H   H329      1.0  0.09539  0.32497  0.54983  1.0000
  H   H330      1.0  0.46242  0.46115  0.85705  1.0000
  C   C285      1.0  0.11835  0.57784  0.98214  1.0000
  H   H331      1.0  0.99657  0.53587  0.82360  1.0000
  C   C286      1.0  0.19831  0.48010  0.77497  1.0000
  H   H332      1.0  0.48245  0.34863  0.71074  1.0000
  C   C287      1.0  0.04226  0.37272  0.78769  1.0000
  H   H333      1.0  0.26259  0.56533  0.78822  1.0000
  H   H334      1.0  0.23579  0.39544  0.71438  1.0000
  H   H335      1.0  0.05767  0.36468  0.76966  1.0000
  C   C288      1.0  0.03829  0.50030  0.84010  1.0000
  H   H336      1.0  0.43013  0.46758  0.93871  1.0000
  C   C289      1.0  0.24907  0.39931  0.73688  1.0000
  C   C290      1.0  0.16142  0.34854  0.52913  1.0000
  H   H337      1.0  0.15980  0.37094  0.53714  1.0000
  H   H338      1.0  0.27074  0.58360  0.84411  1.0000
  H   H339      1.0  0.43456  0.44997  0.88491  1.0000
  H   H340      1.0  0.05063  0.54882  0.98790  1.0000
  C   C291      1.0  0.39065  0.55990  0.63192  1.0000
  H   H341      1.0  0.40499  0.57785  0.62295  1.0000
  C   C292      1.0  0.07006  0.56047  0.99502  1.0000
  C   C293      1.0  0.34461  0.63826  0.55453  1.0000
  H   H342      1.0  0.99914  0.34578  0.70627  1.0000
  C   C294      1.0  0.38641  0.55442  0.52698  1.0000
  H   H343      1.0  0.44366  0.52668  0.90605  1.0000
  H   H344      1.0  0.16208  0.49766  0.74811  1.0000
  Fe  Fe44      1.0  0.12585  0.32983  0.71599  1.0000
  H   H345      1.0  0.42043  0.49946  0.88872  1.0000
  C   C295      1.0  0.99924  0.47435  0.87094  1.0000
  H   H346      1.0  0.04268  0.47106  0.89324  1.0000
  C   C296      1.0  0.09273  0.61913  0.90522  1.0000
  C   C297      1.0  0.21587  0.63876  0.79830  1.0000
  H   H347      1.0  0.04575  0.51275  0.86212  1.0000
  H   H348      1.0  0.13660  0.57958  0.96536  1.0000
  H   H349      1.0  0.26302  0.38574  0.79977  1.0000
  H   H350      1.0  0.19625  0.38105  0.79202  1.0000
  H   H351      1.0  0.30050  0.55893  0.78334  1.0000
  N   N18       1.0  0.00686  0.49299  0.84219  1.0000
  H   H352      1.0  0.04506  0.63848  0.94628  1.0000
  H   H353      1.0  0.38976  0.56210  0.65939  1.0000
  H   H354      1.0  0.15543  0.45360  0.71404  1.0000
  C   C298      1.0  0.28337  0.57579  0.78041  1.0000
  H   H355      1.0  0.23765  0.40971  0.81881  1.0000
  N   N19       1.0  0.29004  0.60231  0.79985  1.0000
  C   C299      1.0  0.31956  0.61239  0.79006  1.0000
  N   N20       1.0  0.00162  0.34580  0.75959  1.0000
  C   C300      1.0  0.02003  0.46489  0.89460  1.0000
  C   C301      1.0  0.17649  0.47924  0.75125  1.0000
  N   N21       1.0  0.09764  0.64949  0.91618  1.0000
  C   C302      1.0  0.21242  0.42989  0.76158  1.0000
  C   C303      1.0  0.17277  0.45437  0.73209  1.0000
  C   C304      1.0  0.25022  0.40596  0.79564  1.0000
  H   H356      1.0  0.18627  0.41115  0.72192  1.0000
  H   H357      1.0  0.44907  0.38045  0.77473  1.0000
  H   H358      1.0  0.33625  0.59523  0.79416  1.0000
  H   H359      1.0  0.46682  0.45918  0.94932  1.0000
  H   H360      1.0  0.26298  0.41877  0.73200  1.0000
  H   H361      1.0  0.30880  0.57846  0.84064  1.0000
  H   H362      1.0  0.10706  0.60393  0.91891  1.0000
  C   C305      1.0  0.09032  0.65204  0.95176  1.0000
  C   C306      1.0  0.47008  0.39110  0.77386  1.0000
  H   H363      1.0  0.09737  0.61649  0.87840  1.0000
  C   C307      1.0  0.99397  0.37657  0.81129  1.0000
  C   C308      1.0  0.29110  0.59429  0.83542  1.0000
  C   C309      1.0  0.44350  0.50678  0.89055  1.0000
  C   C310      1.0  0.45279  0.47632  0.93821  1.0000
  H   H364      1.0  0.04340  0.51411  0.81810  1.0000
  H   H365      1.0  0.31360  0.55436  0.51541  1.0000
  N   N22       1.0  0.23072  0.40375  0.76657  1.0000
  H   H366      1.0  0.37225  0.38153  0.97362  1.0000
  H   H367      1.0  0.23278  0.45829  0.79855  1.0000
  H   H368      1.0  0.33358  0.64277  0.57757  1.0000
  C   C311      1.0  0.45763  0.45710  0.88369  1.0000
  H   H369      1.0  0.01610  0.32418  0.54856  1.0000
  C   C312      1.0  0.47499  0.33688  0.73339  1.0000
  H   H370      1.0  0.03287  0.32766  0.60570  1.0000
  H   H371      1.0  0.32647  0.63182  0.80444  1.0000
  H   H372      1.0  0.13305  0.65475  0.88137  1.0000
  H   H373      1.0  0.00963  0.45643  0.80922  1.0000
  H   H374      1.0  0.04869  0.34091  0.53386  1.0000
  C   C313      1.0  0.05522  0.32256  0.59714  1.0000
  H   H375      1.0  0.45979  0.33577  0.79738  1.0000
  H   H376      1.0  0.45202  0.34303  0.73828  1.0000
  H   H377      1.0  0.30554  0.62480  0.52936  1.0000
  H   H378      1.0  0.14369  0.64217  0.92121  1.0000
  H   H379      1.0  0.99504  0.53211  0.86794  1.0000
  H   H380      1.0  0.99072  0.40242  0.85555  1.0000
  C   C314      1.0  0.39029  0.38221  0.99067  1.0000
  C   C315      1.0  0.05434  0.64755  0.99657  1.0000
  H   H381      1.0  0.02434  0.64994  0.69660  1.0000
  C   C316      1.0  0.99061  0.52078  0.84417  1.0000
  C   C317      1.0  0.06176  0.64563  0.96311  1.0000
  C   C318      1.0  0.27292  0.65217  0.77980  1.0000
  H   H382      1.0  0.48546  0.52965  0.93833  1.0000
  Fe  Fe45      1.0  0.17297  0.85310  0.38802  1.0000
  S   S87       1.0  0.13967  0.88437  0.36793  1.0000
  S   S88       1.0  0.17852  0.83756  0.44205  1.0000
  Fe  Fe46      1.0  0.20546  0.84984  0.32008  1.0000
  S   S89       1.0  0.17406  0.88066  0.29604  1.0000
  S   S90       1.0  0.23913  0.82807  0.28644  1.0000
  Fe  Fe47      1.0  0.17804  0.90624  0.34307  1.0000
  S   S91       1.0  0.18195  0.95543  0.34078  1.0000
  Fe  Fe48      1.0  0.13842  0.85609  0.32230  1.0000
  S   S92       1.0  0.09951  0.83636  0.29457  1.0000
  S   S93       1.0  0.21153  0.87705  0.36569  1.0000
  S   S94       1.0  0.16964  0.82324  0.34383  1.0000
  S   S95       1.0  0.05987  0.70701  0.18386  1.0000
  Fe  Fe49      1.0  0.42813  0.87256  0.14032  1.0000
  S   S96       1.0  0.39663  0.83871  0.15992  1.0000
  S   S97       1.0  0.42511  0.90327  0.09518  1.0000
  Fe  Fe50      1.0  0.46851  0.86627  0.20156  1.0000
  S   S98       1.0  0.43994  0.83227  0.22532  1.0000
  H   H383      1.0  0.11549  0.72197  0.22678  1.0000
  Fe  Fe51      1.0  0.43716  0.81378  0.17395  1.0000
  S   S99       1.0  0.43885  0.76482  0.16713  1.0000
  Fe  Fe52      1.0  0.40158  0.85956  0.20997  1.0000
  S   S100      1.0  0.36692  0.87328  0.24800  1.0000
  S   S101      1.0  0.46823  0.84601  0.15096  1.0000
  S   S102      1.0  0.43052  0.89519  0.18968  1.0000
  C   C319      1.0  0.41200  0.89586  0.05447  1.0000
  C   C320      1.0  0.41526  0.91716  0.02947  1.0000
  H   H384      1.0  0.18235  0.68077  0.29426  1.0000
  C   C321      1.0  0.39771  0.86985  0.04667  1.0000
  H   H385      1.0  0.42614  0.93743  0.03515  1.0000
  H   H386      1.0  0.39497  0.85323  0.06547  1.0000
  H   H387      1.0  0.23083  0.67236  0.36760  1.0000
  H   H388      1.0  0.40175  0.72317  0.19609  1.0000
  C   C322      1.0  0.02227  0.75308  0.17876  1.0000
  C   C323      1.0  0.02557  0.72275  0.17712  1.0000
  C   C324      1.0  0.47326  0.71619  0.16520  1.0000
  H   H389      1.0  0.99347  0.91517  0.10404  1.0000
  H   H390      1.0  0.11744  0.77291  0.29747  1.0000
  H   H391      1.0  0.04100  0.76679  0.18325  1.0000
  C   C325      1.0  0.40445  0.68073  0.26476  1.0000
  H   H392      1.0  0.45316  0.70415  0.16289  1.0000
  C   C326      1.0  0.19191  0.91213  0.49041  1.0000
  H   H393      1.0  0.08878  0.91430  0.21289  1.0000
  C   C327      1.0  0.25096  0.93383  0.26744  1.0000
  C   C328      1.0  0.03416  0.77534  0.30968  1.0000
  C   C329      1.0  0.47264  0.74671  0.16741  1.0000
  C   C330      1.0  0.24115  0.95620  0.35182  1.0000
  H   H394      1.0  0.28705  0.95768  0.36216  1.0000
  H   H395      1.0  0.23999  0.93274  0.35300  1.0000
  C   C331      1.0  0.02157  0.87760  0.23996  1.0000
  C   C332      1.0  0.03945  0.89487  0.26022  1.0000
  C   C333      1.0  0.06341  0.88274  0.27702  1.0000
  C   C334      1.0  0.07006  0.85320  0.27338  1.0000
  C   C335      1.0  0.05233  0.83602  0.25285  1.0000
  C   C336      1.0  0.02817  0.84804  0.23639  1.0000
  H   H396      1.0  0.03453  0.91772  0.26332  1.0000
  H   H397      1.0  0.07640  0.89615  0.29322  1.0000
  H   H398      1.0  0.05720  0.81320  0.24962  1.0000
  H   H399      1.0  0.13957  0.70414  0.27065  1.0000
  C   C337      1.0  0.27489  0.84052  0.27652  1.0000
  C   C338      1.0  0.28885  0.86220  0.29482  1.0000
  C   C339      1.0  0.31721  0.87131  0.28619  1.0000
  C   C340      1.0  0.33189  0.85932  0.25884  1.0000
  C   C341      1.0  0.31801  0.83747  0.24067  1.0000
  C   C342      1.0  0.28980  0.82801  0.24965  1.0000
  H   H400      1.0  0.27784  0.87192  0.31567  1.0000
  H   H401      1.0  0.32770  0.88794  0.30074  1.0000
  H   H402      1.0  0.32887  0.82801  0.21955  1.0000
  H   H403      1.0  0.27933  0.81111  0.23538  1.0000
  C   C343      1.0  0.15759  0.83509  0.47953  1.0000
  C   C344      1.0  0.33720  0.92638  0.02625  1.0000
  H   H404      1.0  0.11824  0.85346  0.46015  1.0000
  H   H405      1.0  0.18911  0.78500  0.26274  1.0000
  H   H406      1.0  0.44641  0.72159  0.27213  1.0000
  C   C345      1.0  0.22027  0.95362  0.46722  1.0000
  C   C346      1.0  0.00121  0.70517  0.17158  1.0000
  C   C347      1.0  0.30128  0.94835  0.25473  1.0000
  H   H407      1.0  0.45246  0.69906  0.23642  1.0000
  C   C348      1.0  0.03734  0.98584  0.06900  1.0000
  C   C349      1.0  0.35679  0.77954  0.28706  1.0000
  C   C350      1.0  0.99336  0.92299  0.13002  1.0000
  C   C351      1.0  0.00769  0.97279  0.11757  1.0000
  H   H408      1.0  0.14074  0.74197  0.20152  1.0000
  H   H409      1.0  0.36975  0.70836  0.30207  1.0000
  H   H410      1.0  0.37591  0.80549  0.24837  1.0000
  H   H411      1.0  0.34397  0.79742  0.29669  1.0000
  H   H412      1.0  0.01478  0.83448  0.22076  1.0000
  H   H413      1.0  0.36193  0.96449  0.03867  1.0000
  H   H414      1.0  0.10440  0.75502  0.20817  1.0000
  H   H415      1.0  0.23507  0.89531  0.24318  1.0000
  C   C352      1.0  0.13640  0.95424  0.25830  1.0000
  Fe  Fe53      1.0  0.06077  0.65844  0.17455  1.0000
  C   C353      1.0  0.37181  0.72898  0.28933  1.0000
  H   H416      1.0  0.99237  0.78916  0.17590  1.0000
  H   H417      1.0  0.12048  0.91011  0.26178  1.0000
  C   C354      1.0  0.12881  0.84466  0.48181  1.0000
  H   H418      1.0  0.34142  0.74876  0.32319  1.0000
  H   H419      1.0  0.41765  0.66323  0.25313  1.0000
  C   C355      1.0  0.23105  0.90363  0.45252  1.0000
  N   N23       1.0  0.48311  0.97781  0.16267  1.0000
  C   C356      1.0  0.11762  0.98279  0.21271  1.0000
  H   H420      1.0  0.17615  0.90441  0.42907  1.0000
  H   H421      1.0  0.02320  0.67068  0.27519  1.0000
  H   H422      1.0  0.00344  0.68178  0.17073  1.0000
  C   C357      1.0  0.05291  0.76297  0.33266  1.0000
  C   C358      1.0  0.38662  0.86537  0.01455  1.0000
  H   H423      1.0  0.02747  0.69703  0.24278  1.0000
  N   N24       1.0  0.20763  0.92438  0.46132  1.0000
  N   N25       1.0  0.13358  0.76083  0.24956  1.0000
  H   H424      1.0  0.34691  0.91321  0.04558  1.0000
  C   C359      1.0  0.27455  0.95275  0.27172  1.0000
  C   C360      1.0  0.99477  0.76578  0.17452  1.0000
  H   H425      1.0  0.37545  0.84520  0.00904  1.0000
  H   H426      1.0  0.37449  0.69851  0.21101  1.0000
  N   N26       1.0  0.99408  0.70768  0.27793  1.0000
  H   H427      1.0  0.34926  0.93363  0.28700  1.0000
  C   C361      1.0  0.26786  0.97039  0.35689  1.0000
  H   H428      1.0  0.28003  0.88809  0.21075  1.0000
  H   H429      1.0  0.43959  0.96019  0.16568  1.0000
  H   H430      1.0  0.23057  0.76050  0.28570  1.0000
  H   H431      1.0  0.06946  0.65662  0.04575  1.0000
  H   H432      1.0  0.11851  0.80136  0.22830  1.0000
  H   H433      1.0  0.24179  0.90919  0.42868  1.0000
  C   C362      1.0  0.35322  0.94913  0.26624  1.0000
  N   N27       1.0  0.40744  0.70885  0.24672  1.0000
  H   H434      1.0  0.40442  0.76577  0.22549  1.0000
  H   H435      1.0  0.06768  0.77680  0.34645  1.0000
  C   C363      1.0  0.39806  0.70381  0.21215  1.0000
  H   H436      1.0  0.00133  0.76899  0.27412  1.0000
  H   H437      1.0  0.09042  0.77227  0.26570  1.0000
  H   H438      1.0  0.44546  0.98606  0.13272  1.0000
  H   H439      1.0  0.27887  0.66437  0.34910  1.0000
  C   C364      1.0  0.39109  0.76112  0.24692  1.0000
  H   H440      1.0  0.00572  0.95191  0.06919  1.0000
  C   C365      1.0  0.21058  0.74828  0.28216  1.0000
  H   H441      1.0  0.14491  0.80559  0.25980  1.0000
  H   H442      1.0  0.24002  0.95757  0.41842  1.0000
  C   C366      1.0  0.18336  0.70352  0.28701  1.0000
  H   H443      1.0  0.19725  0.93249  0.40986  1.0000
  H   H444      1.0  0.10350  0.73877  0.28246  1.0000
  H   H445      1.0  0.22810  0.70811  0.30106  1.0000
  H   H446      1.0  0.22254  0.88102  0.44959  1.0000
  C   C367      1.0  0.39015  0.73282  0.26123  1.0000
  H   H447      1.0  0.99721  0.67238  0.24281  1.0000
  C   C368      1.0  0.25297  0.91057  0.24558  1.0000
  H   H448      1.0  0.27228  0.66012  0.40415  1.0000
  C   C369      1.0  0.34581  0.95526  0.02226  1.0000
  H   H449      1.0  0.17300  0.92580  0.49749  1.0000
  H   H450      1.0  0.32147  0.92054  0.21744  1.0000
  H   H451      1.0  0.98873  0.73542  0.23544  1.0000
  H   H452      1.0  0.04332  0.98227  0.04338  1.0000
  C   C370      1.0  0.10194  0.93275  0.22043  1.0000
  H   H453      1.0  0.37247  0.96260  0.27286  1.0000
  H   H454      1.0  0.24807  0.90300  0.47197  1.0000
  C   C371      1.0  0.15902  0.71714  0.27343  1.0000
  H   H455      1.0  0.44338  0.73635  0.23122  1.0000
  C   C372      1.0  0.23664  0.96776  0.44204  1.0000
  C   C373      1.0  0.20917  0.71896  0.29105  1.0000
  C   C374      1.0  0.18633  0.76219  0.26874  1.0000
  H   H456      1.0  0.15570  0.79281  0.21928  1.0000
  C   C375      1.0  0.11976  0.93043  0.24803  1.0000
  C   C376      1.0  0.33228  0.98477  0.22948  1.0000
  C   C377      1.0  0.13856  0.79141  0.23870  1.0000
  H   H457      1.0  0.41026  0.68564  0.20046  1.0000
  C   C378      1.0  0.35538  0.75210  0.30186  1.0000
  C   C379      1.0  0.11024  0.76108  0.27490  1.0000
  C   C380      1.0  0.15978  0.74688  0.26360  1.0000
  C   C381      1.0  0.37473  0.78405  0.25975  1.0000
  H   H458      1.0  0.16927  0.94201  0.43861  1.0000
  C   C382      1.0  0.12323  0.74425  0.22037  1.0000
  C   C383      1.0  0.43871  0.71681  0.24668  1.0000
  C   C384      1.0  0.21611  0.97245  0.34574  1.0000
  C   C385      1.0  0.01504  0.75781  0.29164  1.0000
  C   C386      1.0  0.18673  0.92592  0.43355  1.0000
  H   H459      1.0  0.35999  0.93604  0.24451  1.0000
  N   N28       1.0  0.32712  0.96719  0.25973  1.0000
  C   C387      1.0  0.30212  0.92512  0.23168  1.0000
  C   C388      1.0  0.27834  0.90651  0.22736  1.0000
  H   H460      1.0  0.45895  0.94955  0.12973  1.0000
  C   C389      1.0  0.01404  0.72706  0.29643  1.0000
  H   H461      1.0  0.03449  0.79877  0.30590  1.0000
  C   C390      1.0  0.03351  0.71520  0.32004  1.0000
  C   C391      1.0  0.10084  0.95888  0.20284  1.0000
  H   H462      1.0  0.38166  0.67261  0.26488  1.0000
  C   C392      1.0  0.01120  0.68605  0.25900  1.0000
  H   H463      1.0  0.18295  0.89006  0.48516  1.0000
  H   H464      1.0  0.08679  0.96066  0.18147  1.0000
  H   H465      1.0  0.31235  0.89106  0.00773  1.0000
  C   C393      1.0  0.45565  0.96806  0.14702  1.0000
  C   C394      1.0  0.05262  0.73295  0.33781  1.0000
  H   H466      1.0  0.06720  0.72342  0.35583  1.0000
  H   H467      1.0  0.33660  0.97081  0.20760  1.0000
  H   H468      1.0  0.41207  0.68243  0.29080  1.0000
  H   H469      1.0  0.14921  0.95150  0.28042  1.0000
  H   H470      1.0  0.27142  0.97039  0.28885  1.0000
  H   H471      1.0  0.31957  0.97547  0.31143  1.0000
  H   H472      1.0  0.23119  0.93687  0.28167  1.0000
  H   H473      1.0  0.48273  0.94397  0.20002  1.0000
  H   H474      1.0  0.01517  0.91904  0.14090  1.0000
  H   H475      1.0  0.03406  0.69204  0.32491  1.0000
  H   H476      1.0  0.11937  0.66791  0.02789  1.0000
  C   C395      1.0  0.21689  0.96887  0.49755  1.0000
  H   H477      1.0  0.20663  0.66033  0.39967  1.0000
  H   H478      1.0  0.99998  0.95656  0.18323  1.0000
  C   C396      1.0  0.07500  0.65604  0.01966  1.0000
  S   S103      1.0  0.99156  0.89387  0.21927  1.0000
  C   C397      1.0  0.01593  0.96858  0.08405  1.0000
  H   H479      1.0  0.48187  0.97529  0.02032  1.0000
  C   C398      1.0  0.10320  0.66246  0.00946  1.0000
  H   H480      1.0  0.18756  0.98075  0.27608  1.0000
  C   C399      1.0  0.13614  0.98110  0.24077  1.0000
  C   C400      1.0  0.32404  0.98753  0.28801  1.0000
  H   H481      1.0  0.48653  0.83464  0.34743  1.0000
  H   H482      1.0  0.19346  0.98833  0.23300  1.0000
  C   C401      1.0  0.31725  0.91393  0.00447  1.0000
  H   H483      1.0  0.48672  0.81252  0.40332  1.0000
  Fe  Fe54      1.0  0.11130  0.81481  0.63319  1.0000
  S   S104      1.0  0.08587  0.84206  0.66982  1.0000
  S   S105      1.0  0.10589  0.82925  0.57855  1.0000
  Fe  Fe55      1.0  0.12909  0.77133  0.68893  1.0000
  S   S106      1.0  0.10551  0.79611  0.72822  1.0000
  S   S107      1.0  0.15246  0.72838  0.70023  1.0000
  Fe  Fe56      1.0  0.06982  0.79944  0.69065  1.0000
  S   S108      1.0  0.02397  0.79144  0.70931  1.0000
  Fe  Fe57      1.0  0.12357  0.83669  0.70429  1.0000
  S   S109      1.0  0.14559  0.87263  0.73452  1.0000
  S   S110      1.0  0.09229  0.77241  0.65234  1.0000
  S   S111      1.0  0.15029  0.81169  0.66686  1.0000
  H   H484      1.0  0.18803  0.78165  0.72383  1.0000
  S   S112      1.0  0.40595  0.69815  0.66965  1.0000
  C   C402      1.0  0.47520  0.72825  0.70355  1.0000
  Fe  Fe58      1.0  0.36983  0.69116  0.70648  1.0000
  S   S113      1.0  0.34251  0.72646  0.73131  1.0000
  C   C403      1.0  0.98777  0.82369  0.63963  1.0000
  Fe  Fe59      1.0  0.37056  0.90020  0.89802  1.0000
  S   S114      1.0  0.34132  0.87343  0.86502  1.0000
  S   S115      1.0  0.37391  0.87984  0.95002  1.0000
  Fe  Fe60      1.0  0.38164  0.94470  0.84173  1.0000
  S   S116      1.0  0.35347  0.92079  0.80550  1.0000
  H   H485      1.0  0.28376  0.88263  0.91851  1.0000
  Fe  Fe61      1.0  0.32279  0.91633  0.84863  1.0000
  S   S117      1.0  0.27386  0.91939  0.84358  1.0000
  Fe  Fe62      1.0  0.37425  0.87973  0.82477  1.0000
  S   S118      1.0  0.39387  0.84504  0.79075  1.0000
  S   S119      1.0  0.34948  0.94284  0.88401  1.0000
  S   S120      1.0  0.40500  0.90395  0.85842  1.0000
  H   H486      1.0  0.45470  0.66656  0.61510  1.0000
  H   H487      1.0  0.03859  0.82030  0.57833  1.0000
  N   N29       1.0  0.05928  0.68146  0.69402  1.0000
  C   C404      1.0  0.06892  0.68836  0.58796  1.0000
  H   H488      1.0  0.11137  0.70561  0.59845  1.0000
  C   C405      1.0  0.35735  0.75885  0.74874  1.0000
  C   C406      1.0  0.38629  0.76707  0.74342  1.0000
  C   C407      1.0  0.39702  0.79337  0.75666  1.0000
  C   C408      1.0  0.37910  0.81178  0.77552  1.0000
  C   C409      1.0  0.35025  0.80341  0.78122  1.0000
  C   C410      1.0  0.33948  0.77711  0.76789  1.0000
  H   H489      1.0  0.40032  0.75330  0.72883  1.0000
  H   H490      1.0  0.41937  0.79946  0.75217  1.0000
  H   H491      1.0  0.33626  0.81718  0.79588  1.0000
  H   H492      1.0  0.31724  0.77076  0.77268  1.0000
  C   C411      1.0  0.45956  0.89786  0.78281  1.0000
  C   C412      1.0  0.22683  0.95589  0.84618  1.0000
  C   C413      1.0  0.25719  0.95379  0.84808  1.0000
  C   C414      1.0  0.48347  0.94429  0.79064  1.0000
  C   C415      1.0  0.23391  0.77375  0.72550  1.0000
  H   H493      1.0  0.21398  0.93668  0.84101  1.0000
  C   C416      1.0  0.45486  0.72307  0.60727  1.0000
  C   C417      1.0  0.04330  0.67708  0.60132  1.0000
  H   H494      1.0  0.01466  0.85132  0.71579  1.0000
  C   C418      1.0  0.01198  0.75305  0.65904  1.0000
  C   C419      1.0  0.00299  0.76477  0.68917  1.0000
  H   H495      1.0  0.46701  0.82470  0.72763  1.0000
  H   H496      1.0  0.44305  0.85191  0.74295  1.0000
  H   H497      1.0  0.05056  0.72719  0.69959  1.0000
  H   H498      1.0  0.03135  0.76117  0.64703  1.0000
  H   H499      1.0  0.47141  0.86185  0.71437  1.0000
  H   H500      1.0  0.45230  0.72638  0.70920  1.0000
  C   C420      1.0  0.14388  0.70374  0.73304  1.0000
  C   C421      1.0  0.15569  0.67548  0.73280  1.0000
  H   H501      1.0  0.13347  0.67995  0.91495  1.0000
  H   H502      1.0  0.28890  0.94533  0.91370  1.0000
  C   C422      1.0  0.11745  0.69071  0.78330  1.0000
  C   C423      1.0  0.12492  0.71128  0.75868  1.0000
  H   H503      1.0  0.47426  0.77506  0.69969  1.0000
  S   S121      1.0  0.47752  0.66853  0.70954  1.0000
  H   H504      1.0  0.10264  0.69687  0.80285  1.0000
  H   H505      1.0  0.11589  0.73299  0.75949  1.0000
  C   C424      1.0  0.12851  0.90269  0.75429  1.0000
  C   C425      1.0  0.09839  0.90667  0.75370  1.0000
  C   C426      1.0  0.08579  0.93078  0.76983  1.0000
  C   C427      1.0  0.10308  0.95125  0.78665  1.0000
  C   C428      1.0  0.13319  0.94725  0.78727  1.0000
  C   C429      1.0  0.14578  0.92310  0.77122  1.0000
  H   H506      1.0  0.08484  0.89116  0.74083  1.0000
  H   H507      1.0  0.06251  0.93362  0.76917  1.0000
  C   C430      1.0  0.12832  0.65702  0.90830  1.0000
  H   H508      1.0  0.16908  0.92029  0.77189  1.0000
  C   C431      1.0  0.12665  0.83124  0.54092  1.0000
  C   C432      1.0  0.15551  0.82190  0.53867  1.0000
  H   H509      1.0  0.06287  0.70963  0.73660  1.0000
  C   C433      1.0  0.46810  0.69623  0.55899  1.0000
  H   H510      1.0  0.45439  0.84052  0.80062  1.0000
  H   H511      1.0  0.16605  0.81307  0.56034  1.0000
  N   N30       1.0  0.28369  0.91650  0.95560  1.0000
  C   C434      1.0  0.22223  0.66572  0.78407  1.0000
  H   H512      1.0  0.10655  0.70073  0.65808  1.0000
  C   C435      1.0  0.11094  0.66054  0.97605  1.0000
  H   H513      1.0  0.00008  0.95420  0.83908  1.0000
  C   C436      1.0  0.29811  0.89247  0.93760  1.0000
  H   H514      1.0  0.48454  0.68038  0.63883  1.0000
  H   H515      1.0  0.99779  0.79184  0.60228  1.0000
  C   C437      1.0  0.03313  0.85613  0.61174  1.0000
  Fe  Fe63      1.0  0.42944  0.66489  0.69993  1.0000
  N   N31       1.0  0.48634  0.85327  0.76378  1.0000
  C   C438      1.0  0.27165  0.93689  0.93056  1.0000
  H   H516      1.0  0.45890  0.72752  0.63392  1.0000
  H   H517      1.0  0.45403  0.74411  0.59358  1.0000
  H   H518      1.0  0.05557  0.66282  0.89809  1.0000
  C   C439      1.0  0.08830  0.69413  0.64306  1.0000
  C   C440      1.0  0.20921  0.79071  0.72969  1.0000
  H   H519      1.0  0.20653  0.90951  0.51206  1.0000
  S   S122      1.0  0.39578  0.65658  0.58543  1.0000
  H   H520      1.0  0.31794  0.90052  0.92479  1.0000
  C   C441      1.0  0.00075  0.87035  0.70961  1.0000
  H   H521      1.0  0.43267  0.71335  0.60579  1.0000
  C   C442      1.0  0.45846  0.92722  0.79161  1.0000
  C   C443      1.0  0.47697  0.83556  0.79272  1.0000
  H   H522      1.0  0.14681  0.96273  0.80012  1.0000
  H   H523      1.0  0.08095  0.69202  0.90491  1.0000
  H   H524      1.0  0.40678  0.92924  0.97844  1.0000
  C   C444      1.0  0.99498  0.85096  0.65410  1.0000
  H   H525      1.0  0.24199  0.89497  0.95816  1.0000
  H   H526      1.0  0.03849  0.95718  0.84192  1.0000
  C   C445      1.0  0.01776  0.86713  0.63882  1.0000
  H   H527      1.0  0.10316  0.66624  0.70060  1.0000
  N   N32       1.0  0.24094  0.86261  0.75977  1.0000
  C   C446      1.0  0.23089  0.88207  0.73281  1.0000
  C   C447      1.0  0.22210  0.86714  0.78917  1.0000
  C   C448      1.0  0.27084  0.87185  0.76887  1.0000
  C   C449      1.0  0.23902  0.83191  0.74870  1.0000
  C   C450      1.0  0.21164  0.81938  0.74093  1.0000
  C   C451      1.0  0.26386  0.81390  0.74432  1.0000
  H   H528      1.0  0.01552  0.88846  0.70237  1.0000
  H   H529      1.0  0.07131  0.69072  0.56142  1.0000
  C   C452      1.0  0.26117  0.78530  0.73274  1.0000
  H   H530      1.0  0.20782  0.87791  0.72614  1.0000
  H   H531      1.0  0.23225  0.90543  0.74000  1.0000
  H   H532      1.0  0.24408  0.87901  0.70998  1.0000
  H   H533      1.0  0.19860  0.86473  0.78338  1.0000
  H   H534      1.0  0.22468  0.88948  0.79951  1.0000
  H   H535      1.0  0.22748  0.85140  0.80921  1.0000
  H   H536      1.0  0.27955  0.85845  0.78957  1.0000
  H   H537      1.0  0.28604  0.87068  0.74747  1.0000
  H   H538      1.0  0.27147  0.89490  0.77743  1.0000
  H   H539      1.0  0.19184  0.83178  0.74311  1.0000
  H   H540      1.0  0.28566  0.82134  0.74943  1.0000
  S   S123      1.0  0.40748  0.98540  0.82694  1.0000
  H   H541      1.0  0.01825  0.94154  0.87564  1.0000
  H   H542      1.0  0.08782  0.71800  0.70432  1.0000
  H   H543      1.0  0.23188  0.75165  0.71638  1.0000
  H   H544      1.0  0.26549  0.88654  0.99166  1.0000
  H   H545      1.0  0.02432  0.88817  0.64807  1.0000
  C   C453      1.0  0.21287  0.98274  0.85123  1.0000
  C   C454      1.0  0.25067  0.67238  0.77481  1.0000
  C   C455      1.0  0.09142  0.69676  0.60880  1.0000
  N   N33       1.0  0.47716  0.70331  0.59325  1.0000
  C   C456      1.0  0.27357  0.97881  0.85474  1.0000
  H   H546      1.0  0.43952  0.88561  0.78416  1.0000
  C   C457      1.0  0.06217  0.68351  0.65760  1.0000
  C   C458      1.0  0.07885  0.66907  0.89644  1.0000
  C   C459      1.0  0.99597  0.73056  0.64440  1.0000
  H   H547      1.0  0.00312  0.72157  0.62111  1.0000
  C   C460      1.0  0.38977  0.88663  0.98957  1.0000
  H   H548      1.0  0.43800  0.93677  0.79925  1.0000
  H   H549      1.0  0.08466  0.66846  0.86964  1.0000
  H   H550      1.0  0.17043  0.66936  0.71314  1.0000
  C   C461      1.0  0.01803  0.95904  0.85652  1.0000
  C   C462      1.0  0.25884  0.90439  0.97471  1.0000
  H   H551      1.0  0.28039  0.77202  0.72911  1.0000
  C   C463      1.0  0.40437  0.91256  0.99720  1.0000
  C   C464      1.0  0.31409  0.95977  0.97486  1.0000
  H   H552      1.0  0.18946  0.98411  0.84980  1.0000
  C   C465      1.0  0.03987  0.67453  0.63558  1.0000
  H   H553      1.0  0.25550  0.92601  0.91424  1.0000
  C   C466      1.0  0.11353  0.84268  0.51220  1.0000
  C   C467      1.0  0.30480  0.93031  0.97829  1.0000
  H   H554      1.0  0.29698  0.97751  0.85605  1.0000
  C   C468      1.0  0.46608  0.84776  0.73603  1.0000
  H   H555      1.0  0.26037  0.95563  0.94224  1.0000
  H   H556      1.0  0.29439  0.65891  0.77198  1.0000
  H   H557      1.0  0.24836  0.92162  0.98990  1.0000
  H   H558      1.0  0.30534  0.87462  0.95428  1.0000
  H   H559      1.0  0.20507  0.68146  0.78010  1.0000
  H   H560      1.0  0.09126  0.85002  0.51346  1.0000
  C   C469      1.0  0.12883  0.66231  0.78278  1.0000
  C   C470      1.0  0.02603  0.82902  0.59875  1.0000
  H   H561      1.0  0.20478  0.96001  0.51818  1.0000
  H   H562      1.0  0.98976  0.87727  0.73283  1.0000
  H   H563      1.0  0.46676  0.94340  0.97433  1.0000
  H   H564      1.0  0.01292  0.68757  0.69646  1.0000
  H   H565      1.0  0.47723  0.81182  0.78717  1.0000
  H   H566      1.0  0.48147  0.67877  0.54776  1.0000
  C   C471      1.0  0.00317  0.81303  0.61238  1.0000
  H   H567      1.0  0.25556  0.69336  0.76361  1.0000
  C   C472      1.0  0.48250  0.96067  0.96986  1.0000
  H   H568      1.0  0.44526  0.68808  0.55815  1.0000
  C   C473      1.0  0.06540  0.71021  0.70924  1.0000
  H   H569      1.0  0.46951  0.71577  0.54269  1.0000
  S   S124      1.0  0.08602  0.98121  0.80667  1.0000
  Fe  Fe64      1.0  0.38784  0.65979  0.64144  1.0000
  C   C474      1.0  0.48584  0.88459  0.77249  1.0000
  H   H570      1.0  0.05127  0.86823  0.60122  1.0000
  C   C475      1.0  0.47692  0.67616  0.61323  1.0000
  H   H571      1.0  0.04603  0.97771  0.91032  1.0000
  H   H572      1.0  0.19302  0.81642  0.50703  1.0000
  H   H573      1.0  0.01916  0.66622  0.64410  1.0000
  H   H574      1.0  0.02826  0.67165  0.73279  1.0000
  C   C476      1.0  0.17078  0.82383  0.50827  1.0000
  H   H575      1.0  0.48233  0.96701  0.79769  1.0000
  H   H576      1.0  0.02566  0.67077  0.58511  1.0000
  S   S125      1.0  0.39457  0.65976  0.73860  1.0000
  C   C477      1.0  0.02990  0.67223  0.70533  1.0000
  H   H577      1.0  0.13333  0.66521  0.97013  1.0000
  C   C478      1.0  0.08045  0.65998  0.70675  1.0000
  H   H578      1.0  0.07931  0.65784  0.73417  1.0000
  S   S126      1.0  0.34922  0.65557  0.67562  1.0000
  H   H579      1.0  0.30644  0.97380  0.95528  1.0000
  C   C479      1.0  0.33433  0.97191  0.99661  1.0000
  H   H580      1.0  0.48637  0.95026  0.91918  1.0000
  N   N34       1.0  0.01515  0.98817  0.87196  1.0000
  H   H581      1.0  0.95256  0.11722  0.47102  1.0000
  Fe  Fe65      1.0  0.57864  0.09488  0.13624  1.0000
  S   S127      1.0  0.60772  0.12709  0.16228  1.0000
  S   S128      1.0  0.59660  0.07111  0.09029  1.0000
  Fe  Fe66      1.0  0.53298  0.09682  0.19340  1.0000
  S   S129      1.0  0.55922  0.12874  0.22316  1.0000
  C   C480      1.0  0.77678  0.99836  0.32796  1.0000
  Fe  Fe67      1.0  0.56631  0.15089  0.17408  1.0000
  S   S130      1.0  0.56581  0.19995  0.16982  1.0000
  Fe  Fe68      1.0  0.59874  0.10253  0.20929  1.0000
  S   S131      1.0  0.63291  0.08636  0.24628  1.0000
  S   S132      1.0  0.53768  0.12073  0.14465  1.0000
  S   S133      1.0  0.57192  0.06858  0.18300  1.0000
  Fe  Fe69      1.0  0.81512  0.10755  0.39502  1.0000
  S   S134      1.0  0.84824  0.08130  0.36732  1.0000
  S   S135      1.0  0.82190  0.10136  0.45087  1.0000
  Fe  Fe70      1.0  0.78339  0.12244  0.32971  1.0000
  S   S136      1.0  0.81509  0.09753  0.29811  1.0000
  S   S137      1.0  0.74702  0.14795  0.30446  1.0000
  Fe  Fe71      1.0  0.81098  0.06373  0.33817  1.0000
  S   S138      1.0  0.81107  0.01523  0.33048  1.0000
  Fe  Fe72      1.0  0.84991  0.11724  0.32990  1.0000
  S   S139      1.0  0.89368  0.13687  0.31460  1.0000
  S   S140      1.0  0.77732  0.08712  0.36803  1.0000
  S   S141      1.0  0.81872  0.14514  0.35910  1.0000
  H   H582      1.0  0.88150  0.14337  0.38713  1.0000
  C   C481      1.0  0.64514  0.24855  0.25891  1.0000
  S   S142      1.0  0.94108  0.26563  0.16748  1.0000
  H   H583      1.0  0.66642  0.00061  0.27899  1.0000
  C   C482      1.0  0.79114  0.30120  0.38456  1.0000
  C   C483      1.0  0.72435  0.00084  0.32270  1.0000
  H   H584      1.0  0.81080  0.16362  0.46355  1.0000
  H   H585      1.0  0.89133  0.25869  0.22781  1.0000
  H   H586      1.0  0.87445  0.19270  0.18015  1.0000
  C   C484      1.0  0.52896  0.24656  0.17175  1.0000
  C   C485      1.0  0.53177  0.21637  0.17599  1.0000
  H   H587      1.0  0.66001  0.20321  0.26335  1.0000
  C   C486      1.0  0.50749  0.19976  0.18509  1.0000
  C   C487      1.0  0.88605  0.21206  0.19012  1.0000
  H   H588      1.0  0.54762  0.25948  0.16448  1.0000
  H   H589      1.0  0.61065  0.19925  0.26954  1.0000
  H   H590      1.0  0.95795  0.20536  0.16837  1.0000
  C   C488      1.0  0.91889  0.12101  0.28647  1.0000
  C   C489      1.0  0.94571  0.13500  0.28079  1.0000
  C   C490      1.0  0.96619  0.12345  0.25839  1.0000
  C   C491      1.0  0.96015  0.09763  0.24141  1.0000
  C   C492      1.0  0.93327  0.08371  0.24700  1.0000
  C   C493      1.0  0.91275  0.09527  0.26939  1.0000
  H   H591      1.0  0.95076  0.15491  0.29379  1.0000
  N   N35       1.0  0.90987  0.13619  0.42881  1.0000
  H   H592      1.0  0.92825  0.06389  0.23379  1.0000
  H   H593      1.0  0.89217  0.08433  0.27327  1.0000
  C   C494      1.0  0.66486  0.10394  0.26132  1.0000
  C   C495      1.0  0.67276  0.13227  0.25189  1.0000
  C   C496      1.0  0.69811  0.14532  0.26491  1.0000
  C   C497      1.0  0.71598  0.13022  0.28732  1.0000
  C   C498      1.0  0.70826  0.10178  0.29639  1.0000
  C   C499      1.0  0.68281  0.08885  0.28366  1.0000
  H   H594      1.0  0.65937  0.14407  0.23451  1.0000
  H   H595      1.0  0.70409  0.16705  0.25717  1.0000
  H   H596      1.0  0.72165  0.08985  0.31364  1.0000
  H   H597      1.0  0.67694  0.06707  0.29144  1.0000
  C   C500      1.0  0.59137  0.07225  0.04644  1.0000
  C   C501      1.0  0.56671  0.08446  0.03182  1.0000
  H   H598      1.0  0.88534  0.09801  0.44244  1.0000
  C   C502      1.0  0.61215  0.05902  0.02574  1.0000
  H   H599      1.0  0.55037  0.09450  0.04724  1.0000
  H   H600      1.0  0.63124  0.04932  0.03664  1.0000
  C   C503      1.0  0.75257  0.04545  0.44261  1.0000
  C   C504      1.0  0.60866  0.25672  0.21672  1.0000
  C   C505      1.0  0.60768  0.21120  0.24583  1.0000
  H   H601      1.0  0.75288  0.03827  0.32201  1.0000
  H   H602      1.0  0.79286  0.24947  0.23759  1.0000
  C   C506      1.0  0.78991  0.02291  0.47479  1.0000
  H   H603      1.0  0.58463  0.20765  0.23842  1.0000
  S   S143      1.0  0.49044  0.07457  0.20965  1.0000
  H   H604      1.0  0.92341  0.09150  0.43662  1.0000
  H   H605      1.0  0.62107  0.20073  0.22622  1.0000
  C   C507      1.0  0.51369  0.01856  0.13703  1.0000
  C   C508      1.0  0.79200  0.02045  0.41573  1.0000
  C   C509      1.0  0.50500  0.20831  0.06807  1.0000
  H   H606      1.0  0.57152  0.25068  0.26797  1.0000
  H   H607      1.0  0.65421  0.03420  0.19863  1.0000
  H   H608      1.0  0.65949  0.03053  0.25253  1.0000
  C   C510      1.0  0.76479  0.24968  0.35864  1.0000
  H   H609      1.0  0.90838  0.21220  0.17956  1.0000
  C   C511      1.0  0.60688  0.00819  0.14254  1.0000
  C   C512      1.0  0.88453  0.15062  0.41317  1.0000
  H   H610      1.0  0.58625  0.25178  0.20805  1.0000
  C   C513      1.0  0.68364  0.28384  0.27224  1.0000
  H   H611      1.0  0.59687  0.27911  0.27628  1.0000
  C   C514      1.0  0.75151  0.01481  0.32414  1.0000
  N   N36       1.0  0.77198  0.01978  0.44453  1.0000
  C   C515      1.0  0.62357  0.99843  0.20920  1.0000
  C   C516      1.0  0.66549  0.22601  0.26556  1.0000
  H   H612      1.0  0.76477  0.21115  0.32808  1.0000
  C   C517      1.0  0.70293  0.26132  0.27884  1.0000
  C   C518      1.0  0.59468  0.25505  0.27418  1.0000
  H   H613      1.0  0.78635  0.25526  0.35013  1.0000
  H   H614      1.0  0.87443  0.00518  0.28175  1.0000
  C   C519      1.0  0.69391  0.23249  0.27544  1.0000
  H   H615      1.0  0.60054  0.01213  0.11714  1.0000
  C   C520      1.0  0.93797  0.13284  0.48199  1.0000
  H   H616      1.0  0.80218  0.30091  0.26373  1.0000
  H   H617      1.0  0.59899  0.24575  0.29913  1.0000
  H   H618      1.0  0.87534  0.23189  0.18013  1.0000
  C   C521      1.0  0.82737  0.12445  0.48575  1.0000
  N   N37       1.0  0.88647  0.21161  0.22677  1.0000
  H   H619      1.0  0.77436  0.20534  0.26638  1.0000
  C   C522      1.0  0.90087  0.23861  0.23864  1.0000
  C   C523      1.0  0.90473  0.18664  0.23735  1.0000
  C   C524      1.0  0.85621  0.21003  0.23926  1.0000
  C   C525      1.0  0.65641  0.31306  0.47331  1.0000
  C   C526      1.0  0.84492  0.18531  0.25643  1.0000
  S   S144      1.0  0.98543  0.08185  0.21329  1.0000
  C   C527      1.0  0.50198  0.26012  0.17651  1.0000
  H   H620      1.0  0.63974  0.04139  0.14163  1.0000
  C   C528      1.0  0.90471  0.10431  0.42738  1.0000
  H   H621      1.0  0.84349  0.25252  0.21970  1.0000
  H   H622      1.0  0.70785  0.26923  0.40826  1.0000
  H   H623      1.0  0.76506  0.06628  0.44400  1.0000
  C   C529      1.0  0.91476  0.14506  0.46356  1.0000
  H   H624      1.0  0.92426  0.23941  0.23141  1.0000
  H   H625      1.0  0.89652  0.16557  0.22744  1.0000
  H   H626      1.0  0.92753  0.18878  0.22826  1.0000
  H   H627      1.0  0.90579  0.18499  0.26479  1.0000
  C   C530      1.0  0.97555  0.24894  0.16950  1.0000
  H   H628      1.0  0.85803  0.16655  0.26239  1.0000
  H   H629      1.0  0.55578  0.01864  0.06772  1.0000
  C   C531      1.0  0.72092  0.25737  0.39063  1.0000
  H   H630      1.0  0.51751  0.01508  0.01031  1.0000
  H   H631      1.0  0.60689  0.03021  0.26069  1.0000
  H   H632      1.0  0.96573  0.00113  0.26543  1.0000
  C   C532      1.0  0.91993  0.00560  0.27459  1.0000
  C   C533      1.0  0.93583  0.14340  0.40847  1.0000
  H   H633      1.0  0.92208  0.02757  0.28412  1.0000
  C   C534      1.0  0.79706  0.20692  0.25930  1.0000
  H   H634      1.0  0.88729  0.17469  0.41219  1.0000
  C   C535      1.0  0.81988  0.15397  0.48562  1.0000
  H   H635      1.0  0.72490  0.26637  0.28659  1.0000
  H   H636      1.0  0.70906  0.21503  0.28053  1.0000
  H   H637      1.0  0.68694  0.22555  0.38363  1.0000
  H   H638      1.0  0.90092  0.09692  0.40157  1.0000
  H   H639      1.0  0.86396  0.14527  0.42646  1.0000
  H   H640      1.0  0.73581  0.00076  0.39500  1.0000
  C   C536      1.0  0.65517  0.27765  0.26254  1.0000
  H   H641      1.0  0.74383  0.28394  0.44623  1.0000
  H   H642      1.0  0.95534  0.13103  0.41627  1.0000
  H   H643      1.0  0.93233  0.13817  0.38181  1.0000
  H   H644      1.0  0.94116  0.16703  0.41001  1.0000
  H   H645      1.0  0.70488  0.01370  0.31990  1.0000
  C   C537      1.0  0.66001  0.00633  0.25325  1.0000
  H   H646      1.0  0.80546  0.00039  0.41452  1.0000
  C   C538      1.0  0.70877  0.23225  0.37683  1.0000
  H   H647      1.0  0.80567  0.00471  0.47725  1.0000
  H   H648      1.0  0.71536  0.19592  0.34410  1.0000
  H   H649      1.0  0.89960  0.24030  0.26603  1.0000
  H   H650      1.0  0.69076  0.30628  0.27484  1.0000
  H   H651      1.0  0.63395  0.27757  0.49785  1.0000
  C   C539      1.0  0.62925  0.02451  0.15636  1.0000
  H   H652      1.0  0.50949  0.17645  0.18845  1.0000
  N   N38       1.0  0.61469  0.24271  0.24910  1.0000
  H   H653      1.0  0.77553  0.30625  0.44674  1.0000
  H   H654      1.0  0.61041  0.28085  0.21770  1.0000
  N   N39       1.0  0.76216  0.29294  0.39801  1.0000
  H   H655      1.0  0.80740  0.16470  0.27871  1.0000
  C   C540      1.0  0.50311  0.98939  0.13697  1.0000
  H   H656      1.0  0.77873  0.26776  0.43865  1.0000
  H   H657      1.0  0.87861  0.17596  0.46850  1.0000
  H   H658      1.0  0.58723  0.99650  0.26146  1.0000
  H   H659      1.0  0.62387  0.24876  0.19732  1.0000
  C   C541      1.0  0.75255  0.22433  0.34540  1.0000
  C   C542      1.0  0.81575  0.18393  0.26615  1.0000
  Fe  Fe73      1.0  0.94016  0.31483  0.17114  1.0000
  C   C543      1.0  0.89254  0.99239  0.27300  1.0000
  C   C544      1.0  0.80750  0.23161  0.24297  1.0000
  C   C545      1.0  0.74936  0.26691  0.38199  1.0000
  H   H660      1.0  0.54008  0.05111  0.11267  1.0000
  H   H661      1.0  0.80698  0.03956  0.41642  1.0000
  H   H662      1.0  0.79965  0.32145  0.39620  1.0000
  H   H663      1.0  0.55676  0.31565  0.27116  1.0000
  C   C546      1.0  0.83658  0.23319  0.23296  1.0000
  H   H664      1.0  0.80298  0.04342  0.47431  1.0000
  H   H665      1.0  0.50003  0.28339  0.17314  1.0000
  C   C547      1.0  0.76526  0.28741  0.43395  1.0000
  H   H666      1.0  0.73646  0.04527  0.46320  1.0000
  H   H667      1.0  0.52046  0.19053  0.06774  1.0000
  C   C548      1.0  0.53229  0.02877  0.11214  1.0000
  C   C549      1.0  0.97744  0.21843  0.16959  1.0000
  H   H668      1.0  0.80755  0.28395  0.38905  1.0000
  C   C550      1.0  0.63743  0.02000  0.18925  1.0000
  H   H669      1.0  0.64097  0.29597  0.25817  1.0000
  C   C551      1.0  0.72465  0.21564  0.35448  1.0000
  C   C552      1.0  0.60897  0.00639  0.26567  1.0000
  H   H670      1.0  0.78998  0.30583  0.35746  1.0000
  H   H671      1.0  0.74024  0.04624  0.41903  1.0000
  H   H672      1.0  0.77619  0.02398  0.49745  1.0000
  H   H673      1.0  0.61428  0.00372  0.29235  1.0000
  H   H674      1.0  0.65298  0.30451  0.44876  1.0000
  C   C553      1.0  0.54110  0.01046  0.08670  1.0000
  C   C554      1.0  0.50301  0.22726  0.04121  1.0000
  H   H675      1.0  0.78020  0.02213  0.39195  1.0000
  C   C555      1.0  0.89691  0.16561  0.48019  1.0000
  H   H676      1.0  0.51695  0.22405  0.01987  1.0000
  H   H677      1.0  0.72128  0.31551  0.40513  1.0000
  C   C556      1.0  0.75435  0.99270  0.44387  1.0000
  C   C557      1.0  0.74295  0.31842  0.39344  1.0000
  H   H678      1.0  0.50797  0.03410  0.15596  1.0000
  H   H679      1.0  0.49515  0.00729  0.20194  1.0000
  N   N40       1.0  0.63151  0.99332  0.24422  1.0000
  H   H680      1.0  0.67765  0.99862  0.23662  1.0000
  H   H681      1.0  0.98672  0.13444  0.25437  1.0000
  H   H682      1.0  0.48914  0.19772  0.11660  1.0000
  C   C558      1.0  0.94458  0.99072  0.26405  1.0000
  C   C559      1.0  0.48730  0.21238  0.09561  1.0000
  C   C560      1.0  0.64565  0.29779  0.50130  1.0000
  H   H683      1.0  0.84741  0.32183  0.23917  1.0000
  H   H684      1.0  0.54065  0.11819  0.79971  1.0000
  Fe  Fe74      1.0  0.63463  0.26861  0.69117  1.0000
  S   S145      1.0  0.60571  0.30070  0.71742  1.0000
  S   S146      1.0  0.66074  0.23159  0.71468  1.0000
  Fe  Fe75      1.0  0.57650  0.29485  0.67334  1.0000
  S   S147      1.0  0.52770  0.29171  0.67979  1.0000
  S   S148      1.0  0.60390  0.26071  0.64925  1.0000
  Fe  Fe76      1.0  0.61036  0.01652  0.82771  1.0000
  S   S149      1.0  0.64389  0.04378  0.80123  1.0000
  C   C561      1.0  0.70867  0.19699  0.61183  1.0000
  Fe  Fe77      1.0  0.60690  0.05874  0.88795  1.0000
  S   S150      1.0  0.64054  0.08885  0.86562  1.0000
  S   S151      1.0  0.57755  0.06900  0.93275  1.0000
  Fe  Fe78      1.0  0.61809  0.08325  0.81668  1.0000
  S   S152      1.0  0.60130  0.11951  0.78227  1.0000
  Fe  Fe79      1.0  0.66384  0.04733  0.85184  1.0000
  S   S153      1.0  0.71221  0.04329  0.85937  1.0000
  S   S154      1.0  0.58279  0.05549  0.83961  1.0000
  S   S155      1.0  0.63197  0.01765  0.87760  1.0000
  Fe  Fe80      1.0  0.91837  0.17255  0.66761  1.0000
  S   S156      1.0  0.88777  0.20810  0.65223  1.0000
  C   C562      1.0  0.78338  0.24828  0.60584  1.0000
  Fe  Fe81      1.0  0.87015  0.13129  0.68968  1.0000
  S   S157      1.0  0.83578  0.16426  0.67618  1.0000
  S   S158      1.0  0.85578  0.08558  0.70612  1.0000
  Fe  Fe82      1.0  0.86126  0.17190  0.62919  1.0000
  S   S159      1.0  0.83923  0.18131  0.57917  1.0000
  Fe  Fe83      1.0  0.86496  0.19773  0.70011  1.0000
  S   S160      1.0  0.84491  0.23052  0.73610  1.0000
  S   S161      1.0  0.89385  0.13712  0.64112  1.0000
  S   S162      1.0  0.89728  0.16405  0.71700  1.0000
  C   C563      1.0  0.86927  0.06084  0.73638  1.0000
  C   C564      1.0  0.85842  0.03213  0.73683  1.0000
  C   C565      1.0  0.86742  0.01191  0.76104  1.0000
  C   C566      1.0  0.88735  0.02013  0.78533  1.0000
  C   C567      1.0  0.89833  0.04881  0.78484  1.0000
  C   C568      1.0  0.88927  0.06911  0.76062  1.0000
  H   H685      1.0  0.84280  0.02549  0.71839  1.0000
  H   H686      1.0  0.91376  0.05548  0.80346  1.0000
  H   H687      1.0  0.89760  0.09117  0.76088  1.0000
  C   C569      1.0  0.86003  0.26489  0.74730  1.0000
  C   C570      1.0  0.88381  0.27702  0.73054  1.0000
  H   H688      1.0  0.74872  0.24071  0.75177  1.0000
  H   H689      1.0  0.73084  0.28355  0.64792  1.0000
  C   C571      1.0  0.51584  0.20397  0.68470  1.0000
  C   C572      1.0  0.84700  0.28096  0.77294  1.0000
  H   H690      1.0  0.89396  0.26509  0.71062  1.0000
  Fe  Fe84      1.0  0.62660  0.29785  0.62256  1.0000
  H   H691      1.0  0.81185  0.01083  0.79274  1.0000
  H   H692      1.0  0.82864  0.27180  0.78614  1.0000
  C   C573      1.0  0.84286  0.12934  0.54359  1.0000
  C   C574      1.0  0.83502  0.15874  0.54364  1.0000
  H   H693      1.0  0.54764  0.12110  0.73976  1.0000
  C   C575      1.0  0.68026  0.23992  0.62247  1.0000
  H   H694      1.0  0.85181  0.11963  0.56573  1.0000
  S   S163      1.0  0.65922  0.30378  0.66346  1.0000
  C   C576      1.0  0.72773  0.00852  0.85393  1.0000
  C   C577      1.0  0.92449  0.16015  0.53073  1.0000
  H   H695      1.0  0.76972  0.02206  0.87167  1.0000
  H   H696      1.0  0.93473  0.08996  0.70530  1.0000
  C   C578      1.0  0.58402  0.07055  0.97637  1.0000
  C   C579      1.0  0.96780  0.23399  0.67368  1.0000
  H   H697      1.0  0.62502  0.04829  0.97562  1.0000
  H   H698      1.0  0.65871  0.25050  0.62069  1.0000
  H   H699      1.0  0.77533  0.28881  0.74837  1.0000
  C   C580      1.0  0.52900  0.23161  0.68289  1.0000
  H   H700      1.0  0.92777  0.16554  0.55656  1.0000
  H   H701      1.0  0.68131  0.22649  0.55926  1.0000
  C   C581      1.0  0.48799  0.03123  0.75494  1.0000
  H   H702      1.0  0.52925  0.18469  0.68517  1.0000
  H   H703      1.0  0.55239  0.23349  0.68227  1.0000
  H   H704      1.0  0.74117  0.22156  0.71420  1.0000
  H   H705      1.0  0.94437  0.23274  0.67446  1.0000
  C   C582      1.0  0.64392  0.20083  0.73404  1.0000
  C   C583      1.0  0.66115  0.18038  0.75096  1.0000
  C   C584      1.0  0.64856  0.15558  0.76624  1.0000
  C   C585      1.0  0.61855  0.15078  0.76447  1.0000
  C   C586      1.0  0.60141  0.17119  0.74735  1.0000
  C   C587      1.0  0.61394  0.19607  0.73234  1.0000
  H   H706      1.0  0.68434  0.18378  0.75250  1.0000
  H   H707      1.0  0.66205  0.14013  0.77928  1.0000
  H   H708      1.0  0.57821  0.16789  0.74582  1.0000
  H   H709      1.0  0.60034  0.21153  0.71946  1.0000
  H   H710      1.0  0.94232  0.04138  0.73016  1.0000
  C   C588      1.0  0.79975  0.23758  0.63199  1.0000
  H   H711      1.0  0.64565  0.22083  0.57429  1.0000
  C   C589      1.0  0.72129  0.19174  0.64329  1.0000
  N   N41       1.0  0.75787  0.26499  0.70695  1.0000
  H   H712      1.0  0.74629  0.27357  0.59169  1.0000
  C   C590      1.0  0.97470  0.10796  0.72422  1.0000
  H   H713      1.0  0.68662  0.24055  0.64892  1.0000
  N   N42       1.0  0.67932  0.20991  0.60938  1.0000
  C   C591      1.0  0.51188  0.25670  0.68213  1.0000
  H   H714      1.0  0.72931  0.30180  0.69961  1.0000
  C   C592      1.0  0.89431  0.30487  0.73927  1.0000
  H   H715      1.0  0.55579  0.07939  0.76972  1.0000
  C   C593      1.0  0.60869  0.05841  0.99101  1.0000
  H   H716      1.0  0.84750  0.32072  0.80172  1.0000
  C   C594      1.0  0.74907  0.17979  0.64628  1.0000
  H   H717      1.0  0.84471  0.08953  0.51546  1.0000
  H   H718      1.0  0.54371  0.09271  0.98622  1.0000
  H   H719      1.0  0.71845  0.19399  0.55869  1.0000
  H   H720      1.0  0.63557  0.20097  0.62639  1.0000
  S   S164      1.0  0.63746  0.28706  0.56814  1.0000
  H   H721      1.0  0.75829  0.17581  0.67051  1.0000
  N   N43       1.0  0.50634  0.11233  0.76374  1.0000
  C   C595      1.0  0.56298  0.08335  0.99711  1.0000
  H   H722      1.0  0.72316  0.28238  0.73718  1.0000
  H   H723      1.0  0.56930  0.00802  0.91593  1.0000
  H   H724      1.0  0.51799  0.99541  0.75682  1.0000
  H   H725      1.0  0.97801  0.24568  0.60087  1.0000
  H   H726      1.0  0.52210  0.15011  0.73712  1.0000
  C   C596      1.0  0.78023  0.28405  0.72197  1.0000
  C   C597      1.0  0.95845  0.05838  0.73362  1.0000
  H   H727      1.0  0.96895  0.28070  0.67904  1.0000
  H   H728      1.0  0.78685  0.16407  0.62048  1.0000
  H   H729      1.0  0.80509  0.23454  0.68387  1.0000
  N   N44       1.0  0.78899  0.06763  0.79815  1.0000
  C   C598      1.0  0.81784  0.06270  0.81352  1.0000
  C   C599      1.0  0.79312  0.08717  0.76926  1.0000
  C   C600      1.0  0.77084  0.08272  0.82317  1.0000
  C   C601      1.0  0.77475  0.04042  0.78687  1.0000
  H   H730      1.0  0.52104  0.30593  0.75026  1.0000
  C   C602      1.0  0.74554  0.04073  0.77569  1.0000
  C   C603      1.0  0.83885  0.11232  0.51493  1.0000
  C   C604      1.0  0.72929  0.27958  0.71070  1.0000
  C   C605      1.0  0.51716  0.12272  0.79617  1.0000
  H   H731      1.0  0.83379  0.05431  0.79536  1.0000
  H   H732      1.0  0.82749  0.08321  0.82322  1.0000
  H   H733      1.0  0.81626  0.04702  0.83455  1.0000
  H   H734      1.0  0.80582  0.07615  0.74945  1.0000
  H   H735      1.0  0.80514  0.10739  0.77589  1.0000
  H   H736      1.0  0.77206  0.09380  0.75825  1.0000
  H   H737      1.0  0.76664  0.06835  0.84487  1.0000
  H   H738      1.0  0.78146  0.10286  0.83249  1.0000
  H   H739      1.0  0.74936  0.08954  0.81361  1.0000
  C   C606      1.0  0.88141  0.32090  0.76503  1.0000
  H   H740      1.0  0.49536  0.17500  0.52400  1.0000
  C   C607      1.0  0.51940  0.02201  0.88669  1.0000
  C   C608      1.0  0.50889  0.08020  0.76198  1.0000
  S   S165      1.0  0.89903  0.99540  0.81661  1.0000
  C   C609      1.0  0.75642  0.23725  0.72595  1.0000
  C   C610      1.0  0.76521  0.17312  0.61816  1.0000
  C   C611      1.0  0.66803  0.21156  0.57502  1.0000
  H   H741      1.0  0.66698  0.18967  0.56338  1.0000
  H   H742      1.0  0.66247  0.19352  0.65620  1.0000
  H   H743      1.0  0.65822  0.16931  0.62174  1.0000
  H   H744      1.0  0.71157  0.26650  0.69934  1.0000
  C   C612      1.0  0.76595  0.25920  0.67209  1.0000
  C   C613      1.0  0.73181  0.01541  0.76455  1.0000
  C   C614      1.0  0.79129  0.24295  0.66458  1.0000
  C   C615      1.0  0.53636  0.06665  0.76566  1.0000
  S   S166      1.0  0.96733  0.17463  0.66315  1.0000
  H   H745      1.0  0.56075  0.02663  0.76698  1.0000
  C   C616      1.0  0.52274  0.00526  0.95863  1.0000
  C   C617      1.0  0.82350  0.17090  0.51446  1.0000
  C   C618      1.0  0.72591  0.19028  0.58361  1.0000
  H   H746      1.0  0.53807  0.02299  0.95551  1.0000
  C   C619      1.0  0.75375  0.17850  0.58693  1.0000
  C   C620      1.0  0.75718  0.00441  0.86133  1.0000
  H   H747      1.0  0.96011  0.13023  0.52888  1.0000
  H   H748      1.0  0.69557  0.25383  0.60807  1.0000
  H   H749      1.0  0.51707  0.11823  0.71234  1.0000
  C   C621      1.0  0.75864  0.26476  0.61219  1.0000
  H   H750      1.0  0.78214  0.30513  0.70844  1.0000
  C   C622      1.0  0.65812  0.19262  0.62920  1.0000
  C   C623      1.0  0.85764  0.30874  0.78184  1.0000
  C   C624      1.0  0.64973  0.30848  0.53362  1.0000
  C   C625      1.0  0.78967  0.01340  0.78484  1.0000
  C   C626      1.0  0.52410  0.12593  0.73713  1.0000
  H   H751      1.0  0.73281  0.06041  0.77589  1.0000
  H   H752      1.0  0.70977  0.19696  0.66585  1.0000
  C   C627      1.0  0.53946  0.03642  0.76404  1.0000
  C   C628      1.0  0.95421  0.08579  0.71962  1.0000
  H   H753      1.0  0.80210  0.27390  0.72145  1.0000
  C   C629      1.0  0.90193  0.17302  0.51321  1.0000
  H   H754      1.0  0.77798  0.22658  0.72834  1.0000
  H   H755      1.0  0.52862  0.03950  0.90252  1.0000
  C   C630      1.0  0.74996  0.27030  0.64478  1.0000
  H   H756      1.0  0.81921  0.22505  0.62700  1.0000
  H   H757      1.0  0.76677  0.17359  0.56523  1.0000
  H   H758      1.0  0.51479  0.14673  0.79876  1.0000
  H   H759      1.0  0.52758  0.02634  0.86120  1.0000
  H   H760      1.0  0.85884  0.98996  0.76090  1.0000
  C   C631      1.0  0.51102  0.00091  0.99021  1.0000
  C   C632      1.0  0.51535  0.01876  0.75854  1.0000
  H   H761      1.0  0.50062  0.19483  0.57558  1.0000
  H   H762      1.0  0.79010  0.24387  0.58063  1.0000
  H   H763      1.0  0.50523  0.11208  0.81695  1.0000
  C   C633      1.0  0.94258  0.14021  0.51510  1.0000
  C   C634      1.0  0.98417  0.20869  0.66935  1.0000
  H   H764      1.0  0.88781  0.18840  0.52566  1.0000
  H   H765      1.0  0.49385  0.17659  0.61379  1.0000
  C   C635      1.0  0.98177  0.26115  0.67634  1.0000
  H   H766      1.0  0.96986  0.12864  0.71272  1.0000
  H   H767      1.0  0.81737  0.19362  0.51415  1.0000
  H   H768      1.0  0.70913  0.01599  0.75748  1.0000
  H   H769      1.0  0.50013  0.15527  0.57756  1.0000
  H   H770      1.0  0.49538  0.02473  0.88653  1.0000
  N   N45       1.0  0.52754  0.99250  0.89840  1.0000
  H   H771      1.0  0.91241  0.31412  0.72575  1.0000
  H   H772      1.0  0.96501  0.99846  0.97283  1.0000
  C   C636      1.0  0.96402  0.99401  0.94655  1.0000
  H   H773      1.0  0.98623  0.03168  0.76339  1.0000
  H   H774      1.0  0.56996  0.99327  0.87544  1.0000
  C   C637      1.0  0.98316  0.05301  0.75240  1.0000
  C   C638      1.0  0.48958  0.17549  0.58665  1.0000
  C   C639      1.0  0.74692  0.98923  0.76341  1.0000
  C   C640      1.0  0.55967  0.99069  0.90023  1.0000
  Fe  Fe85      1.0  0.68361  0.36330  0.38687  1.0000
  S   S167      1.0  0.65104  0.39264  0.36180  1.0000
  H   H775      1.0  0.51791  0.54901  0.14755  1.0000
  Fe  Fe86      1.0  0.71670  0.35282  0.32097  1.0000
  S   S168      1.0  0.68624  0.38071  0.29129  1.0000
  C   C641      1.0  0.83191  0.33586  0.25130  1.0000
  Fe  Fe87      1.0  0.68941  0.41164  0.33426  1.0000
  S   S169      1.0  0.69249  0.46039  0.32556  1.0000
  Fe  Fe88      1.0  0.65007  0.35975  0.32053  1.0000
  C   C642      1.0  0.68716  0.64732  0.27677  1.0000
  S   S170      1.0  0.72211  0.38520  0.36198  1.0000
  Fe  Fe89      1.0  0.93180  0.37232  0.13435  1.0000
  S   S171      1.0  0.92024  0.40261  0.09073  1.0000
  Fe  Fe90      1.0  0.97315  0.36702  0.19535  1.0000
  H   H776      1.0  0.49017  0.45701  0.24953  1.0000
  C   C643      1.0  0.55940  0.53729  0.26316  1.0000
  Fe  Fe91      1.0  0.90610  0.36281  0.20499  1.0000
  S   S172      1.0  0.86988  0.38200  0.23722  1.0000
  S   S173      1.0  0.97159  0.34529  0.14544  1.0000
  S   S174      1.0  0.93589  0.39649  0.18250  1.0000
  C   C644      1.0  0.91926  0.39764  0.04686  1.0000
  C   C645      1.0  0.90755  0.41984  0.02680  1.0000
  C   C646      1.0  0.67212  0.33900  0.47726  1.0000
  C   C647      1.0  0.92950  0.37238  0.03153  1.0000
  H   H777      1.0  0.89963  0.43952  0.03827  1.0000
  H   H778      1.0  0.93865  0.35512  0.04643  1.0000
  C   C648      1.0  0.72651  0.47801  0.32946  1.0000
  C   C649      1.0  0.72785  0.50858  0.32840  1.0000
  C   C650      1.0  0.77894  0.47682  0.33626  1.0000
  C   C651      1.0  0.75219  0.46217  0.33318  1.0000
  H   H779      1.0  0.79866  0.46440  0.33934  1.0000
  H   H780      1.0  0.75147  0.43865  0.33370  1.0000
  C   C652      1.0  0.53591  0.37918  0.23464  1.0000
  C   C653      1.0  0.55956  0.39663  0.24453  1.0000
  C   C654      1.0  0.58220  0.38492  0.26396  1.0000
  C   C655      1.0  0.58145  0.35558  0.27360  1.0000
  C   C656      1.0  0.80624  0.32407  0.26527  1.0000
  C   C657      1.0  0.53515  0.34995  0.24444  1.0000
  H   H781      1.0  0.56038  0.41925  0.23708  1.0000
  H   H782      1.0  0.60027  0.39846  0.27138  1.0000
  H   H783      1.0  0.67155  0.50777  0.28064  1.0000
  H   H784      1.0  0.73963  0.32284  0.36674  1.0000
  S   S175      1.0  0.68027  0.32899  0.34736  1.0000
  C   C658      1.0  0.79137  0.37194  0.28302  1.0000
  C   C659      1.0  0.81714  0.38368  0.26939  1.0000
  C   C660      1.0  0.83756  0.36579  0.25339  1.0000
  H   H785      1.0  0.69092  0.53470  0.02604  1.0000
  H   H786      1.0  0.77593  0.38605  0.29521  1.0000
  H   H787      1.0  0.82126  0.40680  0.27132  1.0000
  H   H788      1.0  0.64566  0.64479  0.25179  1.0000
  H   H789      1.0  0.75213  0.33857  0.40465  1.0000
  Fe  Fe92      1.0  0.57211  0.59306  0.12973  1.0000
  C   C661      1.0  0.55777  0.33827  0.26372  1.0000
  S   S176      1.0  0.57948  0.56253  0.08536  1.0000
  Fe  Fe93      1.0  0.53526  0.59436  0.19464  1.0000
  S   S177      1.0  0.56400  0.62784  0.21868  1.0000
  H   H790      1.0  0.80803  0.42131  0.01115  1.0000
  C   C662      1.0  0.66350  0.60111  0.00360  1.0000
  Fe  Fe94      1.0  0.60220  0.60345  0.19768  1.0000
  S   S178      1.0  0.64327  0.58625  0.22258  1.0000
  S   S179      1.0  0.53168  0.61722  0.14540  1.0000
  S   S180      1.0  0.57352  0.56801  0.17768  1.0000
  Fe  Fe95      1.0  0.82712  0.62842  0.38006  1.0000
  S   S181      1.0  0.85628  0.59785  0.35183  1.0000
  H   H791      1.0  0.63670  0.52402  0.21950  1.0000
  Fe  Fe96      1.0  0.78209  0.62889  0.32326  1.0000
  S   S182      1.0  0.80826  0.59894  0.29110  1.0000
  S   S183      1.0  0.74028  0.65153  0.30777  1.0000
  Fe  Fe97      1.0  0.81483  0.57428  0.33872  1.0000
  S   S184      1.0  0.81415  0.52501  0.33954  1.0000
  Fe  Fe98      1.0  0.84758  0.62488  0.30654  1.0000
  H   H792      1.0  0.97300  0.51974  0.18946  1.0000
  S   S185      1.0  0.78624  0.60269  0.37030  1.0000
  H   H793      1.0  0.66706  0.54741  0.07757  1.0000
  S   S186      1.0  0.94377  0.33518  0.22154  1.0000
  C   C663      1.0  0.84793  0.38264  0.06569  1.0000
  H   H794      1.0  0.58373  0.45836  0.28231  1.0000
  C   C664      1.0  0.57803  0.48058  0.27638  1.0000
  C   C665      1.0  0.91001  0.62713  0.25064  1.0000
  C   C666      1.0  0.91222  0.59674  0.25037  1.0000
  C   C667      1.0  0.93453  0.58314  0.23208  1.0000
  C   C668      1.0  0.95522  0.59976  0.21447  1.0000
  C   C669      1.0  0.95322  0.63016  0.21514  1.0000
  C   C670      1.0  0.93058  0.64370  0.23284  1.0000
  H   H795      1.0  0.89658  0.58380  0.26401  1.0000
  H   H796      1.0  0.93585  0.55964  0.23169  1.0000
  H   H797      1.0  0.49466  0.62356  0.25484  1.0000
  C   C671      1.0  0.58864  0.53008  0.25917  1.0000
  C   C672      1.0  0.66960  0.60492  0.24670  1.0000
  C   C673      1.0  0.59893  0.50150  0.26554  1.0000
  C   C674      1.0  0.54878  0.48806  0.28039  1.0000
  C   C675      1.0  0.71310  0.63289  0.28485  1.0000
  C   C676      1.0  0.71697  0.60421  0.27418  1.0000
  C   C677      1.0  0.69530  0.59032  0.25533  1.0000
  H   H798      1.0  0.73667  0.59270  0.28042  1.0000
  H   H799      1.0  0.69860  0.56816  0.24722  1.0000
  C   C678      1.0  0.58422  0.56884  0.04196  1.0000
  C   C679      1.0  0.85775  0.36051  0.04512  1.0000
  H   H800      1.0  0.53025  0.51805  0.19225  1.0000
  C   C680      1.0  0.57772  0.59554  0.02696  1.0000
  H   H801      1.0  0.79618  0.62878  0.46823  1.0000
  H   H802      1.0  0.56971  0.61330  0.04189  1.0000
  C   C681      1.0  0.75459  0.52323  0.33151  1.0000
  C   C682      1.0  0.78019  0.50737  0.33569  1.0000
  H   H803      1.0  0.70813  0.52103  0.32559  1.0000
  H   H804      1.0  0.75533  0.54677  0.33089  1.0000
  C   C683      1.0  0.78577  0.34203  0.28112  1.0000
  S   S187      1.0  0.90010  0.34004  0.15639  1.0000
  H   H805      1.0  0.96692  0.49553  0.15548  1.0000
  H   H806      1.0  0.63286  0.45795  0.29440  1.0000
  S   S188      1.0  0.49681  0.56923  0.21694  1.0000
  C   C684      1.0  0.84988  0.35999  0.01176  1.0000
  C   C685      1.0  0.54119  0.49818  0.13038  1.0000
  H   H807      1.0  0.96854  0.64316  0.20105  1.0000
  C   C686      1.0  0.97302  0.46410  0.20976  1.0000
  H   H808      1.0  0.85504  0.38343  0.09122  1.0000
  S   S189      1.0  0.60958  0.33916  0.29732  1.0000
  H   H809      1.0  0.63786  0.62790  0.03616  1.0000
  H   H810      1.0  0.84966  0.44088  0.22507  1.0000
  H   H811      1.0  0.88911  0.52589  0.20713  1.0000
  S   S190      1.0  0.75395  0.32613  0.29884  1.0000
  H   H812      1.0  0.96400  0.47765  0.23007  1.0000
  H   H813      1.0  0.51699  0.52236  0.27724  1.0000
  H   H814      1.0  0.85625  0.45374  0.27841  1.0000
  H   H815      1.0  0.66073  0.45907  0.26399  1.0000
  H   H816      1.0  0.59944  0.52522  0.03304  1.0000
  H   H817      1.0  0.62501  0.44839  0.25181  1.0000
  C   C687      1.0  0.64801  0.51298  0.28291  1.0000
  C   C688      1.0  0.59442  0.54601  0.02184  1.0000
  H   H818      1.0  0.64598  0.53663  0.27729  1.0000
  H   H819      1.0  0.88719  0.47714  0.28321  1.0000
  C   C689      1.0  0.65174  0.58871  0.06028  1.0000
  Fe  Fe99      1.0  0.56261  0.64943  0.16848  1.0000
  H   H820      1.0  0.53935  0.49874  0.10291  1.0000
  S   S191      1.0  0.84456  0.65090  0.42678  1.0000
  C   C690      1.0  0.53952  0.51636  0.27380  1.0000
  H   H821      1.0  0.87254  0.34430  0.05489  1.0000
  S   S192      1.0  0.88169  0.64546  0.27206  1.0000
  C   C691      1.0  0.82998  0.40430  0.05308  1.0000
  S   S193      1.0  0.50790  0.39450  0.20985  1.0000
  H   H822      1.0  0.84798  0.57764  0.48278  1.0000
  C   C692      1.0  0.82167  0.40383  0.01986  1.0000
  H   H823      1.0  0.51715  0.33625  0.23709  1.0000
  H   H824      1.0  0.66183  0.49485  0.22146  1.0000
  H   H825      1.0  0.55140  0.47717  0.13739  1.0000
  H   H826      1.0  0.64196  0.50952  0.30933  1.0000
  H   H827      1.0  0.64060  0.59369  0.08326  1.0000
  C   C693      1.0  0.49224  0.47915  0.13496  1.0000
  S   S194      1.0  0.68904  0.35780  0.44334  1.0000
  H   H828      1.0  0.60323  0.54721  0.25124  1.0000
  C   C694      1.0  0.63722  0.46362  0.26800  1.0000
  C   C695      1.0  0.63869  0.50057  0.22607  1.0000
  H   H829      1.0  0.62500  0.48801  0.20853  1.0000
  S   S195      1.0  0.60296  0.62719  0.14898  1.0000
  H   H830      1.0  0.52563  0.47954  0.19099  1.0000
  C   C696      1.0  0.83748  0.65077  0.47024  1.0000
  H   H831      1.0  0.87206  0.42327  0.17449  1.0000
  C   C697      1.0  0.68011  0.55547  0.02697  1.0000
  H   H832      1.0  0.55213  0.55934  0.25818  1.0000
  H   H833      1.0  0.55677  0.51575  0.13725  1.0000
  C   C698      1.0  0.66553  0.63347  0.25773  1.0000
  C   C699      1.0  0.66659  0.56253  0.05692  1.0000
  N   N46       1.0  0.63007  0.49455  0.26082  1.0000
  H   H834      1.0  0.91012  0.50725  0.15649  1.0000
  H   H835      1.0  0.90222  0.45588  0.13965  1.0000
  H   H836      1.0  0.95487  0.45851  0.19280  1.0000
  H   H837      1.0  0.82288  0.42177  0.06910  1.0000
  H   H838      1.0  0.53333  0.47185  0.28911  1.0000
  N   N47       1.0  0.85345  0.49528  0.25281  1.0000
  C   C700      1.0  0.86062  0.52602  0.26097  1.0000
  C   C701      1.0  0.82140  0.49293  0.25010  1.0000
  C   C702      1.0  0.86313  0.47687  0.28093  1.0000
  C   C703      1.0  0.86714  0.48511  0.22173  1.0000
  C   C704      1.0  0.88471  0.50337  0.20123  1.0000
  C   C705      1.0  0.86279  0.45606  0.21093  1.0000
  C   C706      1.0  0.89709  0.49289  0.17193  1.0000
  C   C707      1.0  0.87543  0.44577  0.18178  1.0000
  C   C708      1.0  0.89254  0.46411  0.16228  1.0000
  H   H839      1.0  0.85257  0.54139  0.24176  1.0000
  H   H840      1.0  0.85030  0.53292  0.28459  1.0000
  H   H841      1.0  0.88440  0.52919  0.26426  1.0000
  H   H842      1.0  0.81323  0.50540  0.22843  1.0000
  H   H843      1.0  0.81028  0.50158  0.27251  1.0000
  H   H844      1.0  0.81391  0.46999  0.24759  1.0000
  H   H845      1.0  0.85380  0.48450  0.30487  1.0000
  C   C709      1.0  0.65023  0.60797  0.03370  1.0000
  C   C710      1.0  0.51587  0.50042  0.18274  1.0000
  C   C711      1.0  0.81203  0.63908  0.48404  1.0000
  H   H846      1.0  0.49452  0.50275  0.19547  1.0000
  H   H847      1.0  0.98004  0.44298  0.22063  1.0000
  N   N48       1.0  0.51242  0.50224  0.14630  1.0000
  H   H848      1.0  0.51724  0.44296  0.15560  1.0000
  H   H849      1.0  0.50103  0.53587  0.11111  1.0000
  C   C712      1.0  0.50251  0.53221  0.13828  1.0000
  S   S196      1.0  0.98215  0.58176  0.19050  1.0000
  C   C713      1.0  0.98371  0.50365  0.17292  1.0000
  C   C714      1.0  0.49824  0.44941  0.14177  1.0000
  H   H850      1.0  0.81004  0.54284  0.50103  1.0000
  H   H851      1.0  0.87169  0.57160  0.62983  1.0000
  C   C715      1.0  0.90593  0.41686  0.99206  1.0000
  C   C716      1.0  0.51518  0.48033  0.88500  1.0000
  S   S197      1.0  0.64361  0.38035  0.70325  1.0000
  N   N49       1.0  0.49430  0.34321  0.76181  1.0000
  Fe  Fe100     1.0  0.89338  0.40712  0.88736  1.0000
  S   S198      1.0  0.85933  0.37931  0.86292  1.0000
  S   S199      1.0  0.91528  0.38646  0.93288  1.0000
  Fe  Fe101     1.0  0.88949  0.45367  0.83124  1.0000
  S   S200      1.0  0.85505  0.42877  0.80383  1.0000
  S   S201      1.0  0.91073  0.49623  0.81327  1.0000
  Fe  Fe102     1.0  0.83581  0.42158  0.85451  1.0000
  S   S202      1.0  0.78768  0.42204  0.86621  1.0000
  Fe  Fe103     1.0  0.88156  0.38852  0.81461  1.0000
  S   S203      1.0  0.89583  0.35590  0.77495  1.0000
  S   S204      1.0  0.86845  0.44899  0.88169  1.0000
  S   S205      1.0  0.91745  0.41392  0.83915  1.0000
  C   C717      1.0  0.91615  0.39157  0.97674  1.0000
  H   H852      1.0  0.72460  0.58564  0.93359  1.0000
  H   H853      1.0  0.81266  0.58814  0.65441  1.0000
  H   H854      1.0  0.82696  0.40923  0.92006  1.0000
  H   H855      1.0  0.85677  0.49637  0.77494  1.0000
  C   C718      1.0  0.72504  0.48376  0.87038  1.0000
  C   C719      1.0  0.73981  0.45700  0.87105  1.0000
  C   C720      1.0  0.77019  0.45612  0.86867  1.0000
  C   C721      1.0  0.78587  0.48224  0.86738  1.0000
  H   H856      1.0  0.70158  0.48421  0.87156  1.0000
  H   H857      1.0  0.72764  0.43687  0.87283  1.0000
  H   H858      1.0  0.80930  0.48186  0.86567  1.0000
  C   C722      1.0  0.62895  0.40446  0.73343  1.0000
  C   C723      1.0  0.63548  0.43438  0.73107  1.0000
  C   C724      1.0  0.62750  0.45393  0.75634  1.0000
  C   C725      1.0  0.61284  0.44378  0.78449  1.0000
  C   C726      1.0  0.60535  0.41403  0.78634  1.0000
  C   C727      1.0  0.61337  0.39446  0.76103  1.0000
  H   H859      1.0  0.64700  0.44246  0.70954  1.0000
  H   H860      1.0  0.63284  0.47682  0.75412  1.0000
  H   H861      1.0  0.59381  0.40594  0.80786  1.0000
  H   H862      1.0  0.60827  0.37153  0.76336  1.0000
  C   C728      1.0  0.81721  0.55020  0.55310  1.0000
  C   C729      1.0  0.63227  0.64599  0.76204  1.0000
  C   C730      1.0  0.59139  0.57640  0.97232  1.0000
  C   C731      1.0  0.83321  0.56560  0.57755  1.0000
  C   C732      1.0  0.55110  0.51456  0.90513  1.0000
  H   H863      1.0  0.85170  0.54890  0.65710  1.0000
  Fe  Fe104     1.0  0.62175  0.51252  0.83032  1.0000
  S   S206      1.0  0.65735  0.53634  0.80306  1.0000
  S   S207      1.0  0.60363  0.46719  0.81799  1.0000
  Fe  Fe105     1.0  0.61664  0.56050  0.88426  1.0000
  S   S208      1.0  0.65175  0.58749  0.85993  1.0000
  S   S209      1.0  0.59410  0.58225  0.92863  1.0000
  Fe  Fe106     1.0  0.63092  0.57714  0.81145  1.0000
  S   S210      1.0  0.61965  0.60993  0.77052  1.0000
  Fe  Fe107     1.0  0.67516  0.54485  0.85389  1.0000
  S   S211      1.0  0.72280  0.54381  0.86728  1.0000
  S   S212      1.0  0.59382  0.55265  0.83572  1.0000
  S   S213      1.0  0.64150  0.51847  0.88104  1.0000
  Fe  Fe108     1.0  0.86816  0.63312  0.69090  1.0000
  C   C733      1.0  0.59813  0.54975  0.98734  1.0000
  S   S214      1.0  0.85505  0.58829  0.71188  1.0000
  C   C734      1.0  0.52294  0.42108  0.77284  1.0000
  H   H864      1.0  0.80829  0.48195  0.79255  1.0000
  S   S215      1.0  0.88760  0.63696  0.63988  1.0000
  C   C735      1.0  0.87118  0.56330  0.74034  1.0000
  C   C736      1.0  0.85647  0.53708  0.74766  1.0000
  C   C737      1.0  0.86824  0.51645  0.76983  1.0000
  C   C738      1.0  0.89494  0.52173  0.78513  1.0000
  C   C739      1.0  0.90973  0.54790  0.77775  1.0000
  C   C740      1.0  0.89796  0.56857  0.75553  1.0000
  H   H865      1.0  0.83580  0.53266  0.73609  1.0000
  H   H866      1.0  0.93040  0.55228  0.78933  1.0000
  H   H867      1.0  0.90959  0.58856  0.75020  1.0000
  H   H868      1.0  0.97679  0.42468  0.94617  1.0000
  C   C741      1.0  0.70791  0.53944  0.96637  1.0000
  H   H869      1.0  0.78010  0.40120  0.97130  1.0000
  N   N50       1.0  0.53777  0.64862  0.79421  1.0000
  C   C742      1.0  0.58110  0.59918  0.99242  1.0000
  C   C743      1.0  0.52239  0.39105  0.76699  1.0000
  C   C744      1.0  0.74067  0.50987  0.86828  1.0000
  C   C745      1.0  0.77113  0.50904  0.86750  1.0000
  H   H870      1.0  0.78337  0.52917  0.86605  1.0000
  C   C746      1.0  0.84416  0.57392  0.50896  1.0000
  C   C747      1.0  0.80587  0.53934  0.62164  1.0000
  C   C748      1.0  0.71355  0.59077  0.95749  1.0000
  C   C749      1.0  0.54378  0.49074  0.88560  1.0000
  C   C750      1.0  0.83127  0.38157  0.99815  1.0000
  C   C751      1.0  0.52987  0.52826  0.92399  1.0000
  H   H871      1.0  0.78709  0.63212  0.52880  1.0000
  C   C752      1.0  0.97006  0.46529  0.87613  1.0000
  C   C753      1.0  0.54793  0.62646  0.81840  1.0000
  H   H872      1.0  0.97093  0.37202  0.81232  1.0000
  H   H873      1.0  0.53380  0.60673  0.81862  1.0000
  C   C754      1.0  0.85478  0.58536  0.56600  1.0000
  C   C755      1.0  0.86026  0.58922  0.53225  1.0000
  H   H874      1.0  0.78274  0.38062  0.93440  1.0000
  H   H875      1.0  0.85746  0.35644  0.94253  1.0000
  H   H876      1.0  0.73057  0.59332  0.97674  1.0000
  C   C756      1.0  0.98311  0.43845  0.92544  1.0000
  C   C757      1.0  0.52296  0.32983  0.75459  1.0000
  H   H877      1.0  0.80014  0.53496  0.55929  1.0000
  S   S216      1.0  0.59623  0.33154  0.64356  1.0000
  H   H878      1.0  0.82480  0.42867  0.95793  1.0000
  H   H879      1.0  0.85930  0.34283  0.99709  1.0000
  H   H880      1.0  0.81254  0.51763  0.61216  1.0000
  H   H881      1.0  0.78078  0.36210  0.97378  1.0000
  H   H882      1.0  0.60556  0.53180  0.97237  1.0000
  C   C758      1.0  0.82270  0.55446  0.51935  1.0000
  C   C759      1.0  0.83331  0.40844  0.94656  1.0000
  H   H883      1.0  0.60186  0.65212  0.72219  1.0000
  N   N51       1.0  0.82227  0.38170  0.96301  1.0000
  H   H884      1.0  0.93976  0.44119  0.90658  1.0000
  H   H885      1.0  0.66854  0.34320  0.56204  1.0000
  H   H886      1.0  0.66094  0.61642  0.98347  1.0000
  H   H887      1.0  0.51108  0.46184  0.86925  1.0000
  C   C760      1.0  0.81742  0.58991  0.62744  1.0000
  H   H888      1.0  0.49574  0.33338  0.81383  1.0000
  H   H889      1.0  0.66531  0.64707  0.79950  1.0000
  H   H890      1.0  0.82530  0.35654  0.91808  1.0000
  C   C761      1.0  0.85527  0.55380  0.63037  1.0000
  H   H891      1.0  0.56040  0.48032  0.87069  1.0000
  H   H892      1.0  0.52614  0.61521  0.75918  1.0000
  C   C762      1.0  0.72939  0.63854  0.73567  1.0000
  H   H893      1.0  0.93621  0.34987  0.98533  1.0000
  H   H894      1.0  0.83373  0.60756  0.62479  1.0000
  H   H895      1.0  0.79751  0.59759  0.61457  1.0000
  C   C763      1.0  0.83325  0.35634  0.94404  1.0000
  H   H896      1.0  0.96669  0.51747  0.84244  1.0000
  C   C764      1.0  0.67894  0.57466  0.99929  1.0000
  N   N52       1.0  0.69235  0.56775  0.96692  1.0000
  H   H897      1.0  0.69287  0.52089  0.97139  1.0000
  H   H898      1.0  0.57558  0.61984  0.98118  1.0000
  H   H899      1.0  0.53840  0.33261  0.77543  1.0000
  Fe  Fe109     1.0  0.62736  0.33541  0.68637  1.0000
  H   H900      1.0  0.53282  0.33908  0.73160  1.0000
  H   H901      1.0  0.70308  0.61231  0.95387  1.0000
  H   H902      1.0  0.78820  0.53123  0.78440  1.0000
  H   H903      1.0  0.95753  0.36172  0.75788  1.0000
  H   H904      1.0  0.57327  0.52256  0.90555  1.0000
  H   H905      1.0  0.89721  0.43435  0.97720  1.0000
  C   C765      1.0  0.66949  0.56644  0.94134  1.0000
  H   H906      1.0  0.80285  0.53698  0.64889  1.0000
  H   H907      1.0  0.68856  0.36947  0.51309  1.0000
  H   H908      1.0  0.65829  0.58763  0.93777  1.0000
  H   H909      1.0  0.68571  0.64017  0.71733  1.0000
  H   H910      1.0  0.54311  0.38096  0.76210  1.0000
  H   H911      1.0  0.57004  0.61840  0.81212  1.0000
  H   H912      1.0  0.97495  0.47436  0.80899  1.0000
  H   H913      1.0  0.56206  0.62996  0.75412  1.0000
  H   H914      1.0  0.70375  0.49536  0.76915  1.0000
  H   H915      1.0  0.53579  0.54696  0.93894  1.0000
  N   N53       1.0  0.82788  0.56202  0.61351  1.0000
  H   H916      1.0  0.86519  0.53425  0.61882  1.0000
  H   H917      1.0  0.77750  0.43936  0.79079  1.0000
  H   H918      1.0  0.78419  0.54502  0.61144  1.0000
  H   H919      1.0  0.73576  0.53748  0.77344  1.0000
  C   C766      1.0  0.49725  0.43608  0.77898  1.0000
  H   H920      1.0  0.96259  0.33003  0.78392  1.0000
  H   H921      1.0  0.67872  0.56037  0.91691  1.0000
  H   H922      1.0  0.71781  0.53511  0.94162  1.0000
  N   N54       1.0  0.71716  0.43733  0.77821  1.0000
  C   C767      1.0  0.73070  0.40967  0.78937  1.0000
  C   C768      1.0  0.69077  0.44170  0.79883  1.0000
  C   C769      1.0  0.70819  0.43365  0.74334  1.0000
  C   C770      1.0  0.73690  0.46283  0.78041  1.0000
  C   C771      1.0  0.76724  0.46008  0.78616  1.0000
  C   C772      1.0  0.72629  0.49145  0.77483  1.0000
  C   C773      1.0  0.78541  0.48453  0.78714  1.0000
  C   C774      1.0  0.74459  0.51578  0.77651  1.0000
  C   C775      1.0  0.77410  0.51232  0.78265  1.0000
  H   H923      1.0  0.73907  0.41158  0.81511  1.0000
  H   H924      1.0  0.71489  0.39124  0.78920  1.0000
  H   H925      1.0  0.74892  0.40308  0.77292  1.0000
  H   H926      1.0  0.67567  0.42270  0.79757  1.0000
  H   H927      1.0  0.67774  0.46074  0.79104  1.0000
  H   H928      1.0  0.69645  0.44506  0.82516  1.0000
  H   H929      1.0  0.72734  0.43080  0.72683  1.0000
  H   H930      1.0  0.69381  0.41426  0.74013  1.0000
  H   H931      1.0  0.69594  0.45284  0.73411  1.0000
  C   C776      1.0  0.53930  0.63553  0.76082  1.0000
  H   H932      1.0  0.54346  0.43283  0.77246  1.0000
  H   H933      1.0  0.95297  0.47190  0.85947  1.0000
  H   H934      1.0  0.54826  0.63530  0.84399  1.0000
  C   C777      1.0  0.96222  0.44770  0.90301  1.0000
  C   C778      1.0  0.79010  0.38136  0.96066  1.0000
  H   H935      1.0  0.53114  0.65058  0.74140  1.0000
  H   H936      1.0  0.65247  0.55014  0.94794  1.0000
  C   C779      1.0  0.50119  0.51812  0.92351  1.0000
  H   H937      1.0  0.82587  0.33537  0.95515  1.0000
  H   H938      1.0  0.85742  0.40951  0.94758  1.0000
  H   H939      1.0  0.86714  0.59858  0.58297  1.0000
  H   H940      1.0  0.72597  0.61823  0.74892  1.0000
  C   C780      1.0  0.49296  0.49369  0.90417  1.0000
  C   C781      1.0  0.92803  0.36947  0.99677  1.0000
  C   C782      1.0  0.66499  0.33466  0.53750  1.0000
  C   C783      1.0  0.82739  0.65409  0.53968  1.0000
  H   H941      1.0  0.87645  0.60490  0.52404  1.0000
  C   C784      1.0  0.70678  0.65086  0.71772  1.0000
  C   C785      1.0  0.49581  0.37507  0.76739  1.0000
  H   H942      1.0  0.77383  0.64303  0.75105  1.0000
  H   H943      1.0  0.49773  0.45938  0.78324  1.0000
  C   C786      1.0  0.67638  0.34953  0.50959  1.0000
  H   H944      1.0  0.72599  0.53905  0.98454  1.0000
  C   C787      1.0  0.96970  0.34092  0.76059  1.0000
  C   C788      1.0  0.75623  0.65257  0.73696  1.0000
  C   C789      1.0  0.80693  0.64103  0.51847  1.0000
  H   H945      1.0  0.49376  0.63471  0.80489  1.0000
  C   C790      1.0  0.50689  0.65499  0.80206  1.0000
  H   H946      1.0  0.96231  0.32652  0.74017  1.0000
  Fe  Fe110     1.0  0.67944  0.86249  0.39484  1.0000
  S   S217      1.0  0.64820  0.88765  0.36300  1.0000
  S   S218      1.0  0.67230  0.86605  0.45099  1.0000
  Fe  Fe111     1.0  0.71740  0.84712  0.33400  1.0000
  S   S219      1.0  0.68823  0.87039  0.29812  1.0000
  S   S220      1.0  0.75883  0.82290  0.31949  1.0000
  Fe  Fe112     1.0  0.68750  0.90542  0.33684  1.0000
  S   S221      1.0  0.68803  0.95340  0.32418  1.0000
  Fe  Fe113     1.0  0.65114  0.85074  0.32708  1.0000
  S   S222      1.0  0.61103  0.82834  0.30572  1.0000
  S   S223      1.0  0.71878  0.88351  0.37119  1.0000
  S   S224      1.0  0.68030  0.82416  0.36038  1.0000
  S   S225      1.0  0.55995  0.69872  0.16614  1.0000
  Fe  Fe114     1.0  0.92561  0.86750  0.12347  1.0000
  S   S226      1.0  0.89355  0.83341  0.14073  1.0000
  S   S227      1.0  0.92689  0.89592  0.07628  1.0000
  Fe  Fe115     1.0  0.95686  0.86792  0.19165  1.0000
  S   S228      1.0  0.92668  0.83445  0.21402  1.0000
  H   H947      1.0  0.78159  0.66821  0.42200  1.0000
  Fe  Fe116     1.0  0.93213  0.81208  0.16498  1.0000
  S   S229      1.0  0.93547  0.76302  0.16511  1.0000
  Fe  Fe117     1.0  0.89025  0.85796  0.18864  1.0000
  S   S230      1.0  0.84622  0.87200  0.20921  1.0000
  S   S231      1.0  0.96472  0.84397  0.14405  1.0000
  S   S232      1.0  0.91984  0.89360  0.17018  1.0000
  C   C791      1.0  0.91422  0.88984  0.03495  1.0000
  H   H948      1.0  0.97202  0.98278  0.17246  1.0000
  C   C792      1.0  0.95709  0.95852  0.11529  1.0000
  C   C793      1.0  0.90613  0.86223  0.02355  1.0000
  H   H949      1.0  0.91938  0.93494  0.02090  1.0000
  H   H950      1.0  0.90686  0.84379  0.04024  1.0000
  C   C794      1.0  0.97046  0.74812  0.16879  1.0000
  H   H951      1.0  0.74784  0.68196  0.43696  1.0000
  C   C795      1.0  0.52533  0.74708  0.16978  1.0000
  C   C796      1.0  0.52600  0.71658  0.16731  1.0000
  H   H952      1.0  0.50521  0.94891  0.10885  1.0000
  H   H953      1.0  0.95865  0.67787  0.28802  1.0000
  C   C797      1.0  0.82311  0.70139  0.24222  1.0000
  H   H954      1.0  0.54538  0.75923  0.17112  1.0000
  H   H955      1.0  0.74372  0.80851  0.38804  1.0000
  H   H956      1.0  0.95504  0.70403  0.16315  1.0000
  H   H957      1.0  0.93927  0.94511  0.12627  1.0000
  H   H958      1.0  0.83711  0.68361  0.23502  1.0000
  C   C798      1.0  0.72235  0.97040  0.32517  1.0000
  H   H959      1.0  0.86345  0.78179  0.23228  1.0000
  C   C799      1.0  0.77477  0.96796  0.33046  1.0000
  C   C800      1.0  0.74764  0.95401  0.32902  1.0000
  H   H960      1.0  0.79418  0.95512  0.33382  1.0000
  H   H961      1.0  0.74634  0.93054  0.33080  1.0000
  C   C801      1.0  0.53698  0.87107  0.24626  1.0000
  C   C802      1.0  0.56017  0.88810  0.25817  1.0000
  C   C803      1.0  0.58304  0.87540  0.27627  1.0000
  C   C804      1.0  0.58293  0.84545  0.28276  1.0000
  C   C805      1.0  0.55973  0.82842  0.27095  1.0000
  C   C806      1.0  0.53691  0.84111  0.25274  1.0000
  H   H962      1.0  0.56039  0.91129  0.25337  1.0000
  H   H963      1.0  0.60069  0.88879  0.28524  1.0000
  H   H964      1.0  0.55927  0.80529  0.27610  1.0000
  H   H965      1.0  0.83950  0.90952  0.27491  1.0000
  C   C807      1.0  0.78340  0.83726  0.28950  1.0000
  C   C808      1.0  0.77582  0.86066  0.26909  1.0000
  C   C809      1.0  0.79528  0.87076  0.24460  1.0000
  C   C810      1.0  0.82266  0.85783  0.24033  1.0000
  C   C811      1.0  0.83064  0.83496  0.26133  1.0000
  C   C812      1.0  0.81098  0.82455  0.28558  1.0000
  H   H966      1.0  0.75476  0.87074  0.27184  1.0000
  H   H967      1.0  0.78893  0.88863  0.22871  1.0000
  H   H968      1.0  0.85200  0.82555  0.25912  1.0000
  H   H969      1.0  0.81722  0.80669  0.30152  1.0000
  C   C813      1.0  0.66400  0.84344  0.48586  1.0000
  H   H970      1.0  0.76670  0.67962  0.36769  1.0000
  C   C814      1.0  0.97376  0.71782  0.16741  1.0000
  C   C815      1.0  0.77920  0.71616  0.27055  1.0000
  H   H971      1.0  0.85688  0.69850  0.18586  1.0000
  H   H972      1.0  0.83186  0.93404  0.21930  1.0000
  C   C816      1.0  0.58146  0.82664  0.45487  1.0000
  H   H973      1.0  0.61194  0.95044  0.25063  1.0000
  N   N55       1.0  0.58379  0.84049  0.42168  1.0000
  C   C817      1.0  0.59131  0.87160  0.42682  1.0000
  H   H974      1.0  0.97782  0.90848  0.14330  1.0000
  C   C818      1.0  0.60798  0.82606  0.40388  1.0000
  C   C819      1.0  0.55691  0.83842  0.40178  1.0000
  C   C820      1.0  0.53117  0.82451  0.41351  1.0000
  H   H975      1.0  0.57334  0.88332  0.43945  1.0000
  H   H976      1.0  0.50009  0.67765  0.16337  1.0000
  H   H977      1.0  0.59582  0.88323  0.40326  1.0000
  C   C821      1.0  0.86130  0.92013  0.27441  1.0000
  H   H978      1.0  0.76657  0.97502  0.49251  1.0000
  H   H979      1.0  0.90353  0.73314  0.22148  1.0000
  H   H980      1.0  0.96212  0.70738  0.31689  1.0000
  H   H981      1.0  0.81403  0.72723  0.42075  1.0000
  N   N56       1.0  0.61773  0.76098  0.21527  1.0000
  C   C822      1.0  0.60964  0.76699  0.18041  1.0000
  C   C823      1.0  0.59201  0.74908  0.23300  1.0000
  C   C824      1.0  0.62523  0.78930  0.23077  1.0000
  C   C825      1.0  0.64165  0.73948  0.21627  1.0000
  C   C826      1.0  0.66880  0.74518  0.23173  1.0000
  C   C827      1.0  0.63812  0.71169  0.20147  1.0000
  C   C828      1.0  0.69092  0.72435  0.23190  1.0000
  C   C829      1.0  0.66038  0.69109  0.20174  1.0000
  C   C830      1.0  0.68676  0.69745  0.21682  1.0000
  H   H982      1.0  0.62883  0.77428  0.16572  1.0000
  H   H983      1.0  0.60039  0.74751  0.16795  1.0000
  H   H984      1.0  0.59275  0.78422  0.17859  1.0000
  H   H985      1.0  0.59728  0.74399  0.25923  1.0000
  H   H986      1.0  0.58369  0.72872  0.22159  1.0000
  H   H987      1.0  0.57356  0.76470  0.23285  1.0000
  H   H988      1.0  0.64402  0.79996  0.21823  1.0000
  H   H989      1.0  0.60687  0.80501  0.22956  1.0000
  H   H990      1.0  0.63026  0.78665  0.25752  1.0000
  H   H991      1.0  0.67351  0.76549  0.24401  1.0000
  H   H992      1.0  0.61799  0.70557  0.18967  1.0000
  H   H993      1.0  0.71138  0.72898  0.24403  1.0000
  H   H994      1.0  0.96124  0.70845  0.23981  1.0000
  C   C831      1.0  0.85782  0.66394  0.49144  1.0000
  N   N57       1.0  0.85719  0.73764  0.21562  1.0000
  S   S233      1.0  0.82076  0.65699  0.33527  1.0000
  C   C832      1.0  0.85678  0.72261  0.18321  1.0000
  C   C833      1.0  0.86118  0.76928  0.20898  1.0000
  C   C834      1.0  0.83031  0.73074  0.23440  1.0000
  C   C835      1.0  0.81075  0.75253  0.24570  1.0000
  H   H995      1.0  0.87570  0.90447  0.26151  1.0000
  C   C836      1.0  0.91467  0.94923  0.24969  1.0000
  H   H996      1.0  0.61251  0.83621  0.37946  1.0000
  H   H997      1.0  0.64157  0.95738  0.27699  1.0000
  H   H998      1.0  0.80598  0.73347  0.37781  1.0000
  H   H999      1.0  0.83719  0.72874  0.16875  1.0000
  H   H1000     1.0  0.88121  0.77378  0.19434  1.0000
  H   H1001     1.0  0.87753  0.67316  0.48113  1.0000
  H   H1002     1.0  0.84289  0.77841  0.19434  1.0000
  C   C837      1.0  0.77060  0.68832  0.43098  1.0000
  H   H1003     1.0  0.96313  0.94538  0.17920  1.0000
  N   N58       1.0  0.77180  0.71206  0.40589  1.0000
  C   C838      1.0  0.97541  0.72352  0.25407  1.0000
  C   C839      1.0  0.75744  0.73929  0.41659  1.0000
  C   C840      1.0  0.74394  0.74243  0.44810  1.0000
  C   C841      1.0  0.75679  0.76390  0.39520  1.0000
  C   C842      1.0  0.73068  0.76860  0.45732  1.0000
  C   C843      1.0  0.74367  0.78997  0.40478  1.0000
  H   H1004     1.0  0.81476  0.69779  0.39195  1.0000
  H   H1005     1.0  0.88339  0.73736  0.25951  1.0000
  C   C844      1.0  0.49662  0.95252  0.17952  1.0000
  H   H1006     1.0  0.74339  0.72505  0.46615  1.0000
  H   H1007     1.0  0.76653  0.76331  0.37083  1.0000
  C   C845      1.0  0.53121  0.98175  0.08591  1.0000
  H   H1008     1.0  0.60209  0.82884  0.46907  1.0000
  C   C846      1.0  0.60012  0.98292  0.19463  1.0000
  C   C847      1.0  0.53073  0.84946  0.35036  1.0000
  H   H1009     1.0  0.70640  0.95653  0.39343  1.0000
  H   H1010     1.0  0.72048  0.77062  0.48143  1.0000
  C   C848      1.0  0.49984  0.70113  0.16539  1.0000
  C   C849      1.0  0.88910  0.96364  0.26051  1.0000
  H   H1011     1.0  0.87628  0.72831  0.16797  1.0000
  C   C850      1.0  0.73689  0.94688  0.46880  1.0000
  H   H1012     1.0  0.95828  0.95195  0.08888  1.0000
  H   H1013     1.0  0.81423  0.77545  0.24105  1.0000
  H   H1014     1.0  0.60295  0.80272  0.39914  1.0000
  H   H1015     1.0  0.64835  0.95058  0.23404  1.0000
  H   H1016     1.0  0.61116  0.87415  0.44224  1.0000
  C   C851      1.0  0.75394  0.97216  0.47034  1.0000
  H   H1017     1.0  0.57422  0.97560  0.15101  1.0000
  C   C852      1.0  0.85331  0.94502  0.22246  1.0000
  H   H1018     1.0  0.95032  0.98175  0.11604  1.0000
  H   H1019     1.0  0.62863  0.82717  0.41810  1.0000
  H   H1020     1.0  0.83290  0.98710  0.26099  1.0000
  H   H1021     1.0  0.77135  0.76232  0.27237  1.0000
  C   C853      1.0  0.50592  0.83568  0.36253  1.0000
  H   H1022     1.0  0.91375  0.92751  0.23950  1.0000
  H   H1023     1.0  0.56432  0.83706  0.47022  1.0000
  C   C854      1.0  0.78573  0.74523  0.26368  1.0000
  C   C855      1.0  0.71984  0.94131  0.44116  1.0000
  H   H1024     1.0  0.73391  0.69779  0.37923  1.0000
  C   C856      1.0  0.66216  0.81305  0.48387  1.0000
  H   H1025     1.0  0.53054  0.85907  0.32580  1.0000
  H   H1026     1.0  0.57464  0.86144  0.35868  1.0000
  C   C857      1.0  0.88284  0.72746  0.23445  1.0000
  C   C858      1.0  0.80289  0.71801  0.39872  1.0000
  C   C859      1.0  0.83637  0.96564  0.27324  1.0000
  H   H1027     1.0  0.85252  0.96627  0.20916  1.0000
  C   C860      1.0  0.55588  0.85077  0.36954  1.0000
  H   H1028     1.0  0.88289  0.70339  0.23787  1.0000
  H   H1029     1.0  0.66587  0.80238  0.46047  1.0000
  S   S234      1.0  0.50868  0.88834  0.22373  1.0000
  H   H1030     1.0  0.73683  0.93139  0.48913  1.0000
  H   H1031     1.0  0.51921  0.82774  0.24382  1.0000
  C   C861      1.0  0.91319  0.91346  0.01254  1.0000
  H   H1032     1.0  0.96087  0.73930  0.26668  1.0000
  C   C862      1.0  0.75767  0.70101  0.37545  1.0000
  C   C863      1.0  0.50613  0.82323  0.39400  1.0000
  C   C864      1.0  0.79782  0.69431  0.25978  1.0000
  H   H1033     1.0  0.75973  0.71045  0.28432  1.0000
  H   H1034     1.0  0.65697  0.66987  0.19060  1.0000
  H   H1035     1.0  0.86946  0.93113  0.20955  1.0000
  H   H1036     1.0  0.70669  0.92166  0.44006  1.0000
  H   H1037     1.0  0.76058  0.71592  0.35399  1.0000
  H   H1038     1.0  0.70382  0.68121  0.21737  1.0000
  H   H1039     1.0  0.68377  0.66937  0.28523  1.0000
  H   H1040     1.0  0.72045  0.81264  0.44302  1.0000
  H   H1041     1.0  0.79268  0.67170  0.26531  1.0000
  H   H1042     1.0  0.49852  0.78560  0.17181  1.0000
  H   H1043     1.0  0.86883  0.92209  0.30041  1.0000
  C   C865      1.0  0.73666  0.98629  0.41612  1.0000
  H   H1044     1.0  0.57695  0.80287  0.45303  1.0000
  H   H1045     1.0  0.52979  0.81444  0.43761  1.0000
  C   C866      1.0  0.73060  0.79233  0.43573  1.0000
  H   H1046     1.0  0.81524  0.95384  0.27152  1.0000
  N   N59       1.0  0.98498  0.95409  0.13282  1.0000
  N   N60       1.0  0.86046  0.94905  0.25784  1.0000
  H   H1047     1.0  0.78210  0.69452  0.45412  1.0000
  C   C867      1.0  0.71970  0.96099  0.41492  1.0000
  C   C868      1.0  0.63332  0.96161  0.25156  1.0000
  H   H1048     1.0  0.84051  0.96930  0.29999  1.0000
  H   H1049     1.0  0.58743  0.96738  0.20867  1.0000
  H   H1050     1.0  0.53814  0.96753  0.06607  1.0000
  C   C869      1.0  0.97994  0.96018  0.16845  1.0000
  C   C870      1.0  0.97462  0.69190  0.30127  1.0000
  C   C871      1.0  0.59215  0.98762  0.16169  1.0000
  C   C872      1.0  0.51245  0.97131  0.11059  1.0000
  C   C873      1.0  0.49877  0.76210  0.17007  1.0000
  C   C874      1.0  0.94198  0.96250  0.25184  1.0000
  H   H1051     1.0  0.50013  0.93375  0.16269  1.0000
  H   H1052     1.0  0.51801  0.95844  0.19036  1.0000
  H   H1053     1.0  0.96123  0.95071  0.24414  1.0000
  H   H1054     1.0  0.92872  0.66713  0.23231  1.0000
  H   H1055     1.0  0.98670  0.67717  0.31814  1.0000
  Fe  Fe118     1.0  0.63250  0.79815  0.63293  1.0000
  S   S235      1.0  0.60149  0.83246  0.65100  1.0000
  S   S236      1.0  0.64362  0.78726  0.57876  1.0000
  Fe  Fe119     1.0  0.63936  0.77179  0.70353  1.0000
  S   S237      1.0  0.60919  0.80461  0.72635  1.0000
  S   S238      1.0  0.66347  0.73942  0.73675  1.0000
  Fe  Fe120     1.0  0.58156  0.79647  0.68160  1.0000
  S   S239      1.0  0.53273  0.79360  0.68677  1.0000
  Fe  Fe121     1.0  0.63151  0.83811  0.69452  1.0000
  S   S240      1.0  0.64812  0.88240  0.71269  1.0000
  S   S241      1.0  0.61014  0.76150  0.66082  1.0000
  S   S242      1.0  0.66425  0.80586  0.67450  1.0000
  Fe  Fe122     1.0  0.90845  0.67811  0.65873  1.0000
  S   S243      1.0  0.87239  0.70752  0.64171  1.0000
  H   H1056     1.0  0.76715  0.69925  0.64514  1.0000
  Fe  Fe123     1.0  0.85505  0.69949  0.69304  1.0000
  S   S244      1.0  0.83214  0.73356  0.72489  1.0000
  H   H1057     1.0  0.91501  0.97761  0.88689  1.0000
  Fe  Fe124     1.0  0.87287  0.90177  0.87985  1.0000
  S   S245      1.0  0.84198  0.87654  0.84726  1.0000
  S   S246      1.0  0.88643  0.87506  0.92580  1.0000
  Fe  Fe125     1.0  0.87739  0.95128  0.82733  1.0000
  S   S247      1.0  0.84777  0.92867  0.79164  1.0000
  H   H1058     1.0  0.58579  0.74862  0.59010  1.0000
  Fe  Fe126     1.0  0.82058  0.91946  0.83681  1.0000
  S   S248      1.0  0.77158  0.92110  0.83211  1.0000
  Fe  Fe127     1.0  0.87153  0.88749  0.80496  1.0000
  S   S249      1.0  0.88928  0.85491  0.76733  1.0000
  S   S250      1.0  0.84886  0.94419  0.87242  1.0000
  S   S251      1.0  0.90374  0.91077  0.83751  1.0000
  C   C875      1.0  0.89639  0.88192  0.96792  1.0000
  H   H1059     1.0  0.78954  0.71504  0.67658  1.0000
  C   C876      1.0  0.71154  0.98524  0.84133  1.0000
  C   C877      1.0  0.90415  0.90962  0.97939  1.0000
  H   H1060     1.0  0.96870  0.82159  0.70609  1.0000
  C   C878      1.0  0.84820  0.76733  0.73627  1.0000
  C   C879      1.0  0.87563  0.77576  0.72464  1.0000
  C   C880      1.0  0.88786  0.80252  0.73455  1.0000
  C   C881      1.0  0.87285  0.82128  0.75601  1.0000
  C   C882      1.0  0.84540  0.81287  0.76767  1.0000
  C   C883      1.0  0.83317  0.78603  0.75783  1.0000
  H   H1061     1.0  0.88751  0.76159  0.70815  1.0000
  H   H1062     1.0  0.90916  0.80859  0.72560  1.0000
  H   H1063     1.0  0.83353  0.82710  0.78408  1.0000
  H   H1064     1.0  0.81196  0.77972  0.76700  1.0000
  S   S252      1.0  0.82951  0.66024  0.67664  1.0000
  C   C884      1.0  0.72497  0.95824  0.83550  1.0000
  C   C885      1.0  0.75466  0.95444  0.84202  1.0000
  H   H1065     1.0  0.95855  0.97848  0.85279  1.0000
  H   H1066     1.0  0.49126  0.83951  0.81438  1.0000
  H   H1067     1.0  0.71237  0.94049  0.82542  1.0000
  H   H1068     1.0  0.69351  0.84602  0.72912  1.0000
  H   H1069     1.0  0.49394  0.97255  0.86884  1.0000
  C   C886      1.0  0.52223  0.70606  0.69546  1.0000
  C   C887      1.0  0.53480  0.73368  0.69084  1.0000
  C   C888      1.0  0.51760  0.75866  0.69242  1.0000
  H   H1070     1.0  0.52368  0.94861  0.88001  1.0000
  H   H1071     1.0  0.52625  0.70010  0.76209  1.0000
  H   H1072     1.0  0.53572  0.68686  0.69416  1.0000
  H   H1073     1.0  0.55780  0.73554  0.68613  1.0000
  C   C889      1.0  0.97713  0.75474  0.70383  1.0000
  H   H1074     1.0  0.94176  0.72367  0.70114  1.0000
  C   C890      1.0  0.65075  0.70364  0.74634  1.0000
  C   C891      1.0  0.66417  0.68761  0.77179  1.0000
  H   H1075     1.0  0.90354  0.92801  0.96264  1.0000
  H   H1076     1.0  0.72959  0.83761  0.71426  1.0000
  H   H1077     1.0  0.76739  0.88088  0.77927  1.0000
  C   C892      1.0  0.62810  0.69063  0.72874  1.0000
  H   H1078     1.0  0.68188  0.69731  0.78540  1.0000
  H   H1079     1.0  0.50499  0.66764  0.82538  1.0000
  H   H1080     1.0  0.70772  0.90279  0.75978  1.0000
  H   H1081     1.0  0.61757  0.70256  0.70906  1.0000
  C   C893      1.0  0.63134  0.90734  0.74043  1.0000
  C   C894      1.0  0.60516  0.90102  0.75668  1.0000
  C   C895      1.0  0.59268  0.92162  0.77829  1.0000
  C   C896      1.0  0.60594  0.94886  0.78369  1.0000
  C   C897      1.0  0.63241  0.95492  0.76796  1.0000
  C   C898      1.0  0.64500  0.93427  0.74652  1.0000
  H   H1082     1.0  0.59461  0.88026  0.75265  1.0000
  H   H1083     1.0  0.57277  0.91636  0.79115  1.0000
  C   C899      1.0  0.65580  0.79631  0.51246  1.0000
  H   H1084     1.0  0.66528  0.93941  0.73422  1.0000
  C   C900      1.0  0.65102  0.80963  0.54338  1.0000
  C   C901      1.0  0.65248  0.84002  0.54520  1.0000
  S   S253      1.0  0.58813  0.97495  0.80919  1.0000
  H   H1085     1.0  0.97860  0.90692  0.66457  1.0000
  H   H1086     1.0  0.72322  0.75031  0.64995  1.0000
  H   H1087     1.0  0.64886  0.85067  0.56866  1.0000
  C   C902      1.0  0.54622  0.70045  0.77590  1.0000
  H   H1088     1.0  0.60292  0.74673  0.78856  1.0000
  C   C903      1.0  0.61915  0.66195  0.73635  1.0000
  C   C904      1.0  0.51093  0.90276  0.77114  1.0000
  C   C905      1.0  0.55527  0.67579  0.79440  1.0000
  C   C906      1.0  0.85299  0.66537  0.52591  1.0000
  H   H1089     1.0  0.94035  0.83683  0.68050  1.0000
  C   C907      1.0  0.49408  0.96485  0.93813  1.0000
  C   C908      1.0  0.53024  0.70056  0.57847  1.0000
  C   C909      1.0  0.74834  0.74318  0.70920  1.0000
  H   H1090     1.0  0.78156  0.68935  0.72268  1.0000
  C   C910      1.0  0.50967  0.93211  0.78041  1.0000
  H   H1091     1.0  0.94083  0.72643  0.76646  1.0000
  H   H1092     1.0  0.69860  0.73378  0.67832  1.0000
  H   H1093     1.0  0.88886  0.73394  0.77863  1.0000
  Fe  Fe128     1.0  0.85017  0.66584  0.62643  1.0000
  C   C911      1.0  0.95539  0.75777  0.80231  1.0000
  C   C912      1.0  0.50682  0.71598  0.59306  1.0000
  N   N61       1.0  0.97956  0.86280  0.68334  1.0000
  C   C913      1.0  0.51547  0.84267  0.75355  1.0000
  H   H1094     1.0  0.96416  0.78943  0.83920  1.0000
  C   C914      1.0  0.95810  0.84219  0.69807  1.0000
  H   H1095     1.0  0.65473  0.77283  0.51069  1.0000
  C   C915      1.0  0.70966  0.88322  0.77598  1.0000
  C   C916      1.0  0.72900  0.83467  0.78285  1.0000
  C   C917      1.0  0.74140  0.83685  0.81484  1.0000
  C   C918      1.0  0.71710  0.80711  0.77390  1.0000
  C   C919      1.0  0.74230  0.81290  0.83627  1.0000
  C   C920      1.0  0.71797  0.78336  0.79562  1.0000
  C   C921      1.0  0.73064  0.78621  0.82667  1.0000
  H   H1096     1.0  0.68719  0.87496  0.78046  1.0000
  H   H1097     1.0  0.71844  0.89095  0.80001  1.0000
  H   H1098     1.0  0.75022  0.85727  0.82371  1.0000
  H   H1099     1.0  0.70660  0.80330  0.75046  1.0000
  H   H1100     1.0  0.75183  0.81524  0.86061  1.0000
  H   H1101     1.0  0.70834  0.76270  0.78841  1.0000
  H   H1102     1.0  0.73112  0.76777  0.84346  1.0000
  C   C922      1.0  0.89753  0.85832  0.99029  1.0000
  N   N62       1.0  0.90920  0.80492  0.85910  1.0000
  C   C923      1.0  0.92286  0.83351  0.85141  1.0000
  C   C924      1.0  0.87738  0.80968  0.86154  1.0000
  C   C925      1.0  0.91944  0.79512  0.89200  1.0000
  C   C926      1.0  0.91739  0.78323  0.83369  1.0000
  C   C927      1.0  0.58221  0.67823  0.81130  1.0000
  H   H1103     1.0  0.52702  0.67919  0.56797  1.0000
  C   C928      1.0  0.65484  0.65905  0.77982  1.0000
  H   H1104     1.0  0.97088  0.80971  0.64939  1.0000
  H   H1105     1.0  0.55604  0.74401  0.75899  1.0000
  C   C929      1.0  0.89657  0.76660  0.81583  1.0000
  C   C930      1.0  0.59877  0.70382  0.80964  1.0000
  C   C931      1.0  0.96119  0.73198  0.68926  1.0000
  H   H1106     1.0  0.86841  0.81746  0.83754  1.0000
  H   H1107     1.0  0.87195  0.82648  0.88041  1.0000
  H   H1108     1.0  0.86565  0.78957  0.86932  1.0000
  H   H1109     1.0  0.94345  0.79299  0.89293  1.0000
  C   C932      1.0  0.54167  0.75496  0.60611  1.0000
  H   H1110     1.0  0.90988  0.77358  0.89871  1.0000
  C   C933      1.0  0.93586  0.98220  0.89827  1.0000
  N   N63       1.0  0.72816  0.86048  0.76078  1.0000
  C   C934      1.0  0.71082  0.67729  0.70097  1.0000
  H   H1111     1.0  0.56672  0.96934  0.91046  1.0000
  H   H1112     1.0  0.53185  0.84565  0.77342  1.0000
  H   H1113     1.0  0.86890  0.67559  0.54174  1.0000
  H   H1114     1.0  0.49752  0.75645  0.62014  1.0000
  H   H1115     1.0  0.54632  0.77587  0.61742  1.0000
  H   H1116     1.0  0.91732  0.84076  0.82597  1.0000
  H   H1117     1.0  0.49593  0.66748  0.78208  1.0000
  H   H1118     1.0  0.64300  0.97567  0.77196  1.0000
  H   H1119     1.0  0.78733  0.96771  0.77313  1.0000
  C   C935      1.0  0.58941  0.72741  0.79079  1.0000
  H   H1120     1.0  0.87346  0.76919  0.81916  1.0000
  S   S254      1.0  0.89238  0.67211  0.71107  1.0000
  C   C936      1.0  0.93443  0.74192  0.78526  1.0000
  C   C937      1.0  0.71628  0.85405  0.72750  1.0000
  C   C938      1.0  0.76911  0.71798  0.66246  1.0000
  C   C939      1.0  0.75790  0.87239  0.75599  1.0000
  C   C940      1.0  0.76051  0.67902  0.72037  1.0000
  H   H1121     1.0  0.94801  0.88479  0.65339  1.0000
  C   C941      1.0  0.73804  0.69206  0.70150  1.0000
  H   H1122     1.0  0.77252  0.73806  0.64742  1.0000
  H   H1123     1.0  0.71540  0.87392  0.71160  1.0000
  H   H1124     1.0  0.77293  0.85545  0.74638  1.0000
  H   H1125     1.0  0.75814  0.89110  0.73839  1.0000
  H   H1126     1.0  0.76788  0.73865  0.72449  1.0000
  S   S255      1.0  0.95467  0.68790  0.64362  1.0000
  H   H1127     1.0  0.73600  0.96949  0.75565  1.0000
  H   H1128     1.0  0.97819  0.75456  0.79661  1.0000
  C   C942      1.0  0.94710  0.77789  0.82643  1.0000
  H   H1129     1.0  0.57590  0.70016  0.56610  1.0000
  C   C943      1.0  0.97105  0.71937  0.65988  1.0000
  H   H1130     1.0  0.91327  0.81091  0.91176  1.0000
  C   C944      1.0  0.55832  0.71228  0.57737  1.0000
  H   H1131     1.0  0.52327  0.85374  0.73060  1.0000
  N   N64       1.0  0.74317  0.72016  0.68427  1.0000
  H   H1132     1.0  0.53178  0.89487  0.76293  1.0000
  C   C945      1.0  0.51477  0.98728  0.93159  1.0000
  C   C946      1.0  0.51350  0.74347  0.60737  1.0000
  C   C947      1.0  0.71844  0.72956  0.66329  1.0000
  H   H1133     1.0  0.52917  0.94547  0.77955  1.0000
  H   H1134     1.0  0.91547  0.85077  0.86876  1.0000
  C   C948      1.0  0.96370  0.88950  0.67359  1.0000
  C   C949      1.0  0.65898  0.85673  0.51668  1.0000
  H   H1135     1.0  0.94727  0.85140  0.72040  1.0000
  C   C950      1.0  0.56312  0.72577  0.77404  1.0000
  H   H1136     1.0  0.51511  0.81895  0.74786  1.0000
  C   C951      1.0  0.90514  0.74617  0.79220  1.0000
  H   H1137     1.0  0.75198  0.76482  0.69740  1.0000
  H   H1138     1.0  0.96979  0.76414  0.72684  1.0000
  H   H1139     1.0  0.66027  0.88020  0.51862  1.0000
  H   H1140     1.0  0.71320  0.71296  0.64421  1.0000
  H   H1141     1.0  0.94686  0.83312  0.85335  1.0000
  H   H1142     1.0  0.95119  0.89871  0.69473  1.0000
  H   H1143     1.0  0.89164  0.83677  0.98188  1.0000
  H   H1144     1.0  0.61956  0.70496  0.82204  1.0000
  C   C952      1.0  0.56398  0.73953  0.59097  1.0000
  H   H1145     1.0  0.72945  0.74501  0.72637  1.0000
  H   H1146     1.0  0.79343  0.97485  0.86052  1.0000
  C   C953      1.0  0.51781  0.97130  0.87300  1.0000
  C   C954      1.0  0.49247  0.70330  0.70220  1.0000
  S   S256      1.0  0.81963  0.65630  0.58290  1.0000
  C   C955      1.0  0.77063  0.97754  0.85524  1.0000
  H   H1147     1.0  0.69208  0.68590  0.68836  1.0000
  H   H1148     1.0  0.52843  0.97555  0.84860  1.0000
  C   C956      1.0  0.93735  0.98762  0.93206  1.0000
  C   C957      1.0  0.48773  0.75585  0.69850  1.0000
  C   C958      1.0  0.96105  0.98277  0.87891  1.0000
  H   H1149     1.0  0.59146  0.66041  0.82515  1.0000
  H   H1150     1.0  0.49117  0.65908  0.60268  1.0000
  C   C959      1.0  0.49098  0.97861  0.99583  1.0000
  H   H1151     1.0  0.91774  0.98698  0.94697  1.0000
  H   H1152     1.0  0.68880  0.98817  0.83564  1.0000
  C   C960      1.0  0.77584  0.98829  0.77325  1.0000
