data_image0
_chemical_formula_structural       CS3CFeSFeHSHFeSHFeSCFeSFeS2H2C4H2C3SC2H5C6H4CH2C3H4NCHSH2C3H2C2HNH3C3HCHC2HSCHCHCS2CHC2H5FeHCHC2H3CHC2H2CH4C3HC3H3NH2NH3C2FeCHCHCHSHFeS2H3FeSCFeS2H2C8H5CHCH3CH2SC2SH2C2H8SC2H2CH2C2FeH6CHCHFeHCN2H2C3FeHCH3NC3H6CSCHSCHCSC2HCSC5H2NH3C4HSHSC2SCSFeSCHCHCNHCHCHCHC3H4NH3CH3CH2C5H6CFeHSHCH3CH3CH4C3H3CSC4HCSHC2HCHCHC2HC2HC2FeCSC3SHFeS2FeHSH2CS2HCFeS2C2H4C4SC2H2C2FeNCHCHC2HC4H3C2HSHC3H2CH5CH5SH3CH2C3SCH2CH5CH2CH2FeH4FeSNCFeS2FeS2Fe2HS2CHSC7H3C3H3CH5C6H5CHCH7CH3FeC3HCHCNCS2H3CHC3HC2HCSHCHCH3CHC2FeHSFeS2FeSCSH2S2CH2C7H3C7H4NHCH4NH8CH2CHCH2CH2CHC2HFeHC2H3C2HCNCHC2HCH2C2H2CNH4C2HCSCH3SHCHFeS2HFe2SFeCSCHCSC3H6C6H4CH4SHCH3SNC9H14C2H2C2HCNCHCH3C2HCS2H3CH3C2FeSC2FeS2FeHSFe2SHC2S3HCH2CH2C7H4SH2C5H3SC2HCHC4H3NC2H2C3SC2HCHC2H4CHCFeH3CH2CH2FeS2FeSFeHSFeS2Fe2CS2FeHSC2HC2H3CHSC4SH4C2HSHC2HCHCHC2HC4NH2CSC3H6CSC2FeH3NH6SH3FeC3FeHCHCSC2HCH2CH2FeH2CHC2HC2HCH2NHCH2C2H2SFeHSFeCSFeHFeS2C3H2C2HSHCHC4H3FeC2SHC2HC3HCHCHC3NH2CH3C2SCH3C2HC4H2CHC3HC3NH3C2H2CH2SCH2FeH3CHCH2CNCH7C2HCH2C3H5SCHNSCH2CH2C2NH5CH2SHFeHSCHSCFeS2FeSHSH3C4H2SH3CNS2C3HC7H3C5H3C4H3CH4CHC2H5NFeC2H3C2H2FeHCH2CSC2NSCH9SNCH3C2H3C3H2NH3CFeHSFeHSCH2CS3FeS2FeHFe3S2HC2H2SCSC6H3CNH2C6H6CNHS2C3FeH5C2HC4HCH2C2H3CH3CH5CSHCSHCH2CH2CH2CH2NHC2HC3HCH
_chemical_formula_sum              "C540 S144 Fe72 H648 N36"
_cell_length_a       38.8848
_cell_length_b       38.9993
_cell_length_c       36.4469
_cell_angle_alpha    89.3355
_cell_angle_beta     90.3333
_cell_angle_gamma    119.299

_space_group_name_H-M_alt    "P 1"
_space_group_IT_number       1

loop_
  _space_group_symop_operation_xyz
  'x, y, z'

loop_
  _atom_site_type_symbol
  _atom_site_label
  _atom_site_symmetry_multiplicity
  _atom_site_fract_x
  _atom_site_fract_y
  _atom_site_fract_z
  _atom_site_occupancy
  C   C1        1.0  0.15329  0.33762  0.40360  1.0000
  S   S1        1.0  0.42006  0.10509  0.98666  1.0000
  S   S2        1.0  0.50834  0.08108  0.98461  1.0000
  S   S3        1.0  0.44265  0.08370  0.06679  1.0000
  C   C2        1.0  0.36847  0.24174  0.25770  1.0000
  Fe  Fe1       1.0  0.40681  0.11102  0.04578  1.0000
  S   S4        1.0  0.41436  0.16837  0.06929  1.0000
  Fe  Fe2       1.0  0.44975  0.07146  0.00773  1.0000
  H   H1        1.0  0.15475  0.34901  0.37612  1.0000
  S   S5        1.0  0.05617  0.34667  0.33658  1.0000
  H   H2        1.0  0.15914  0.29925  0.13296  1.0000
  Fe  Fe3       1.0  0.30702  0.32836  0.15459  1.0000
  S   S6        1.0  0.25157  0.27031  0.15616  1.0000
  H   H3        1.0  0.38675  0.11977  0.25992  1.0000
  Fe  Fe4       1.0  0.33300  0.31502  0.23055  1.0000
  S   S7        1.0  0.27946  0.25547  0.23659  1.0000
  C   C3        1.0  0.34610  0.16283  0.98900  1.0000
  Fe  Fe5       1.0  0.29076  0.24699  0.17753  1.0000
  S   S8        1.0  0.28384  0.18902  0.15652  1.0000
  Fe  Fe6       1.0  0.24663  0.28553  0.21461  1.0000
  S   S9        1.0  0.18846  0.27692  0.23721  1.0000
  S   S10       1.0  0.34682  0.30468  0.17292  1.0000
  H   H4        1.0  0.19643  0.28728  0.37122  1.0000
  H   H5        1.0  0.40516  0.08507  0.20333  1.0000
  C   C4        1.0  0.38605  0.21483  0.30973  1.0000
  C   C5        1.0  0.29798  0.31489  0.05372  1.0000
  C   C6        1.0  0.29524  0.30313  0.01694  1.0000
  C   C7        1.0  0.30954  0.33119  0.98837  1.0000
  H   H6        1.0  0.28727  0.29312  0.07556  1.0000
  H   H7        1.0  0.28213  0.27222  0.01067  1.0000
  C   C8        1.0  0.33623  0.31829  0.39530  1.0000
  C   C9        1.0  0.33755  0.13021  0.96742  1.0000
  C   C10       1.0  0.37655  0.15087  0.19845  1.0000
  S   S11       1.0  0.34912  0.05480  0.04666  1.0000
  C   C11       1.0  0.32168  0.31008  0.32970  1.0000
  C   C12       1.0  0.30892  0.30324  0.36642  1.0000
  H   H8        1.0  0.39991  0.22507  0.02902  1.0000
  H   H9        1.0  0.28941  0.11553  0.24384  1.0000
  H   H10       1.0  0.30032  0.29879  0.30771  1.0000
  H   H11       1.0  0.27774  0.28631  0.37240  1.0000
  H   H12       1.0  0.40831  0.16464  0.20605  1.0000
  C   C13       1.0  0.37786  0.17328  0.09407  1.0000
  C   C14       1.0  0.38661  0.21056  0.10695  1.0000
  C   C15       1.0  0.35800  0.21607  0.12552  1.0000
  C   C16       1.0  0.32032  0.18419  0.13167  1.0000
  C   C17       1.0  0.31164  0.14687  0.11897  1.0000
  C   C18       1.0  0.34018  0.14142  0.10021  1.0000
  H   H13       1.0  0.41571  0.23542  0.10242  1.0000
  H   H14       1.0  0.36525  0.24490  0.13532  1.0000
  H   H15       1.0  0.28258  0.12201  0.12360  1.0000
  H   H16       1.0  0.33294  0.11262  0.09035  1.0000
  C   C19       1.0  0.39627  0.24689  0.01203  1.0000
  H   H17       1.0  0.42052  0.36224  0.34442  1.0000
  H   H18       1.0  0.36936  0.12477  0.18123  1.0000
  C   C20       1.0  0.18437  0.31470  0.25991  1.0000
  C   C21       1.0  0.14682  0.30839  0.26978  1.0000
  C   C22       1.0  0.20598  0.32226  0.96920  1.0000
  H   H19       1.0  0.11322  0.33237  0.29519  1.0000
  H   H20       1.0  0.12106  0.28051  0.26371  1.0000
  H   H21       1.0  0.37940  0.11710  0.45052  1.0000
  H   H22       1.0  0.41808  0.25596  0.98929  1.0000
  N   N1        1.0  0.35558  0.23090  0.99761  1.0000
  C   C23       1.0  0.22738  0.35778  0.15923  1.0000
  H   H23       1.0  0.34644  0.08274  0.23499  1.0000
  S   S12       1.0  0.29967  0.34536  0.21160  1.0000
  H   H24       1.0  0.34817  0.20663  0.21002  1.0000
  H   H25       1.0  0.38958  0.27179  0.30882  1.0000
  C   C24       1.0  0.36194  0.33152  0.32156  1.0000
  C   C25       1.0  0.30936  0.12255  0.21980  1.0000
  C   C26       1.0  0.37639  0.18066  0.28999  1.0000
  H   H26       1.0  0.36056  0.28871  0.99658  1.0000
  H   H27       1.0  0.39701  0.21796  0.33760  1.0000
  C   C27       1.0  0.38201  0.24525  0.29362  1.0000
  C   C28       1.0  0.21743  0.35087  0.26794  1.0000
  H   H28       1.0  0.36569  0.26564  0.24517  1.0000
  N   N2        1.0  0.35116  0.14026  0.23153  1.0000
  H   H29       1.0  0.39784  0.35137  0.40920  1.0000
  H   H30       1.0  0.39601  0.06093  0.13944  1.0000
  H   H31       1.0  0.30405  0.14247  0.20159  1.0000
  C   C29       1.0  0.32770  0.21867  0.02897  1.0000
  C   C30       1.0  0.39504  0.05431  0.19842  1.0000
  C   C31       1.0  0.33832  0.15743  0.43167  1.0000
  H   H32       1.0  0.33658  0.13193  0.41858  1.0000
  C   C32       1.0  0.16436  0.30879  0.02261  1.0000
  H   H33       1.0  0.18822  0.32201  0.34566  1.0000
  C   C33       1.0  0.38931  0.34602  0.35045  1.0000
  C   C34       1.0  0.13580  0.31082  0.00086  1.0000
  H   H34       1.0  0.38063  0.15847  0.30402  1.0000
  S   S13       1.0  0.38904  0.04547  0.27320  1.0000
  C   C35       1.0  0.19946  0.31479  0.00687  1.0000
  H   H35       1.0  0.29666  0.20558  0.01926  1.0000
  C   C36       1.0  0.18471  0.33304  0.41840  1.0000
  H   H36       1.0  0.29980  0.09511  0.20395  1.0000
  C   C37       1.0  0.32902  0.18159  0.40984  1.0000
  S   S14       1.0  0.31892  0.31027  0.44104  1.0000
  S   S15       1.0  0.37895  0.34079  0.27571  1.0000
  C   C38       1.0  0.14229  0.33779  0.28760  1.0000
  H   H37       1.0  0.40478  0.27289  0.02980  1.0000
  C   C39       1.0  0.52743  0.05453  0.44756  1.0000
  C   C40       1.0  0.36206  0.17602  0.25331  1.0000
  H   H38       1.0  0.22198  0.31382  0.02393  1.0000
  H   H39       1.0  0.32962  0.19652  0.04700  1.0000
  H   H40       1.0  0.37321  0.17212  0.18033  1.0000
  H   H41       1.0  0.22588  0.34578  0.18737  1.0000
  H   H42       1.0  0.24654  0.35613  0.26079  1.0000
  Fe  Fe7       1.0  0.36477  0.04661  0.98916  1.0000
  H   H43       1.0  0.26127  0.35809  0.44162  1.0000
  C   C41       1.0  0.35858  0.20775  0.23779  1.0000
  H   H44       1.0  0.33684  0.09945  0.27701  1.0000
  C   C42       1.0  0.35551  0.10941  0.25193  1.0000
  C   C43       1.0  0.25166  0.33993  0.41641  1.0000
  H   H45       1.0  0.35320  0.16149  0.01749  1.0000
  H   H46       1.0  0.33363  0.24393  0.04695  1.0000
  H   H47       1.0  0.12835  0.31814  0.14996  1.0000
  C   C44       1.0  0.48982  0.04288  0.25206  1.0000
  H   H48       1.0  0.23395  0.32671  0.95900  1.0000
  C   C45       1.0  0.31427  0.35480  0.06210  1.0000
  C   C46       1.0  0.20989  0.31891  0.36339  1.0000
  H   H49       1.0  0.32302  0.23376  0.40768  1.0000
  H   H50       1.0  0.10866  0.30665  0.01321  1.0000
  C   C47       1.0  0.37652  0.33968  0.38719  1.0000
  H   H51       1.0  0.53336  0.05718  0.21010  1.0000
  H   H52       1.0  0.24178  0.30874  0.42410  1.0000
  H   H53       1.0  0.23203  0.33816  0.14033  1.0000
  H   H54       1.0  0.15953  0.30310  0.05182  1.0000
  C   C48       1.0  0.15722  0.31915  0.15350  1.0000
  C   C49       1.0  0.11916  0.32745  0.42384  1.0000
  C   C50       1.0  0.39027  0.04076  0.16218  1.0000
  H   H55       1.0  0.32333  0.25389  0.96723  1.0000
  C   C51       1.0  0.34588  0.19655  0.97411  1.0000
  C   C52       1.0  0.33019  0.21499  0.42455  1.0000
  C   C53       1.0  0.35348  0.26350  0.97811  1.0000
  H   H56       1.0  0.27866  0.34970  0.39941  1.0000
  H   H57       1.0  0.23605  0.32632  0.34584  1.0000
  H   H58       1.0  0.53022  0.08289  0.45362  1.0000
  N   N3        1.0  0.22059  0.34416  0.39629  1.0000
  H   H59       1.0  0.32069  0.17437  0.38136  1.0000
  H   H60       1.0  0.09562  0.33133  0.41195  1.0000
  N   N4        1.0  0.19105  0.35960  0.14992  1.0000
  H   H61       1.0  0.15636  0.30623  0.18115  1.0000
  H   H62       1.0  0.47039  0.04860  0.23468  1.0000
  H   H63       1.0  0.33800  0.10483  0.97941  1.0000
  C   C54       1.0  0.52528  0.04762  0.23832  1.0000
  C   C55       1.0  0.51444  0.04534  0.96013  1.0000
  Fe  Fe8       1.0  0.04399  0.36244  0.39244  1.0000
  C   C56       1.0  0.17940  0.31693  0.45453  1.0000
  H   H64       1.0  0.47103  0.03310  0.42045  1.0000
  C   C57       1.0  0.14204  0.31841  0.96320  1.0000
  H   H65       1.0  0.32106  0.16234  0.88593  1.0000
  C   C58       1.0  0.34932  0.16635  0.46915  1.0000
  H   H66       1.0  0.50439  0.07653  0.84974  1.0000
  S   S16       1.0  0.11926  0.28701  0.72231  1.0000
  H   H67       1.0  0.10318  0.33364  0.59153  1.0000
  Fe  Fe9       1.0  0.30083  0.06137  0.67539  1.0000
  S   S17       1.0  0.36123  0.06759  0.67754  1.0000
  S   S18       1.0  0.29002  0.11069  0.65466  1.0000
  H   H68       1.0  0.24493  0.33895  0.78843  1.0000
  H   H69       1.0  0.21650  0.29927  0.67736  1.0000
  H   H70       1.0  0.34453  0.27883  0.73607  1.0000
  Fe  Fe10      1.0  0.36396  0.33381  0.48695  1.0000
  S   S19       1.0  0.42066  0.33206  0.48450  1.0000
  C   C59       1.0  0.33644  0.19544  0.93618  1.0000
  Fe  Fe11      1.0  0.40699  0.30990  0.54297  1.0000
  S   S20       1.0  0.41694  0.26048  0.56500  1.0000
  S   S21       1.0  0.34808  0.30713  0.54372  1.0000
  H   H71       1.0  0.36725  0.09036  0.49276  1.0000
  H   H72       1.0  0.19878  0.28508  0.63113  1.0000
  C   C60       1.0  0.32805  0.16262  0.91480  1.0000
  C   C61       1.0  0.21932  0.33284  0.89202  1.0000
  C   C62       1.0  0.32530  0.15135  0.62863  1.0000
  C   C63       1.0  0.31490  0.17855  0.61397  1.0000
  C   C64       1.0  0.34265  0.21226  0.59467  1.0000
  C   C65       1.0  0.38113  0.21903  0.58970  1.0000
  C   C66       1.0  0.39141  0.19164  0.60402  1.0000
  C   C67       1.0  0.36369  0.15800  0.62341  1.0000
  H   H73       1.0  0.28522  0.17362  0.61773  1.0000
  H   H74       1.0  0.33420  0.23289  0.58358  1.0000
  H   H75       1.0  0.42110  0.19658  0.60032  1.0000
  H   H76       1.0  0.37224  0.13751  0.63462  1.0000
  H   H77       1.0  0.41640  0.34283  0.70520  1.0000
  C   C68       1.0  0.11499  0.31210  0.45920  1.0000
  H   H78       1.0  0.42393  0.07749  0.84984  1.0000
  C   C69       1.0  0.19657  0.35068  0.61211  1.0000
  H   H79       1.0  0.29417  0.19194  0.73471  1.0000
  H   H80       1.0  0.30208  0.22660  0.69847  1.0000
  H   H81       1.0  0.35770  0.20908  0.51141  1.0000
  C   C70       1.0  0.14495  0.30669  0.47446  1.0000
  H   H82       1.0  0.41019  0.27160  0.69509  1.0000
  H   H83       1.0  0.41556  0.14584  0.78541  1.0000
  S   S22       1.0  0.30650  0.31558  0.94249  1.0000
  C   C71       1.0  0.15682  0.32145  0.75127  1.0000
  C   C72       1.0  0.18885  0.31581  0.76054  1.0000
  S   S23       1.0  0.30841  0.34730  0.84065  1.0000
  H   H84       1.0  0.12116  0.30149  0.89053  1.0000
  H   H85       1.0  0.18945  0.28996  0.75093  1.0000
  C   C73       1.0  0.37116  0.20720  0.73946  1.0000
  C   C74       1.0  0.40067  0.16634  0.50724  1.0000
  H   H86       1.0  0.08826  0.30414  0.47461  1.0000
  H   H87       1.0  0.24645  0.35761  0.90382  1.0000
  H   H88       1.0  0.30915  0.18582  0.68963  1.0000
  H   H89       1.0  0.38918  0.28407  0.75396  1.0000
  H   H90       1.0  0.14426  0.27127  0.89252  1.0000
  H   H91       1.0  0.20127  0.31170  0.46792  1.0000
  H   H92       1.0  0.11909  0.32013  0.94766  1.0000
  H   H93       1.0  0.33904  0.10735  0.54300  1.0000
  S   S24       1.0  0.39567  0.36166  0.77472  1.0000
  C   C75       1.0  0.40340  0.16292  0.77275  1.0000
  C   C76       1.0  0.42542  0.20379  0.77122  1.0000
  H   H94       1.0  0.15394  0.30528  0.85505  1.0000
  H   H95       1.0  0.40371  0.19106  0.52435  1.0000
  C   C77       1.0  0.35866  0.10778  0.47415  1.0000
  H   H96       1.0  0.21949  0.30486  0.89804  1.0000
  H   H97       1.0  0.33380  0.15020  0.54215  1.0000
  C   C78       1.0  0.36578  0.14381  0.75755  1.0000
  C   C79       1.0  0.40974  0.22569  0.75468  1.0000
  Fe  Fe12      1.0  0.33351  0.36221  0.89776  1.0000
  H   H98       1.0  0.34329  0.24851  0.77413  1.0000
  H   H99       1.0  0.45861  0.05473  0.79690  1.0000
  H   H100      1.0  0.34912  0.11194  0.75842  1.0000
  H   H101      1.0  0.26341  0.34217  0.61065  1.0000
  H   H102      1.0  0.42223  0.17947  0.48435  1.0000
  H   H103      1.0  0.45491  0.21852  0.78271  1.0000
  C   C80       1.0  0.34984  0.20043  0.48320  1.0000
  H   H104      1.0  0.42825  0.25726  0.75356  1.0000
  C   C81       1.0  0.34975  0.16535  0.74093  1.0000
  H   H105      1.0  0.32071  0.14838  0.72913  1.0000
  Fe  Fe13      1.0  0.34214  0.03686  0.73238  1.0000
  H   H106      1.0  0.32232  0.10474  0.91381  1.0000
  C   C82       1.0  0.49097  0.04489  0.85757  1.0000
  N   N5        1.0  0.35998  0.14197  0.49308  1.0000
  N   N6        1.0  0.18303  0.33186  0.90608  1.0000
  H   H107      1.0  0.16959  0.29253  0.66459  1.0000
  H   H108      1.0  0.14131  0.29428  0.50189  1.0000
  C   C83       1.0  0.14913  0.30114  0.88532  1.0000
  C   C84       1.0  0.39250  0.06206  0.85489  1.0000
  C   C85       1.0  0.32867  0.13012  0.93038  1.0000
  Fe  Fe14      1.0  0.06628  0.29297  0.70378  1.0000
  H   H109      1.0  0.41000  0.14889  0.52496  1.0000
  C   C86       1.0  0.20017  0.30395  0.65440  1.0000
  H   H110      1.0  0.05196  0.29944  0.86375  1.0000
  H   H111      1.0  0.32840  0.08692  0.46423  1.0000
  H   H112      1.0  0.40181  0.35313  0.64091  1.0000
  N   N7        1.0  0.35540  0.23116  0.72196  1.0000
  C   C87       1.0  0.37883  0.25068  0.68862  1.0000
  C   C88       1.0  0.31337  0.20777  0.71085  1.0000
  C   C89       1.0  0.35825  0.26177  0.74763  1.0000
  H   H113      1.0  0.39915  0.06416  0.91380  1.0000
  H   H114      1.0  0.36705  0.26769  0.67345  1.0000
  H   H115      1.0  0.33539  0.21954  0.92234  1.0000
  H   H116      1.0  0.30133  0.10863  0.51515  1.0000
  H   H117      1.0  0.37871  0.22864  0.66940  1.0000
  H   H118      1.0  0.34116  0.25022  0.47254  1.0000
  C   C90       1.0  0.22036  0.34356  0.78184  1.0000
  S   S25       1.0  0.06840  0.35137  0.70284  1.0000
  C   C91       1.0  0.33238  0.12642  0.52463  1.0000
  H   H119      1.0  0.49793  0.05056  0.75238  1.0000
  S   S26       1.0  0.38491  0.05798  0.78008  1.0000
  C   C92       1.0  0.36609  0.04948  0.82523  1.0000
  H   H120      1.0  0.51266  0.04177  0.87519  1.0000
  C   C93       1.0  0.26076  0.35878  0.63410  1.0000
  S   S27       1.0  0.04191  0.27720  0.64633  1.0000
  C   C94       1.0  0.39939  0.35747  0.69981  1.0000
  C   C95       1.0  0.37851  0.05475  0.89119  1.0000
  H   H121      1.0  0.14027  0.32508  0.64142  1.0000
  C   C96       1.0  0.39137  0.36353  0.66332  1.0000
  S   S28       1.0  0.28317  0.03435  0.73210  1.0000
  C   C97       1.0  0.17711  0.32381  0.94604  1.0000
  C   C98       1.0  0.15245  0.36089  0.55475  1.0000
  C   C99       1.0  0.15581  0.33828  0.61609  1.0000
  C   C100      1.0  0.15641  0.35501  0.76383  1.0000
  C   C101      1.0  0.13421  0.34317  0.58772  1.0000
  H   H122      1.0  0.22224  0.33737  0.86176  1.0000
  H   H123      1.0  0.46491  0.03745  0.87527  1.0000
  N   N8        1.0  0.21890  0.34593  0.64299  1.0000
  H   H124      1.0  0.27632  0.35384  0.65759  1.0000
  H   H125      1.0  0.13201  0.35976  0.75683  1.0000
  H   H126      1.0  0.18821  0.35969  0.68462  1.0000
  C   C102      1.0  0.05043  0.36007  0.55587  1.0000
  C   C103      1.0  0.52032  0.04611  0.76575  1.0000
  C   C104      1.0  0.34045  0.22427  0.46117  1.0000
  C   C105      1.0  0.33795  0.03541  0.89810  1.0000
  H   H127      1.0  0.37490  0.27562  0.95503  1.0000
  S   S29       1.0  0.53082  0.59143  0.39148  1.0000
  H   H128      1.0  0.07622  0.53791  0.02750  1.0000
  S   S30       1.0  0.08725  0.44002  0.31419  1.0000
  C   C106      1.0  0.06330  0.67610  0.03287  1.0000
  C   C107      1.0  0.21288  0.38035  0.28560  1.0000
  S   S31       1.0  0.10280  0.41724  0.39683  1.0000
  C   C108      1.0  0.07640  0.49645  0.17893  1.0000
  S   S32       1.0  0.07968  0.50639  0.39097  1.0000
  Fe  Fe15      1.0  0.11259  0.40399  0.33896  1.0000
  S   S33       1.0  0.17137  0.41101  0.31984  1.0000
  C   C109      1.0  0.06737  0.55159  0.13647  1.0000
  H   H129      1.0  0.06321  0.46187  0.13138  1.0000
  C   C110      1.0  0.08173  0.53103  0.19483  1.0000
  H   H130      1.0  0.26590  0.39554  0.36832  1.0000
  C   C111      1.0  0.32776  0.38270  0.03348  1.0000
  N   N9        1.0  0.47460  0.47538  0.31732  1.0000
  H   H131      1.0  0.34052  0.41361  0.03974  1.0000
  C   C112      1.0  0.06670  0.48925  0.14176  1.0000
  H   H132      1.0  0.21090  0.41592  0.17495  1.0000
  C   C113      1.0  0.44314  0.44140  0.29728  1.0000
  H   H133      1.0  0.07457  0.65602  0.03787  1.0000
  C   C114      1.0  0.06730  0.39236  0.18225  1.0000
  H   H134      1.0  0.47803  0.52412  0.34810  1.0000
  C   C115      1.0  0.08689  0.65113  0.38282  1.0000
  C   C116      1.0  0.22402  0.38718  0.08803  1.0000
  C   C117      1.0  0.18665  0.38495  0.17745  1.0000
  H   H135      1.0  0.43206  0.45102  0.27327  1.0000
  H   H136      1.0  0.45352  0.42100  0.28762  1.0000
  H   H137      1.0  0.50021  0.44221  0.34095  1.0000
  H   H138      1.0  0.11323  0.65603  0.32998  1.0000
  N   N10       1.0  0.05168  0.51022  0.07981  1.0000
  H   H139      1.0  0.07040  0.39646  0.24140  1.0000
  H   H140      1.0  0.46239  0.52838  0.42557  1.0000
  H   H141      1.0  0.08921  0.53636  0.22366  1.0000
  C   C118      1.0  0.17533  0.37391  0.29570  1.0000
  H   H142      1.0  0.08391  0.57473  0.42374  1.0000
  H   H143      1.0  0.06562  0.52622  0.31756  1.0000
  H   H144      1.0  0.07975  0.47495  0.19552  1.0000
  C   C119      1.0  0.45736  0.49958  0.33038  1.0000
  H   H145      1.0  0.08427  0.57164  0.06329  1.0000
  H   H146      1.0  0.48974  0.46789  0.24278  1.0000
  C   C120      1.0  0.08121  0.67125  0.41132  1.0000
  C   C121      1.0  0.19106  0.40521  0.04127  1.0000
  C   C122      1.0  0.48585  0.45947  0.34962  1.0000
  C   C123      1.0  0.52447  0.54979  0.41710  1.0000
  C   C124      1.0  0.50995  0.50014  0.29468  1.0000
  H   H147      1.0  0.25024  0.38559  0.09519  1.0000
  H   H148      1.0  0.19083  0.41665  0.01408  1.0000
  H   H149      1.0  0.06417  0.57386  0.12125  1.0000
  H   H150      1.0  0.11200  0.54592  0.06267  1.0000
  H   H151      1.0  0.07622  0.47214  0.06886  1.0000
  H   H152      1.0  0.09890  0.40572  0.17886  1.0000
  C   C125      1.0  0.05807  0.55031  0.31856  1.0000
  Fe  Fe16      1.0  0.07117  0.44723  0.37191  1.0000
  H   H153      1.0  0.41697  0.42342  0.31496  1.0000
  S   S34       1.0  0.06360  0.38756  0.10705  1.0000
  H   H154      1.0  0.43028  0.48194  0.34704  1.0000
  C   C126      1.0  0.04807  0.47293  0.06596  1.0000
  H   H155      1.0  0.50672  0.48300  0.36811  1.0000
  H   H156      1.0  0.06877  0.67536  0.97390  1.0000
  H   H157      1.0  0.33719  0.39297  0.97521  1.0000
  C   C127      1.0  0.07714  0.55851  0.17366  1.0000
  H   H158      1.0  0.08119  0.58540  0.18607  1.0000
  H   H159      1.0  0.25416  0.38739  0.15840  1.0000
  H   H160      1.0  0.18726  0.37477  0.20601  1.0000
  C   C128      1.0  0.10854  0.67168  0.35203  1.0000
  H   H161      1.0  0.06814  0.56415  0.34591  1.0000
  H   H162      1.0  0.45980  0.43985  0.36682  1.0000
  H   H163      1.0  0.23865  0.40818  0.29177  1.0000
  H   H164      1.0  0.44959  0.51304  0.30691  1.0000
  C   C129      1.0  0.19163  0.37517  0.11252  1.0000
  C   C130      1.0  0.23826  0.38588  0.38427  1.0000
  C   C131      1.0  0.06200  0.51679  0.11927  1.0000
  H   H165      1.0  0.24523  0.40570  0.40819  1.0000
  H   H166      1.0  0.15823  0.38507  0.17469  1.0000
  H   H167      1.0  0.24865  0.41096  0.03488  1.0000
  C   C132      1.0  0.08237  0.54284  0.05749  1.0000
  S   S35       1.0  0.05376  0.67454  0.10763  1.0000
  C   C133      1.0  0.15881  0.39356  0.06450  1.0000
  C   C134      1.0  0.05120  0.38733  0.21769  1.0000
  C   C135      1.0  0.06020  0.68718  0.99661  1.0000
  C   C136      1.0  0.48681  0.52301  0.43066  1.0000
  H   H168      1.0  0.07454  0.61960  0.38478  1.0000
  C   C137      1.0  0.51293  0.49256  0.25704  1.0000
  S   S36       1.0  0.31734  0.37083  0.10776  1.0000
  H   H169      1.0  0.21842  0.39123  0.36601  1.0000
  C   C138      1.0  0.22356  0.40201  0.05301  1.0000
  C   C139      1.0  0.05162  0.69065  0.06258  1.0000
  H   H170      1.0  0.06402  0.65516  0.43512  1.0000
  C   C140      1.0  0.32579  0.37101  0.99682  1.0000
  H   H171      1.0  0.13347  0.39610  0.05549  1.0000
  C   C141      1.0  0.48058  0.48965  0.45131  1.0000
  H   H172      1.0  0.07589  0.57233  0.29711  1.0000
  C   C142      1.0  0.05708  0.54965  0.43348  1.0000
  C   C143      1.0  0.15900  0.37878  0.09959  1.0000
  H   H173      1.0  0.05338  0.47209  0.96743  1.0000
  C   C144      1.0  0.04823  0.51168  0.42278  1.0000
  C   C145      1.0  0.04492  0.49308  0.95741  1.0000
  H   H174      1.0  0.13331  0.37044  0.11660  1.0000
  C   C146      1.0  0.04267  0.38016  0.15130  1.0000
  C   C147      1.0  0.46316  0.47528  0.76081  1.0000
  Fe  Fe17      1.0  0.08489  0.64333  0.87607  1.0000
  C   C148      1.0  0.38552  0.37027  0.72922  1.0000
  S   S37       1.0  0.09575  0.59385  0.89632  1.0000
  C   C149      1.0  0.53161  0.48694  0.94185  1.0000
  C   C150      1.0  0.22007  0.37724  0.79425  1.0000
  C   C151      1.0  0.45778  0.47980  0.57873  1.0000
  S   S38       1.0  0.09604  0.66524  0.81737  1.0000
  H   H175      1.0  0.12399  0.39265  0.85480  1.0000
  Fe  Fe18      1.0  0.39393  0.44629  0.87757  1.0000
  S   S39       1.0  0.44018  0.37101  0.56603  1.0000
  S   S40       1.0  0.44414  0.50475  0.89823  1.0000
  Fe  Fe19      1.0  0.31073  0.40577  0.84152  1.0000
  H   H176      1.0  0.48377  0.42788  0.79232  1.0000
  S   S41       1.0  0.25873  0.41266  0.82171  1.0000
  H   H177      1.0  0.27775  0.39079  0.62753  1.0000
  H   H178      1.0  0.50586  0.53973  0.72723  1.0000
  C   C152      1.0  0.07216  0.52659  0.93756  1.0000
  S   S42       1.0  0.33200  0.41885  0.90004  1.0000
  S   S43       1.0  0.37243  0.43964  0.81894  1.0000
  H   H179      1.0  0.08524  0.41752  0.53136  1.0000
  C   C153      1.0  0.51686  0.54234  0.56319  1.0000
  Fe  Fe20      1.0  0.44767  0.39324  0.50753  1.0000
  S   S44       1.0  0.50651  0.44274  0.48650  1.0000
  S   S45       1.0  0.39140  0.39602  0.50699  1.0000
  C   C154      1.0  0.50931  0.45766  0.78647  1.0000
  C   C155      1.0  0.48335  0.49057  0.82339  1.0000
  H   H180      1.0  0.04860  0.52568  0.83121  1.0000
  H   H181      1.0  0.10101  0.39618  0.79236  1.0000
  H   H182      1.0  0.34046  0.41194  0.67999  1.0000
  H   H183      1.0  0.45760  0.46220  0.83206  1.0000
  C   C156      1.0  0.09465  0.41015  0.81488  1.0000
  C   C157      1.0  0.19238  0.37334  0.54980  1.0000
  C   C158      1.0  0.07648  0.44417  0.87325  1.0000
  C   C159      1.0  0.36407  0.38975  0.72187  1.0000
  S   S46       1.0  0.05011  0.68918  0.61499  1.0000
  C   C160      1.0  0.05924  0.69549  0.68984  1.0000
  C   C161      1.0  0.49651  0.50053  0.56563  1.0000
  H   H184      1.0  0.50751  0.57187  0.93338  1.0000
  H   H185      1.0  0.06218  0.42800  0.78084  1.0000
  C   C162      1.0  0.18787  0.38272  0.78523  1.0000
  C   C163      1.0  0.53095  0.54959  0.74531  1.0000
  Fe  Fe21      1.0  0.37113  0.38152  0.82123  1.0000
  N   N11       1.0  0.49728  0.48837  0.78619  1.0000
  C   C164      1.0  0.05560  0.37356  0.49009  1.0000
  H   H186      1.0  0.47094  0.47148  0.73237  1.0000
  C   C165      1.0  0.43807  0.49970  0.58943  1.0000
  H   H187      1.0  0.08075  0.51758  0.86077  1.0000
  C   C166      1.0  0.48738  0.51097  0.92130  1.0000
  C   C167      1.0  0.49631  0.48039  0.92464  1.0000
  H   H188      1.0  0.47600  0.45163  0.91413  1.0000
  C   C168      1.0  0.04682  0.68513  0.72637  1.0000
  C   C169      1.0  0.10754  0.40805  0.85010  1.0000
  C   C170      1.0  0.53129  0.52701  0.77615  1.0000
  C   C171      1.0  0.09853  0.42507  0.87924  1.0000
  H   H189      1.0  0.44134  0.55598  0.59492  1.0000
  H   H190      1.0  0.18735  0.40868  0.79466  1.0000
  H   H191      1.0  0.20644  0.38725  0.52408  1.0000
  C   C172      1.0  0.06147  0.55382  0.92355  1.0000
  C   C173      1.0  0.37001  0.38311  0.65594  1.0000
  H   H192      1.0  0.53765  0.56521  0.49437  1.0000
  S   S47       1.0  0.39647  0.39001  0.87836  1.0000
  H   H193      1.0  0.07104  0.45756  0.89664  1.0000
  C   C174      1.0  0.49572  0.56168  0.57402  1.0000
  C   C175      1.0  0.35667  0.39644  0.68537  1.0000
  C   C176      1.0  0.04500  0.46490  0.57228  1.0000
  H   H194      1.0  0.45120  0.49604  0.76052  1.0000
  H   H195      1.0  0.50953  0.48294  0.55719  1.0000
  C   C177      1.0  0.51423  0.54808  0.93541  1.0000
  H   H196      1.0  0.05818  0.48902  0.59263  1.0000
  H   H197      1.0  0.06702  0.39444  0.46766  1.0000
  H   H198      1.0  0.10155  0.53121  0.93255  1.0000
  H   H199      1.0  0.35314  0.39968  0.74426  1.0000
  H   H200      1.0  0.51200  0.64106  0.86233  1.0000
  C   C178      1.0  0.06162  0.44564  0.83790  1.0000
  H   H201      1.0  0.08783  0.51933  0.81230  1.0000
  H   H202      1.0  0.43822  0.44623  0.76930  1.0000
  H   H203      1.0  0.44268  0.44795  0.58033  1.0000
  H   H204      1.0  0.53806  0.46300  0.94450  1.0000
  H   H205      1.0  0.23168  0.40115  0.66690  1.0000
  S   S48       1.0  0.06223  0.37800  0.60099  1.0000
  H   H206      1.0  0.40793  0.48319  0.59930  1.0000
  H   H207      1.0  0.10818  0.42299  0.90673  1.0000
  H   H208      1.0  0.47428  0.51357  0.82461  1.0000
  C   C179      1.0  0.06568  0.38664  0.52632  1.0000
  H   H209      1.0  0.50614  0.49759  0.84491  1.0000
  H   H210      1.0  0.21178  0.39467  0.91213  1.0000
  C   C180      1.0  0.18599  0.37054  0.89791  1.0000
  C   C181      1.0  0.45695  0.54059  0.58699  1.0000
  C   C182      1.0  0.06487  0.50889  0.83409  1.0000
  S   S49       1.0  0.35919  0.39109  0.61045  1.0000
  C   C183      1.0  0.07205  0.42860  0.80867  1.0000
  H   H211      1.0  0.50897  0.59332  0.57214  1.0000
  H   H212      1.0  0.52179  0.45632  0.75945  1.0000
  C   C184      1.0  0.51198  0.48261  0.45843  1.0000
  H   H213      1.0  0.45162  0.46973  0.46215  1.0000
  H   H214      1.0  0.05391  0.47873  0.54452  1.0000
  H   H215      1.0  0.53172  0.46279  0.80792  1.0000
  H   H216      1.0  0.05880  0.44591  0.57563  1.0000
  H   H217      1.0  0.15915  0.37163  0.90644  1.0000
  C   C185      1.0  0.21432  0.36837  0.57793  1.0000
  H   H218      1.0  0.24517  0.37896  0.57235  1.0000
  H   H219      1.0  0.18994  0.37752  0.86801  1.0000
  C   C186      1.0  0.21858  0.36949  0.67452  1.0000
  H   H220      1.0  0.23546  0.36722  0.69836  1.0000
  H   H221      1.0  0.53477  0.59221  0.86790  1.0000
  Fe  Fe22      1.0  0.38170  0.36927  0.56380  1.0000
  H   H222      1.0  0.04635  0.43911  0.63640  1.0000
  H   H223      1.0  0.13552  0.36517  0.53317  1.0000
  H   H224      1.0  0.15407  0.78301  0.23733  1.0000
  H   H225      1.0  0.19098  0.78890  0.39792  1.0000
  Fe  Fe23      1.0  0.06458  0.76969  0.20856  1.0000
  S   S50       1.0  0.11314  0.82898  0.22932  1.0000
  N   N12       1.0  0.24199  0.92283  0.17974  1.0000
  C   C187      1.0  0.26838  0.94898  0.15042  1.0000
  Fe  Fe24      1.0  0.31303  0.91733  0.34275  1.0000
  S   S51       1.0  0.30802  0.97222  0.34133  1.0000
  S   S52       1.0  0.26596  0.85841  0.31996  1.0000
  Fe  Fe25      1.0  0.39707  0.96102  0.37647  1.0000
  S   S53       1.0  0.39490  0.01268  0.00720  1.0000
  S   S54       1.0  0.44903  0.95365  0.39576  1.0000
  Fe  Fe26      1.0  0.33586  0.98380  0.39755  1.0000
  Fe  Fe27      1.0  0.37015  0.00139  0.32012  1.0000
  H   H226      1.0  0.17371  0.92566  0.20156  1.0000
  S   S55       1.0  0.33618  0.92641  0.40091  1.0000
  S   S56       1.0  0.37419  0.94609  0.31856  1.0000
  C   C188      1.0  0.27025  0.97381  0.22924  1.0000
  H   H227      1.0  0.27411  0.93225  0.12896  1.0000
  S   S57       1.0  0.31369  0.00699  0.44320  1.0000
  C   C189      1.0  0.12459  0.79458  0.40529  1.0000
  C   C190      1.0  0.04535  0.71289  0.98989  1.0000
  C   C191      1.0  0.37436  0.98868  0.22144  1.0000
  C   C192      1.0  0.37004  0.97522  0.18521  1.0000
  C   C193      1.0  0.37733  0.00105  0.15550  1.0000
  C   C194      1.0  0.13515  0.81913  0.95905  1.0000
  C   C195      1.0  0.20065  0.94546  0.21565  1.0000
  H   H228      1.0  0.36769  0.96829  0.24407  1.0000
  H   H229      1.0  0.36027  0.94450  0.18018  1.0000
  H   H230      1.0  0.13299  0.81908  0.33668  1.0000
  C   C196      1.0  0.48969  0.98946  0.42098  1.0000
  C   C197      1.0  0.12099  0.78680  0.34017  1.0000
  C   C198      1.0  0.53549  0.00955  0.07998  1.0000
  H   H231      1.0  0.16425  0.86046  0.00218  1.0000
  H   H232      1.0  0.44346  0.00156  0.07741  1.0000
  H   H233      1.0  0.51671  0.95279  0.42619  1.0000
  C   C199      1.0  0.25978  0.90007  0.19612  1.0000
  H   H234      1.0  0.25569  0.96593  0.13673  1.0000
  H   H235      1.0  0.24162  0.88139  0.21938  1.0000
  H   H236      1.0  0.21406  0.79575  0.27271  1.0000
  H   H237      1.0  0.22189  0.90334  0.96589  1.0000
  H   H238      1.0  0.10964  0.80002  0.97564  1.0000
  C   C200      1.0  0.15564  0.83648  0.25411  1.0000
  C   C201      1.0  0.17650  0.87101  0.27459  1.0000
  C   C202      1.0  0.21093  0.87872  0.29404  1.0000
  C   C203      1.0  0.22461  0.85158  0.29362  1.0000
  C   C204      1.0  0.20371  0.81694  0.27319  1.0000
  C   C205      1.0  0.16963  0.80958  0.25321  1.0000
  H   H239      1.0  0.16560  0.89169  0.27587  1.0000
  H   H240      1.0  0.22646  0.90533  0.30985  1.0000
  H   H241      1.0  0.45393  0.99961  0.96405  1.0000
  H   H242      1.0  0.16903  0.96645  0.24856  1.0000
  H   H243      1.0  0.50014  0.97753  0.16727  1.0000
  C   C206      1.0  0.46886  0.00045  0.08850  1.0000
  H   H244      1.0  0.20876  0.87586  0.14159  1.0000
  C   C207      1.0  0.50085  0.98703  0.13907  1.0000
  H   H245      1.0  0.51731  0.97224  0.35207  1.0000
  H   H246      1.0  0.29768  0.97079  0.16120  1.0000
  H   H247      1.0  0.18310  0.87334  0.18288  1.0000
  H   H248      1.0  0.08833  0.77266  0.33976  1.0000
  H   H249      1.0  0.26241  0.88038  0.17579  1.0000
  H   H250      1.0  0.29912  0.97708  0.22487  1.0000
  H   H251      1.0  0.09194  0.78125  0.40792  1.0000
  C   C208      1.0  0.16598  0.85312  0.97389  1.0000
  H   H252      1.0  0.18957  0.78679  0.34889  1.0000
  H   H253      1.0  0.19005  0.90905  0.14748  1.0000
  H   H254      1.0  0.29000  0.91911  0.20679  1.0000
  Fe  Fe28      1.0  0.38542  0.02717  0.06460  1.0000
  C   C209      1.0  0.20428  0.89414  0.16224  1.0000
  C   C210      1.0  0.09699  0.71202  0.40919  1.0000
  C   C211      1.0  0.26668  0.99662  0.25664  1.0000
  H   H255      1.0  0.19294  0.82875  0.37095  1.0000
  C   C212      1.0  0.23728  0.94704  0.20822  1.0000
  H   H256      1.0  0.13663  0.79073  0.43183  1.0000
  C   C213      1.0  0.17893  0.79610  0.37304  1.0000
  N   N13       1.0  0.13530  0.77703  0.37444  1.0000
  C   C214      1.0  0.46839  0.98873  0.12478  1.0000
  S   S58       1.0  0.06703  0.71333  0.21008  1.0000
  S   S59       1.0  0.36717  0.98227  0.11064  1.0000
  H   H257      1.0  0.29227  0.01589  0.27291  1.0000
  H   H258      1.0  0.50049  0.01955  0.03841  1.0000
  H   H259      1.0  0.12966  0.77690  0.31529  1.0000
  C   C215      1.0  0.50417  0.02360  0.31102  1.0000
  H   H260      1.0  0.44264  0.98076  0.14169  1.0000
  C   C216      1.0  0.19745  0.96876  0.24290  1.0000
  C   C217      1.0  0.51959  0.98121  0.43211  1.0000
  C   C218      1.0  0.12432  0.71245  0.34955  1.0000
  H   H261      1.0  0.09120  0.72551  0.43229  1.0000
  C   C219      1.0  0.11855  0.73387  0.37787  1.0000
  C   C220      1.0  0.38627  0.02817  0.22817  1.0000
  H   H262      1.0  0.14121  0.72716  0.32527  1.0000
  C   C221      1.0  0.23030  0.99403  0.26354  1.0000
  S   S60       1.0  0.39775  0.01883  0.37610  1.0000
  H   H263      1.0  0.22744  0.01132  0.28515  1.0000
  C   C222      1.0  0.50176  0.01068  0.06637  1.0000
  H   H264      1.0  0.13664  0.82682  0.40128  1.0000
  C   C223      1.0  0.53401  0.99717  0.11714  1.0000
  H   H265      1.0  0.53344  0.95722  0.31267  1.0000
  H   H266      1.0  0.49455  0.01438  0.33897  1.0000
  H   H267      1.0  0.53510  0.99565  0.00696  1.0000
  C   C224      1.0  0.49375  0.02629  0.42884  1.0000
  H   H268      1.0  0.45183  0.02751  0.29900  1.0000
  C   C225      1.0  0.54045  0.02788  0.29796  1.0000
  C   C226      1.0  0.47937  0.03099  0.28834  1.0000
  Fe  Fe29      1.0  0.12371  0.72652  0.84027  1.0000
  H   H269      1.0  0.48649  0.99972  0.61658  1.0000
  S   S61       1.0  0.18199  0.77757  0.81979  1.0000
  Fe  Fe30      1.0  0.26162  0.97551  0.70512  1.0000
  S   S62       1.0  0.31973  0.97672  0.70885  1.0000
  S   S63       1.0  0.20327  0.91963  0.71599  1.0000
  Fe  Fe31      1.0  0.33216  0.00701  0.65366  1.0000
  S   S64       1.0  0.35763  0.98773  0.60769  1.0000
  C   C227      1.0  0.52715  0.98908  0.92285  1.0000
  S   S65       1.0  0.27262  0.00219  0.64835  1.0000
  H   H270      1.0  0.47751  0.95277  0.60003  1.0000
  H   H271      1.0  0.13242  0.72618  0.63943  1.0000
  S   S66       1.0  0.06718  0.72879  0.84195  1.0000
  S   S67       1.0  0.53307  0.95334  0.89822  1.0000
  C   C228      1.0  0.48307  0.00749  0.95420  1.0000
  H   H272      1.0  0.19812  0.82548  0.56951  1.0000
  H   H273      1.0  0.14609  0.75721  0.57821  1.0000
  C   C229      1.0  0.16313  0.77419  0.60155  1.0000
  C   C230      1.0  0.34520  0.99328  0.56209  1.0000
  C   C231      1.0  0.35967  0.98075  0.53296  1.0000
  C   C232      1.0  0.35005  0.98460  0.49641  1.0000
  C   C233      1.0  0.32560  0.00076  0.48876  1.0000
  C   C234      1.0  0.48942  0.97957  0.93563  1.0000
  C   C235      1.0  0.32084  0.00954  0.55441  1.0000
  H   H274      1.0  0.37864  0.96827  0.53860  1.0000
  H   H275      1.0  0.50299  0.02275  0.55157  1.0000
  H   H276      1.0  0.43877  0.00518  0.77986  1.0000
  C   C236      1.0  0.17563  0.77846  0.66667  1.0000
  C   C237      1.0  0.19810  0.88014  0.74445  1.0000
  C   C238      1.0  0.16020  0.84834  0.75106  1.0000
  C   C239      1.0  0.15465  0.81661  0.77393  1.0000
  C   C240      1.0  0.18718  0.81605  0.78987  1.0000
  C   C241      1.0  0.22521  0.84740  0.78247  1.0000
  C   C242      1.0  0.23066  0.87948  0.76021  1.0000
  H   H277      1.0  0.13503  0.84836  0.73844  1.0000
  H   H278      1.0  0.12526  0.79251  0.77902  1.0000
  H   H279      1.0  0.25060  0.84702  0.79429  1.0000
  H   H280      1.0  0.26002  0.90360  0.75521  1.0000
  N   N14       1.0  0.23711  0.89265  0.89227  1.0000
  H   H281      1.0  0.46493  0.95037  0.93117  1.0000
  C   C243      1.0  0.25522  0.86874  0.88060  1.0000
  H   H282      1.0  0.20409  0.88196  0.84159  1.0000
  H   H283      1.0  0.45578  0.95815  0.81273  1.0000
  H   H284      1.0  0.29922  0.92253  0.64860  1.0000
  H   H285      1.0  0.04547  0.77698  0.61000  1.0000
  N   N15       1.0  0.24907  0.87606  0.62112  1.0000
  H   H286      1.0  0.26379  0.85686  0.90477  1.0000
  H   H287      1.0  0.04293  0.78643  0.80483  1.0000
  H   H288      1.0  0.21403  0.90381  0.63155  1.0000
  H   H289      1.0  0.43552  0.96816  0.85302  1.0000
  H   H290      1.0  0.29400  0.94561  0.89302  1.0000
  H   H291      1.0  0.28010  0.00870  0.87356  1.0000
  H   H292      1.0  0.28197  0.88615  0.86347  1.0000
  H   H293      1.0  0.50953  0.97453  0.63831  1.0000
  C   C244      1.0  0.44876  0.02362  0.80489  1.0000
  H   H294      1.0  0.21024  0.92379  0.86684  1.0000
  H   H295      1.0  0.17014  0.82456  0.87335  1.0000
  C   C245      1.0  0.32550  0.03004  0.83210  1.0000
  H   H296      1.0  0.25734  0.93266  0.60406  1.0000
  C   C246      1.0  0.31151  0.02334  0.86844  1.0000
  H   H297      1.0  0.16847  0.76499  0.69382  1.0000
  H   H298      1.0  0.25064  0.92577  0.84135  1.0000
  C   C247      1.0  0.15501  0.75669  0.63622  1.0000
  H   H299      1.0  0.36176  0.97528  0.47415  1.0000
  H   H300      1.0  0.30491  0.02028  0.80946  1.0000
  C   C248      1.0  0.50057  0.98128  0.61135  1.0000
  H   H301      1.0  0.25703  0.94801  0.91974  1.0000
  C   C249      1.0  0.23315  0.90215  0.60971  1.0000
  C   C250      1.0  0.26816  0.92789  0.91115  1.0000
  H   H302      1.0  0.25653  0.89755  0.67660  1.0000
  Fe  Fe32      1.0  0.05963  0.70231  0.89856  1.0000
  H   H303      1.0  0.22004  0.83263  0.68726  1.0000
  C   C251      1.0  0.17000  0.83362  0.90124  1.0000
  C   C252      1.0  0.05278  0.81607  0.75265  1.0000
  H   H304      1.0  0.30250  0.90600  0.58877  1.0000
  H   H305      1.0  0.26172  0.86984  0.56433  1.0000
  H   H306      1.0  0.28602  0.85493  0.59802  1.0000
  C   C253      1.0  0.21609  0.83561  0.62705  1.0000
  C   C254      1.0  0.27350  0.89308  0.65442  1.0000
  H   H307      1.0  0.30981  0.01966  0.57651  1.0000
  C   C255      1.0  0.19910  0.87754  0.95259  1.0000
  N   N16       1.0  0.48016  0.01965  0.82466  1.0000
  C   C256      1.0  0.20557  0.81747  0.66240  1.0000
  H   H308      1.0  0.07274  0.81231  0.64471  1.0000
  C   C257      1.0  0.46293  0.97797  0.83668  1.0000
  C   C258      1.0  0.19305  0.81314  0.59692  1.0000
  H   H309      1.0  0.21528  0.89194  0.58422  1.0000
  C   C259      1.0  0.22496  0.90658  0.85915  1.0000
  H   H310      1.0  0.49712  0.97627  0.53824  1.0000
  H   H311      1.0  0.28553  0.87425  0.66513  1.0000
  C   C260      1.0  0.27577  0.87649  0.59184  1.0000
  C   C261      1.0  0.04495  0.81196  0.71499  1.0000
  H   H312      1.0  0.23481  0.84311  0.86384  1.0000
  H   H313      1.0  0.07266  0.84478  0.76387  1.0000
  C   C262      1.0  0.04968  0.78130  0.64020  1.0000
  N   N17       1.0  0.53442  0.00159  0.58588  1.0000
  H   H314      1.0  0.48321  0.97283  0.85453  1.0000
  H   H315      1.0  0.08723  0.72132  0.68441  1.0000
  H   H316      1.0  0.27989  0.91983  0.93575  1.0000
  H   H317      1.0  0.05974  0.83816  0.69809  1.0000
  C   C263      1.0  0.51864  0.00536  0.54974  1.0000
  C   C264      1.0  0.13712  0.80952  0.92277  1.0000
  H   H318      1.0  0.06193  0.76233  0.65011  1.0000
  C   C265      1.0  0.20219  0.86828  0.91550  1.0000
  S   S68       1.0  0.31952  0.02544  0.94340  1.0000
  C   C266      1.0  0.31090  0.01303  0.51792  1.0000
  H   H319      1.0  0.29187  0.02543  0.51225  1.0000
  H   H320      1.0  0.42205  0.01411  0.82224  1.0000
  H   H321      1.0  0.11312  0.78299  0.91134  1.0000
  S   S69       1.0  0.11835  0.70465  0.89879  1.0000
  H   H322      1.0  0.53299  0.94871  0.56619  1.0000
  C   C267      1.0  0.51586  0.03095  0.80220  1.0000
  H   H323      1.0  0.06538  0.70283  0.74859  1.0000
  Fe  Fe33      1.0  0.93787  0.30774  0.03517  1.0000
  S   S70       1.0  0.99427  0.30511  0.03648  1.0000
  S   S71       1.0  0.87814  0.25824  0.05423  1.0000
  H   H324      1.0  0.78458  0.15885  0.44416  1.0000
  Fe  Fe34      1.0  0.00623  0.33527  0.98108  1.0000
  Fe  Fe35      1.0  0.72455  0.04110  0.22999  1.0000
  S   S72       1.0  0.94765  0.33346  0.97786  1.0000
  Fe  Fe36      1.0  0.78984  0.06228  0.17386  1.0000
  C   C268      1.0  0.58531  0.06172  0.04233  1.0000
  S   S73       1.0  0.84938  0.10998  0.15234  1.0000
  C   C269      1.0  0.90173  0.17456  0.37967  1.0000
  H   H325      1.0  0.81288  0.10131  0.35132  1.0000
  C   C270      1.0  0.69855  0.06728  0.35082  1.0000
  S   S74       1.0  0.70298  0.06437  0.27597  1.0000
  C   C271      1.0  0.00187  0.36293  0.15604  1.0000
  C   C272      1.0  0.98584  0.35852  0.19134  1.0000
  C   C273      1.0  0.83601  0.13126  0.01087  1.0000
  H   H326      1.0  0.81014  0.11160  0.02825  1.0000
  H   H327      1.0  0.88182  0.14100  0.32996  1.0000
  H   H328      1.0  0.77984  0.15279  0.00808  1.0000
  H   H329      1.0  0.56322  0.06536  0.02581  1.0000
  H   H330      1.0  0.93193  0.19202  0.37021  1.0000
  H   H331      1.0  0.82731  0.19538  0.00843  1.0000
  C   C274      1.0  0.87087  0.21726  0.08146  1.0000
  C   C275      1.0  0.83243  0.18985  0.09274  1.0000
  C   C276      1.0  0.82523  0.15652  0.11393  1.0000
  C   C277      1.0  0.85647  0.15021  0.12399  1.0000
  C   C278      1.0  0.89487  0.17746  0.11244  1.0000
  C   C279      1.0  0.90209  0.21086  0.09136  1.0000
  H   H332      1.0  0.80807  0.19453  0.08519  1.0000
  H   H333      1.0  0.79556  0.13590  0.12268  1.0000
  H   H334      1.0  0.91923  0.17277  0.11997  1.0000
  H   H335      1.0  0.93177  0.23154  0.08268  1.0000
  C   C280      1.0  0.89129  0.18087  0.41463  1.0000
  H   H336      1.0  0.68377  0.08423  0.34564  1.0000
  H   H337      1.0  0.98252  0.35288  0.13258  1.0000
  H   H338      1.0  0.89237  0.21281  0.99890  1.0000
  H   H339      1.0  0.57753  0.04489  0.24845  1.0000
  S   S75       1.0  0.01817  0.31649  0.43770  1.0000
  H   H340      1.0  0.91458  0.20361  0.43069  1.0000
  C   C281      1.0  0.83482  0.12358  0.36901  1.0000
  H   H341      1.0  0.85672  0.15513  0.02917  1.0000
  H   H342      1.0  0.69318  0.06824  0.40965  1.0000
  H   H343      1.0  0.76699  0.09406  0.97670  1.0000
  S   S76       1.0  0.73442  0.06670  0.17267  1.0000
  N   N18       1.0  0.90617  0.22902  0.22006  1.0000
  C   C282      1.0  0.93799  0.26456  0.23790  1.0000
  C   C283      1.0  0.92345  0.20427  0.20875  1.0000
  C   C284      1.0  0.89369  0.24234  0.18675  1.0000
  C   C285      1.0  0.87160  0.20578  0.24409  1.0000
  C   C286      1.0  0.83868  0.17105  0.23083  1.0000
  C   C287      1.0  0.86941  0.21642  0.28090  1.0000
  C   C288      1.0  0.80576  0.14844  0.25289  1.0000
  C   C289      1.0  0.83626  0.19349  0.30275  1.0000
  C   C290      1.0  0.80453  0.15957  0.28877  1.0000
  H   H344      1.0  0.94994  0.25700  0.26262  1.0000
  H   H345      1.0  0.96356  0.28130  0.21920  1.0000
  H   H346      1.0  0.92755  0.28540  0.24595  1.0000
  H   H347      1.0  0.93261  0.19310  0.23302  1.0000
  H   H348      1.0  0.94969  0.22079  0.19076  1.0000
  H   H349      1.0  0.90235  0.17820  0.19290  1.0000
  H   H350      1.0  0.87961  0.26025  0.19412  1.0000
  H   H351      1.0  0.91906  0.26060  0.16827  1.0000
  H   H352      1.0  0.87214  0.21741  0.16993  1.0000
  H   H353      1.0  0.83809  0.16100  0.20319  1.0000
  H   H354      1.0  0.89279  0.24240  0.29345  1.0000
  H   H355      1.0  0.78093  0.12210  0.24207  1.0000
  H   H356      1.0  0.83514  0.20207  0.33072  1.0000
  H   H357      1.0  0.77878  0.14181  0.30564  1.0000
  C   C291      1.0  0.79294  0.11202  0.95876  1.0000
  C   C292      1.0  0.82404  0.12973  0.40381  1.0000
  H   H358      1.0  0.95426  0.34557  0.19464  1.0000
  H   H359      1.0  0.85068  0.11422  0.00243  1.0000
  C   C293      1.0  0.80668  0.17044  0.99111  1.0000
  C   C294      1.0  0.70408  0.05845  0.38715  1.0000
  H   H360      1.0  0.79347  0.11184  0.41173  1.0000
  C   C295      1.0  0.87361  0.14589  0.35698  1.0000
  N   N19       1.0  0.82430  0.14647  0.97836  1.0000
  C   C296      1.0  0.71169  0.05398  0.32126  1.0000
  H   H361      1.0  0.82542  0.20804  0.44362  1.0000
  C   C297      1.0  0.72356  0.03696  0.39419  1.0000
  H   H362      1.0  0.59405  0.07749  0.34567  1.0000
  H   H363      1.0  0.61149  0.07132  0.02424  1.0000
  H   H364      1.0  0.59385  0.08264  0.06554  1.0000
  C   C298      1.0  0.55043  0.04037  0.26079  1.0000
  C   C299      1.0  0.85200  0.15831  0.42789  1.0000
  H   H365      1.0  0.94999  0.25479  0.96143  1.0000
  C   C300      1.0  0.89220  0.20485  0.97056  1.0000
  S   S77       1.0  0.98896  0.36399  0.26615  1.0000
  S   S78       1.0  0.78215  0.04098  0.23271  1.0000
  H   H366      1.0  0.76203  0.03539  0.01282  1.0000
  H   H367      1.0  0.79837  0.18324  0.96748  1.0000
  H   H368      1.0  0.62189  0.05567  0.29550  1.0000
  C   C301      1.0  0.57802  0.04609  0.35457  1.0000
  H   H369      1.0  0.59767  0.04104  0.37362  1.0000
  H   H370      1.0  0.55242  0.04194  0.37125  1.0000
  H   H371      1.0  0.61444  0.03883  0.09831  1.0000
  C   C302      1.0  0.73113  0.03245  0.32829  1.0000
  C   C303      1.0  0.86196  0.16363  0.91772  1.0000
  Fe  Fe37      1.0  0.00700  0.31804  0.72544  1.0000
  S   S79       1.0  0.00599  0.26011  0.72954  1.0000
  C   C304      1.0  0.85939  0.17127  0.95543  1.0000
  C   C305      1.0  0.98452  0.34522  0.84666  1.0000
  Fe  Fe38      1.0  0.98138  0.25033  0.67186  1.0000
  S   S80       1.0  0.93115  0.19106  0.65307  1.0000
  S   S81       1.0  0.97797  0.30611  0.66982  1.0000
  Fe  Fe39      1.0  0.73104  0.11156  0.54131  1.0000
  H   H372      1.0  0.79130  0.10494  0.47236  1.0000
  S   S82       1.0  0.78198  0.16996  0.56033  1.0000
  Fe  Fe40      1.0  0.64810  0.07237  0.50499  1.0000
  Fe  Fe41      1.0  0.70732  0.04618  0.48573  1.0000
  S   S83       1.0  0.59868  0.08237  0.48298  1.0000
  H   H373      1.0  0.87681  0.12072  0.69774  1.0000
  C   C306      1.0  0.55448  0.05625  0.74538  1.0000
  C   C307      1.0  0.78123  0.05027  0.71070  1.0000
  S   S84       1.0  0.66927  0.08559  0.56351  1.0000
  S   S85       1.0  0.70995  0.10479  0.48270  1.0000
  S   S86       1.0  0.73258  0.05485  0.54286  1.0000
  H   H374      1.0  0.83870  0.11300  0.48735  1.0000
  C   C308      1.0  0.02550  0.32015  0.54897  1.0000
  H   H375      1.0  0.69041  0.06177  0.63820  1.0000
  H   H376      1.0  0.70415  0.08481  0.70253  1.0000
  C   C309      1.0  0.99910  0.33413  0.81664  1.0000
  H   H377      1.0  0.80149  0.18525  0.48601  1.0000
  H   H378      1.0  0.64264  0.13955  0.64456  1.0000
  C   C310      1.0  0.81953  0.12674  0.48512  1.0000
  C   C311      1.0  0.88993  0.18578  0.62717  1.0000
  C   C312      1.0  0.88587  0.21822  0.61656  1.0000
  C   C313      1.0  0.85257  0.21282  0.59634  1.0000
  C   C314      1.0  0.82289  0.17499  0.58653  1.0000
  C   C315      1.0  0.82704  0.14253  0.59687  1.0000
  C   C316      1.0  0.86043  0.14795  0.61698  1.0000
  H   H379      1.0  0.90831  0.24748  0.62403  1.0000
  H   H380      1.0  0.84975  0.23814  0.58840  1.0000
  H   H381      1.0  0.80454  0.11324  0.58955  1.0000
  H   H382      1.0  0.86337  0.12267  0.62474  1.0000
  S   S87       1.0  0.67895  0.04479  0.77171  1.0000
  H   H383      1.0  0.83865  0.13885  0.90368  1.0000
  H   H384      1.0  0.98375  0.34984  0.90553  1.0000
  C   C317      1.0  0.01918  0.32416  0.88914  1.0000
  C   C318      1.0  0.92677  0.22115  0.91249  1.0000
  C   C319      1.0  0.99471  0.34055  0.88275  1.0000
  C   C320      1.0  0.55740  0.04634  0.45853  1.0000
  C   C321      1.0  0.03069  0.33368  0.48306  1.0000
  H   H385      1.0  0.55738  0.06782  0.71770  1.0000
  H   H386      1.0  0.78133  0.12103  0.93472  1.0000
  H   H387      1.0  0.62539  0.07669  0.67602  1.0000
  S   S88       1.0  0.98829  0.34358  0.77165  1.0000
  C   C322      1.0  0.55217  0.05490  0.94726  1.0000
  C   C323      1.0  0.89522  0.18840  0.89673  1.0000
  H   H388      1.0  0.58771  0.03477  0.91896  1.0000
  C   C324      1.0  0.58261  0.04098  0.63543  1.0000
  H   H389      1.0  0.89652  0.18232  0.86794  1.0000
  C   C325      1.0  0.85557  0.05828  0.69845  1.0000
  C   C326      1.0  0.02323  0.31730  0.82298  1.0000
  C   C327      1.0  0.03317  0.31229  0.85912  1.0000
  C   C328      1.0  0.87260  0.19303  0.48754  1.0000
  H   H390      1.0  0.99649  0.27607  0.50744  1.0000
  H   H391      1.0  0.03477  0.30873  0.80005  1.0000
  H   H392      1.0  0.95242  0.24044  0.89612  1.0000
  N   N20       1.0  0.83951  0.16454  0.46438  1.0000
  C   C329      1.0  0.01580  0.30698  0.51262  1.0000
  C   C330      1.0  0.81423  0.08763  0.70695  1.0000
  H   H393      1.0  0.81186  0.13084  0.51353  1.0000
  H   H394      1.0  0.86209  0.19624  0.51506  1.0000
  C   C331      1.0  0.57423  0.07656  0.58435  1.0000
  C   C332      1.0  0.85132  0.09163  0.70089  1.0000
  C   C333      1.0  0.81154  0.17977  0.45926  1.0000
  S   S89       1.0  0.03288  0.31832  0.93421  1.0000
  C   C334      1.0  0.68391  0.05415  0.69703  1.0000
  C   C335      1.0  0.61051  0.07661  0.65075  1.0000
  H   H395      1.0  0.88459  0.06173  0.69351  1.0000
  C   C336      1.0  0.58170  0.03736  0.79623  1.0000
  H   H396      1.0  0.80354  0.09173  0.94931  1.0000
  C   C337      1.0  0.67607  0.04117  0.66054  1.0000
  C   C338      1.0  0.92531  0.22924  0.94935  1.0000
  H   H397      1.0  0.01339  0.29943  0.57160  1.0000
  H   H398      1.0  0.61047  0.13958  0.58580  1.0000
  H   H399      1.0  0.81101  0.11370  0.70845  1.0000
  H   H400      1.0  0.57664  0.08414  0.95162  1.0000
  C   C339      1.0  0.60212  0.11201  0.60000  1.0000
  H   H401      1.0  0.89481  0.18331  0.49260  1.0000
  C   C340      1.0  0.62030  0.11204  0.63305  1.0000
  Fe  Fe42      1.0  0.03957  0.33346  0.64747  1.0000
  H   H402      1.0  0.61159  0.05966  0.74496  1.0000
  H   H403      1.0  0.96518  0.35740  0.84191  1.0000
  H   H404      1.0  0.88755  0.22307  0.47512  1.0000
  C   C341      1.0  0.56366  0.03980  0.60164  1.0000
  H   H405      1.0  0.75311  0.04885  0.71526  1.0000
  H   H406      1.0  0.56222  0.07885  0.55820  1.0000
  C   C342      1.0  0.58504  0.05178  0.76058  1.0000
  H   H407      1.0  0.60566  0.03411  0.80797  1.0000
  H   H408      1.0  0.57395  0.50378  0.44952  1.0000
  Fe  Fe43      1.0  0.65810  0.66467  0.31736  1.0000
  S   S90       1.0  0.60046  0.66462  0.31335  1.0000
  S   S91       1.0  0.68081  0.64078  0.27277  1.0000
  Fe  Fe44      1.0  0.59031  0.64081  0.37141  1.0000
  S   S92       1.0  0.64565  0.63646  0.37358  1.0000
  Fe  Fe45      1.0  0.73519  0.62552  0.03794  1.0000
  H   H409      1.0  0.02444  0.44692  0.08057  1.0000
  S   S93       1.0  0.78799  0.61848  0.05570  1.0000
  Fe  Fe46      1.0  0.65106  0.58686  0.00322  1.0000
  S   S94       1.0  0.65014  0.64398  0.00299  1.0000
  S   S95       1.0  0.60258  0.53051  0.97744  1.0000
  Fe  Fe47      1.0  0.71228  0.67003  0.98237  1.0000
  Fe  Fe48      1.0  0.67686  0.65204  0.05965  1.0000
  C   C343      1.0  0.98132  0.47771  0.20821  1.0000
  S   S96       1.0  0.71244  0.61282  0.97985  1.0000
  S   S97       1.0  0.67372  0.59294  0.06161  1.0000
  Fe  Fe49      1.0  0.97973  0.39299  0.00423  1.0000
  H   H410      1.0  0.90368  0.65733  0.13462  1.0000
  S   S98       1.0  0.97118  0.44482  0.98804  1.0000
  C   C344      1.0  0.55577  0.54250  0.42386  1.0000
  C   C345      1.0  0.90794  0.69044  0.45065  1.0000
  H   H411      1.0  0.95095  0.59164  0.01150  1.0000
  C   C346      1.0  0.98488  0.65135  0.39094  1.0000
  C   C347      1.0  0.97902  0.63652  0.35509  1.0000
  H   H412      1.0  0.97599  0.63141  0.41421  1.0000
  H   H413      1.0  0.96477  0.60514  0.35109  1.0000
  H   H414      1.0  0.01433  0.46766  0.29144  1.0000
  C   C348      1.0  0.00240  0.69187  0.39649  1.0000
  H   H415      1.0  0.78100  0.62283  0.20606  1.0000
  S   S99       1.0  0.65971  0.67856  0.10636  1.0000
  C   C349      1.0  0.82868  0.68720  0.09579  1.0000
  C   C350      1.0  0.57788  0.54994  0.25240  1.0000
  C   C351      1.0  0.99319  0.50696  0.34294  1.0000
  C   C352      1.0  0.00672  0.48664  0.96362  1.0000
  S   S100      1.0  0.73906  0.68467  0.03879  1.0000
  H   H416      1.0  0.54808  0.51131  0.20761  1.0000
  H   H417      1.0  0.00679  0.44993  0.42837  1.0000
  H   H418      1.0  0.85184  0.62139  0.99216  1.0000
  H   H419      1.0  0.96085  0.49191  0.33773  1.0000
  C   C353      1.0  0.88319  0.66600  0.12354  1.0000
  C   C354      1.0  0.01332  0.50890  0.07344  1.0000
  H   H420      1.0  0.76051  0.68677  0.22915  1.0000
  S   S101      1.0  0.98513  0.64276  0.27997  1.0000
  H   H421      1.0  0.75699  0.64734  0.25686  1.0000
  C   C355      1.0  0.82416  0.65032  0.08729  1.0000
  C   C356      1.0  0.85092  0.63950  0.10221  1.0000
  H   H422      1.0  0.87745  0.56012  0.02403  1.0000
  C   C357      1.0  0.88566  0.65082  0.29796  1.0000
  H   H423      1.0  0.84671  0.61046  0.09723  1.0000
  C   C358      1.0  0.54266  0.53356  0.31010  1.0000
  H   H424      1.0  0.90433  0.64359  0.31491  1.0000
  C   C359      1.0  0.67427  0.65097  0.22663  1.0000
  C   C360      1.0  0.65994  0.67666  0.21794  1.0000
  H   H425      1.0  0.85756  0.59018  0.03989  1.0000
  C   C361      1.0  0.66571  0.66751  0.15244  1.0000
  C   C362      1.0  0.68023  0.64189  0.16117  1.0000
  C   C363      1.0  0.68440  0.63360  0.19813  1.0000
  C   C364      1.0  0.85117  0.64801  0.31219  1.0000
  N   N21       1.0  0.91813  0.62226  0.02047  1.0000
  H   H426      1.0  0.68796  0.62827  0.13943  1.0000
  H   H427      1.0  0.69530  0.61350  0.20462  1.0000
  C   C365      1.0  0.01401  0.47933  0.43636  1.0000
  S   S102      1.0  0.01187  0.39300  0.37032  1.0000
  C   C366      1.0  0.83723  0.67001  0.25315  1.0000
  C   C367      1.0  0.77780  0.67799  0.24774  1.0000
  C   C368      1.0  0.54948  0.50904  0.44430  1.0000
  H   H428      1.0  0.56974  0.58330  0.96347  1.0000
  H   H429      1.0  0.88178  0.68100  0.21154  1.0000
  H   H430      1.0  0.98938  0.48470  0.08965  1.0000
  H   H431      1.0  0.92289  0.66457  0.25066  1.0000
  H   H432      1.0  0.97276  0.46283  0.18208  1.0000
  H   H433      1.0  0.58482  0.56263  0.41338  1.0000
  C   C369      1.0  0.57602  0.55793  0.28921  1.0000
  S   S103      1.0  0.97631  0.66955  0.17729  1.0000
  C   C370      1.0  0.89612  0.66267  0.26167  1.0000
  C   C371      1.0  0.99140  0.66211  0.32463  1.0000
  Fe  Fe50      1.0  0.02064  0.36602  0.05953  1.0000
  H   H434      1.0  0.77962  0.66079  0.17872  1.0000
  H   H435      1.0  0.94947  0.68507  0.02587  1.0000
  H   H436      1.0  0.00444  0.50364  0.04402  1.0000
  N   N22       1.0  0.01533  0.53556  0.31311  1.0000
  H   H437      1.0  0.95974  0.61531  0.05532  1.0000
  H   H438      1.0  0.84295  0.63831  0.34036  1.0000
  H   H439      1.0  0.97118  0.52495  0.19116  1.0000
  H   H440      1.0  0.97644  0.56040  0.31208  1.0000
  H   H441      1.0  0.99429  0.43488  0.23252  1.0000
  H   H442      1.0  0.89841  0.66227  0.03868  1.0000
  S   S104      1.0  0.96370  0.36729  0.06118  1.0000
  H   H443      1.0  0.89191  0.58431  0.06771  1.0000
  H   H444      1.0  0.93339  0.65872  0.06851  1.0000
  H   H445      1.0  0.76522  0.66040  0.43875  1.0000
  Fe  Fe51      1.0  0.03034  0.38316  0.31475  1.0000
  C   C372      1.0  0.79868  0.65411  0.19711  1.0000
  C   C373      1.0  0.82713  0.65738  0.29028  1.0000
  C   C374      1.0  0.99351  0.46199  0.23664  1.0000
  Fe  Fe52      1.0  0.00550  0.68668  0.23267  1.0000
  H   H446      1.0  0.98998  0.55873  0.24926  1.0000
  C   C375      1.0  0.87234  0.67204  0.23952  1.0000
  H   H447      1.0  0.02628  0.59389  0.29753  1.0000
  C   C376      1.0  0.99143  0.53181  0.24718  1.0000
  S   S105      1.0  0.03877  0.39607  0.00441  1.0000
  C   C377      1.0  0.00347  0.51618  0.27697  1.0000
  C   C378      1.0  0.00805  0.56938  0.31688  1.0000
  H   H448      1.0  0.01414  0.53687  0.08074  1.0000
  C   C379      1.0  0.87270  0.62344  0.97153  1.0000
  H   H449      1.0  0.60054  0.58343  0.30152  1.0000
  H   H450      1.0  0.00211  0.48401  0.34650  1.0000
  C   C380      1.0  0.98049  0.51264  0.21340  1.0000
  H   H451      1.0  0.98065  0.64424  0.01552  1.0000
  H   H452      1.0  0.01547  0.58221  0.34484  1.0000
  Fe  Fe53      1.0  0.67386  0.69811  0.39489  1.0000
  H   H453      1.0  0.60374  0.56925  0.23629  1.0000
  H   H454      1.0  0.82322  0.65656  0.17983  1.0000
  C   C381      1.0  0.65573  0.68489  0.18102  1.0000
  H   H455      1.0  0.80073  0.65431  0.30298  1.0000
  C   C382      1.0  0.88486  0.58780  0.03869  1.0000
  C   C383      1.0  0.95379  0.61800  0.02575  1.0000
  H   H456      1.0  0.99847  0.52139  0.37017  1.0000
  C   C384      1.0  0.90873  0.62470  0.98140  1.0000
  C   C385      1.0  0.00472  0.48096  0.27043  1.0000
  H   H457      1.0  0.54259  0.54145  0.33842  1.0000
  C   C386      1.0  0.92502  0.65860  0.03919  1.0000
  H   H458      1.0  0.04005  0.46874  0.03636  1.0000
  H   H459      1.0  0.65225  0.69040  0.23963  1.0000
  N   N23       1.0  0.81294  0.68070  0.22913  1.0000
  H   H460      1.0  0.80779  0.69563  0.08535  1.0000
  C   C387      1.0  0.01038  0.37049  0.22229  1.0000
  H   H461      1.0  0.81537  0.66394  0.97448  1.0000
  H   H462      1.0  0.78582  0.68743  0.97657  1.0000
  C   C388      1.0  0.54647  0.51730  0.23636  1.0000
  C   C389      1.0  0.81213  0.68890  0.96330  1.0000
  H   H463      1.0  0.78600  0.69775  0.27182  1.0000
  H   H464      1.0  0.96394  0.63269  0.95696  1.0000
  S   S106      1.0  0.99174  0.64197  0.77921  1.0000
  Fe  Fe54      1.0  0.92322  0.62735  0.54346  1.0000
  H   H465      1.0  0.78256  0.61428  0.47279  1.0000
  S   S107      1.0  0.86301  0.61817  0.56092  1.0000
  Fe  Fe55      1.0  0.97052  0.58766  0.51634  1.0000
  C   C390      1.0  0.86273  0.62468  0.93480  1.0000
  S   S108      1.0  0.96537  0.52859  0.50146  1.0000
  Fe  Fe56      1.0  0.00771  0.65738  0.56842  1.0000
  H   H466      1.0  0.74561  0.57954  0.70507  1.0000
  Fe  Fe57      1.0  0.99048  0.66866  0.48859  1.0000
  S   S109      1.0  0.95342  0.59816  0.57259  1.0000
  S   S110      1.0  0.93447  0.61081  0.48747  1.0000
  C   C391      1.0  0.98595  0.63039  0.70497  1.0000
  C   C392      1.0  0.99857  0.64049  0.66842  1.0000
  C   C393      1.0  0.99753  0.52307  0.47066  1.0000
  H   H467      1.0  0.95766  0.60497  0.71088  1.0000
  H   H468      1.0  0.97984  0.62307  0.64631  1.0000
  C   C394      1.0  0.00731  0.45416  0.86087  1.0000
  C   C395      1.0  0.93413  0.38362  0.65569  1.0000
  H   H469      1.0  0.63796  0.68388  0.47245  1.0000
  S   S111      1.0  0.70553  0.65173  0.77273  1.0000
  H   H470      1.0  0.98928  0.42164  0.86327  1.0000
  C   C396      1.0  0.80745  0.67402  0.72874  1.0000
  H   H471      1.0  0.61443  0.61122  0.56855  1.0000
  C   C397      1.0  0.85333  0.60257  0.66299  1.0000
  C   C398      1.0  0.71571  0.66955  0.81803  1.0000
  C   C399      1.0  0.70261  0.64283  0.84761  1.0000
  C   C400      1.0  0.70953  0.65635  0.88395  1.0000
  H   H472      1.0  0.99724  0.48518  0.54180  1.0000
  H   H473      1.0  0.68663  0.61156  0.84252  1.0000
  H   H474      1.0  0.69833  0.63548  0.90648  1.0000
  Fe  Fe58      1.0  0.03916  0.66639  0.82263  1.0000
  C   C401      1.0  0.82008  0.64731  0.59548  1.0000
  C   C402      1.0  0.85781  0.65468  0.58484  1.0000
  S   S112      1.0  0.02732  0.64502  0.51442  1.0000
  H   H475      1.0  0.79461  0.61935  0.58909  1.0000
  C   C403      1.0  0.02348  0.54765  0.93030  1.0000
  C   C404      1.0  0.00986  0.65287  0.73398  1.0000
  H   H476      1.0  0.56851  0.52819  0.82189  1.0000
  C   C405      1.0  0.01768  0.45699  0.79603  1.0000
  C   C406      1.0  0.88920  0.61767  0.68131  1.0000
  C   C407      1.0  0.82657  0.62600  0.71158  1.0000
  H   H477      1.0  0.99814  0.47028  0.79323  1.0000
  C   C408      1.0  0.93510  0.62967  0.95231  1.0000
  H   H478      1.0  0.86925  0.65659  0.75515  1.0000
  C   C409      1.0  0.86364  0.64108  0.72955  1.0000
  H   H479      1.0  0.78597  0.67003  0.62221  1.0000
  C   C410      1.0  0.73018  0.69671  0.89093  1.0000
  C   C411      1.0  0.58288  0.59493  0.57707  1.0000
  C   C412      1.0  0.98568  0.46897  0.56821  1.0000
  N   N24       1.0  0.79468  0.63147  0.72766  1.0000
  H   H480      1.0  0.99750  0.42274  0.52008  1.0000
  H   H481      1.0  0.83467  0.62274  0.92794  1.0000
  C   C413      1.0  0.98826  0.42351  0.61299  1.0000
  H   H482      1.0  0.96247  0.45983  0.47057  1.0000
  H   H483      1.0  0.76451  0.62704  0.51292  1.0000
  H   H484      1.0  0.94541  0.63470  0.89397  1.0000
  C   C414      1.0  0.98889  0.48504  0.46026  1.0000
  C   C415      1.0  0.96098  0.38553  0.68217  1.0000
  S   S113      1.0  0.73061  0.68190  0.66977  1.0000
  C   C416      1.0  0.64539  0.68761  0.53136  1.0000
  H   H485      1.0  0.56271  0.60315  0.71349  1.0000
  H   H486      1.0  0.95306  0.45355  0.56544  1.0000
  H   H487      1.0  0.77827  0.58383  0.76627  1.0000
  C   C417      1.0  0.59713  0.60144  0.75894  1.0000
  C   C418      1.0  0.87522  0.68209  0.47235  1.0000
  H   H488      1.0  0.81183  0.63069  0.51352  1.0000
  C   C419      1.0  0.99633  0.51431  0.95036  1.0000
  C   C420      1.0  0.01487  0.42485  0.64067  1.0000
  C   C421      1.0  0.92492  0.63116  0.91570  1.0000
  C   C422      1.0  0.00121  0.40608  0.67466  1.0000
  H   H489      1.0  0.62478  0.59211  0.80612  1.0000
  H   H490      1.0  0.03884  0.46919  0.77279  1.0000
  C   C423      1.0  0.89432  0.63660  0.71471  1.0000
  H   H491      1.0  0.79564  0.59441  0.66166  1.0000
  C   C424      1.0  0.88867  0.62822  0.90693  1.0000
  C   C425      1.0  0.82235  0.60652  0.67772  1.0000
  C   C426      1.0  0.89039  0.69108  0.59278  1.0000
  H   H492      1.0  0.57431  0.61790  0.58153  1.0000
  C   C427      1.0  0.94744  0.40224  0.62159  1.0000
  C   C428      1.0  0.59628  0.63574  0.86848  1.0000
  C   C429      1.0  0.75715  0.61182  0.70665  1.0000
  N   N25       1.0  0.80865  0.67647  0.48195  1.0000
  H   H493      1.0  0.99597  0.38843  0.55434  1.0000
  H   H494      1.0  0.56053  0.51949  0.51943  1.0000
  H   H495      1.0  0.87541  0.67273  0.50035  1.0000
  C   C430      1.0  0.81512  0.67590  0.61443  1.0000
  C   C431      1.0  0.55611  0.62332  0.86659  1.0000
  H   H496      1.0  0.54820  0.60839  0.51948  1.0000
  H   H497      1.0  0.84963  0.58798  0.63690  1.0000
  C   C432      1.0  0.59844  0.58007  0.78925  1.0000
  H   H498      1.0  0.95063  0.37018  0.70825  1.0000
  H   H499      1.0  0.81108  0.63155  0.78463  1.0000
  S   S114      1.0  0.02578  0.63999  0.87944  1.0000
  C   C433      1.0  0.56610  0.54345  0.79787  1.0000
  H   H500      1.0  0.57773  0.52480  0.56616  1.0000
  H   H501      1.0  0.80469  0.68379  0.93366  1.0000
  Fe  Fe59      1.0  0.72212  0.69701  0.72713  1.0000
  H   H502      1.0  0.62234  0.62985  0.75244  1.0000
  H   H503      1.0  0.96689  0.50961  0.95511  1.0000
  H   H504      1.0  0.76083  0.62417  0.67836  1.0000
  C   C434      1.0  0.78594  0.61534  0.76566  1.0000
  H   H505      1.0  0.95376  0.39446  0.54650  1.0000
  C   C435      1.0  0.62383  0.67583  0.86692  1.0000
  H   H506      1.0  0.93206  0.68731  0.46207  1.0000
  H   H507      1.0  0.91295  0.61451  0.66943  1.0000
  C   C436      1.0  0.77686  0.68025  0.46277  1.0000
  N   N26       1.0  0.00142  0.44181  0.57618  1.0000
  C   C437      1.0  0.98647  0.41058  0.54806  1.0000
  H   H508      1.0  0.92545  0.39921  0.60168  1.0000
  H   H509      1.0  0.98696  0.46607  0.85523  1.0000
  H   H510      1.0  0.60739  0.55930  0.53125  1.0000
  H   H511      1.0  0.60616  0.61422  0.87162  1.0000
  H   H512      1.0  0.58151  0.58076  0.60410  1.0000
  H   H513      1.0  0.76062  0.61733  0.77768  1.0000
  H   H514      1.0  0.99394  0.49133  0.59010  1.0000
  C   C438      1.0  0.54958  0.55466  0.95259  1.0000
  C   C439      1.0  0.57659  0.54111  0.54135  1.0000
  H   H515      1.0  0.88092  0.62909  0.87847  1.0000
  C   C440      1.0  0.84304  0.68576  0.45828  1.0000
  H   H516      1.0  0.01482  0.56828  0.91969  1.0000
  H   H517      1.0  0.61418  0.67473  0.53677  1.0000
  C   C441      1.0  0.56350  0.58626  0.73702  1.0000
  C   C442      1.0  0.03517  0.67329  0.66066  1.0000
  C   C443      1.0  0.79116  0.63541  0.49584  1.0000
  H   H518      1.0  0.73363  0.61604  0.71967  1.0000
  H   H519      1.0  0.99894  0.42459  0.79231  1.0000
  H   H520      1.0  0.02187  0.40632  0.69494  1.0000
  H   H521      1.0  0.78413  0.67941  0.74042  1.0000
  H   H522      1.0  0.01976  0.46551  0.88829  1.0000
  S   S115      1.0  0.97668  0.68707  0.54222  1.0000
  C   C444      1.0  0.55792  0.58628  0.51505  1.0000
  H   H523      1.0  0.75115  0.67242  0.48104  1.0000
  N   N27       1.0  0.55784  0.56547  0.54941  1.0000
  S   S116      1.0  0.65414  0.69012  0.60632  1.0000
  C   C445      1.0  0.65884  0.69305  0.49487  1.0000
  H   H524      1.0  0.03910  0.58475  0.46529  1.0000
  H   H525      1.0  0.58782  0.60237  0.50244  1.0000
  C   C446      1.0  0.57071  0.69122  0.86221  1.0000
  H   H526      1.0  0.92213  0.64763  0.72926  1.0000
  H   H527      1.0  0.65461  0.68395  0.86814  1.0000
  C   C447      1.0  0.03180  0.55539  0.45711  1.0000
  C   C448      1.0  0.54337  0.65097  0.86343  1.0000
  N   N28       1.0  0.03814  0.46587  0.83212  1.0000
  H   H528      1.0  0.91927  0.69732  0.58395  1.0000
  H   H529      1.0  0.79640  0.69763  0.53210  1.0000
  H   H530      1.0  0.81431  0.68724  0.70069  1.0000
  H   H531      1.0  0.83426  0.69084  0.74570  1.0000
  H   H532      1.0  0.90278  0.36691  0.66141  1.0000
  C   C449      1.0  0.55845  0.52403  0.95604  1.0000
  H   H533      1.0  0.70512  0.79884  0.29086  1.0000
  H   H534      1.0  0.91751  0.73333  0.00105  1.0000
  S   S117      1.0  0.62631  0.77690  0.31863  1.0000
  H   H535      1.0  0.62803  0.85792  0.40286  1.0000
  Fe  Fe60      1.0  0.97970  0.72857  0.17659  1.0000
  H   H536      1.0  0.71328  0.88128  0.34223  1.0000
  S   S118      1.0  0.00408  0.74345  0.23402  1.0000
  C   C450      1.0  0.88887  0.70361  0.13039  1.0000
  H   H537      1.0  0.85513  0.70769  0.02390  1.0000
  S   S119      1.0  0.92940  0.73824  0.15647  1.0000
  C   C451      1.0  0.62268  0.74643  0.12315  1.0000
  Fe  Fe61      1.0  0.74731  0.97953  0.21059  1.0000
  S   S120      1.0  0.68934  0.97865  0.21133  1.0000
  S   S121      1.0  0.75423  0.92759  0.23025  1.0000
  Fe  Fe62      1.0  0.70537  0.00388  0.15413  1.0000
  S   S122      1.0  0.66019  0.97765  0.10876  1.0000
  H   H538      1.0  0.88090  0.71741  0.37162  1.0000
  S   S123      1.0  0.76122  0.00067  0.15192  1.0000
  H   H539      1.0  0.64075  0.88791  0.36176  1.0000
  H   H540      1.0  0.86477  0.74259  0.12271  1.0000
  H   H541      1.0  0.62423  0.81764  0.17588  1.0000
  C   C452      1.0  0.67769  0.98696  0.06310  1.0000
  C   C453      1.0  0.65075  0.97094  0.03406  1.0000
  C   C454      1.0  0.66372  0.97884  0.99742  1.0000
  C   C455      1.0  0.70388  0.00218  0.98954  1.0000
  H   H542      1.0  0.68832  0.82296  0.37275  1.0000
  H   H543      1.0  0.73889  0.02294  0.07742  1.0000
  S   S124      1.0  0.69232  0.72625  0.33886  1.0000
  H   H544      1.0  0.66098  0.75441  0.07800  1.0000
  H   H545      1.0  0.68739  0.94586  0.39339  1.0000
  H   H546      1.0  0.71150  0.92597  0.34211  1.0000
  C   C456      1.0  0.54382  0.97816  0.33594  1.0000
  N   N29       1.0  0.69034  0.89189  0.39233  1.0000
  S   S125      1.0  0.71735  0.71784  0.44212  1.0000
  S   S126      1.0  0.61794  0.70138  0.39587  1.0000
  C   C457      1.0  0.71785  0.01040  0.05528  1.0000
  C   C458      1.0  0.69473  0.92720  0.41158  1.0000
  C   C459      1.0  0.71076  0.87397  0.45315  1.0000
  H   H547      1.0  0.67227  0.87968  0.18684  1.0000
  C   C460      1.0  0.83701  0.72180  0.21573  1.0000
  C   C461      1.0  0.66170  0.81780  0.29283  1.0000
  C   C462      1.0  0.65341  0.84798  0.28288  1.0000
  C   C463      1.0  0.68147  0.88190  0.26401  1.0000
  C   C464      1.0  0.71804  0.88579  0.25449  1.0000
  C   C465      1.0  0.72622  0.85553  0.26425  1.0000
  C   C466      1.0  0.69829  0.82176  0.28340  1.0000
  H   H548      1.0  0.62517  0.84518  0.29003  1.0000
  H   H549      1.0  0.67476  0.90495  0.25682  1.0000
  H   H550      1.0  0.75439  0.85821  0.25701  1.0000
  C   C467      1.0  0.55806  0.99403  0.02395  1.0000
  C   C468      1.0  0.70456  0.80584  0.42247  1.0000
  C   C469      1.0  0.91528  0.73126  0.97154  1.0000
  C   C470      1.0  0.64896  0.86951  0.37935  1.0000
  C   C471      1.0  0.73089  0.01772  0.01863  1.0000
  H   H551      1.0  0.65508  0.88167  0.08538  1.0000
  H   H552      1.0  0.97228  0.73466  0.96847  1.0000
  H   H553      1.0  0.74849  0.92182  0.36867  1.0000
  C   C472      1.0  0.71701  0.90580  0.36003  1.0000
  C   C473      1.0  0.69952  0.86601  0.41563  1.0000
  C   C474      1.0  0.65277  0.76905  0.09854  1.0000
  C   C475      1.0  0.68576  0.89168  0.09501  1.0000
  H   H554      1.0  0.62063  0.01755  0.32378  1.0000
  H   H555      1.0  0.63842  0.88057  0.15271  1.0000
  H   H556      1.0  0.72560  0.94641  0.42105  1.0000
  C   C476      1.0  0.63283  0.80565  0.15342  1.0000
  H   H557      1.0  0.02323  0.74817  0.01473  1.0000
  H   H558      1.0  0.61968  0.95248  0.03983  1.0000
  H   H559      1.0  0.72812  0.87100  0.16775  1.0000
  H   H560      1.0  0.64264  0.96674  0.97528  1.0000
  C   C477      1.0  0.86106  0.71380  0.11697  1.0000
  H   H561      1.0  0.64360  0.84377  0.36257  1.0000
  C   C478      1.0  0.66974  0.88920  0.15853  1.0000
  C   C479      1.0  0.66324  0.82971  0.12824  1.0000
  H   H562      1.0  0.68631  0.92187  0.15867  1.0000
  H   H563      1.0  0.70070  0.92440  0.09680  1.0000
  H   H564      1.0  0.70149  0.88523  0.07319  1.0000
  H   H565      1.0  0.59015  0.74674  0.17037  1.0000
  H   H566      1.0  0.74135  0.02201  0.30574  1.0000
  N   N30       1.0  0.68580  0.87313  0.13086  1.0000
  Fe  Fe63      1.0  0.63405  0.72510  0.33798  1.0000
  C   C480      1.0  0.67287  0.81006  0.10096  1.0000
  C   C481      1.0  0.72705  0.88515  0.14130  1.0000
  H   H567      1.0  0.74495  0.91750  0.14519  1.0000
  H   H568      1.0  0.69658  0.82619  0.08174  1.0000
  H   H569      1.0  0.87846  0.76070  0.01809  1.0000
  C   C482      1.0  0.00853  0.70260  0.33027  1.0000
  C   C483      1.0  0.60250  0.02470  0.30470  1.0000
  H   H570      1.0  0.54584  0.96285  0.03299  1.0000
  H   H571      1.0  0.74233  0.87699  0.12035  1.0000
  Fe  Fe64      1.0  0.03776  0.70198  0.15446  1.0000
  H   H572      1.0  0.64474  0.70490  0.17470  1.0000
  C   C484      1.0  0.69682  0.83117  0.40097  1.0000
  H   H573      1.0  0.60761  0.71458  0.12139  1.0000
  H   H574      1.0  0.02618  0.74862  0.37022  1.0000
  C   C485      1.0  0.61290  0.76463  0.15066  1.0000
  S   S127      1.0  0.04009  0.76062  0.15097  1.0000
  C   C486      1.0  0.01352  0.71734  0.36606  1.0000
  C   C487      1.0  0.55329  0.00947  0.45072  1.0000
  N   N31       1.0  0.56596  0.01947  0.32258  1.0000
  S   S128      1.0  0.73132  0.02568  0.43948  1.0000
  C   C488      1.0  0.90987  0.70294  0.41443  1.0000
  H   H575      1.0  0.59589  0.00501  0.28073  1.0000
  H   H576      1.0  0.93553  0.70952  0.39789  1.0000
  H   H577      1.0  0.86233  0.72591  0.19868  1.0000
  H   H578      1.0  0.81943  0.73114  0.19818  1.0000
  H   H579      1.0  0.58332  0.00120  0.00522  1.0000
  H   H580      1.0  0.81712  0.76085  0.97053  1.0000
  H   H581      1.0  0.70208  0.77931  0.41068  1.0000
  H   H582      1.0  0.82332  0.70312  0.40816  1.0000
  H   H583      1.0  0.02785  0.72788  0.07833  1.0000
  S   S129      1.0  0.01148  0.71178  0.44097  1.0000
  N   N32       1.0  0.57002  0.02077  0.05585  1.0000
  C   C489      1.0  0.60318  0.01887  0.07435  1.0000
  H   H584      1.0  0.55796  0.99489  0.12988  1.0000
  H   H585      1.0  0.84926  0.74262  0.23901  1.0000
  H   H586      1.0  0.82630  0.73170  0.02355  1.0000
  C   C490      1.0  0.87903  0.70726  0.39975  1.0000
  C   C491      1.0  0.85242  0.73213  0.01066  1.0000
  H   H587      1.0  0.67463  0.91917  0.43563  1.0000
  H   H588      1.0  0.56209  0.97058  0.35439  1.0000
  H   H589      1.0  0.01801  0.72261  0.30709  1.0000
  C   C492      1.0  0.03432  0.72794  0.01961  1.0000
  C   C493      1.0  0.03716  0.71666  0.05577  1.0000
  C   C494      1.0  0.73738  0.02431  0.36465  1.0000
  H   H590      1.0  0.59447  0.98841  0.08375  1.0000
  H   H591      1.0  0.75288  0.00806  0.36985  1.0000
  N   N33       1.0  0.84780  0.72720  0.97026  1.0000
  H   H592      1.0  0.62878  0.02786  0.05559  1.0000
  H   H593      1.0  0.86829  0.78829  0.95759  1.0000
  H   H594      1.0  0.78712  0.71102  0.45334  1.0000
  C   C495      1.0  0.84599  0.69888  0.42120  1.0000
  Fe  Fe65      1.0  0.74266  0.78055  0.70705  1.0000
  H   H595      1.0  0.99031  0.79470  0.61692  1.0000
  S   S130      1.0  0.75313  0.83786  0.73319  1.0000
  Fe  Fe66      1.0  0.78516  0.74078  0.66896  1.0000
  H   H596      1.0  0.83149  0.75455  0.92634  1.0000
  S   S131      1.0  0.84362  0.74876  0.64756  1.0000
  C   C496      1.0  0.72785  0.97238  0.74583  1.0000
  H   H597      1.0  0.73342  0.72592  0.57581  1.0000
  H   H598      1.0  0.74659  0.73080  0.80251  1.0000
  C   C497      1.0  0.01118  0.74627  0.76139  1.0000
  S   S132      1.0  0.75490  0.77375  0.64774  1.0000
  S   S133      1.0  0.77902  0.75373  0.72786  1.0000
  S   S134      1.0  0.64220  0.98376  0.60787  1.0000
  Fe  Fe67      1.0  0.63414  0.91899  0.84413  1.0000
  S   S135      1.0  0.69228  0.97474  0.84174  1.0000
  S   S136      1.0  0.62474  0.86033  0.82217  1.0000
  Fe  Fe68      1.0  0.59184  0.96156  0.87707  1.0000
  H   H599      1.0  0.64804  0.80549  0.86270  1.0000
  Fe  Fe69      1.0  0.65695  0.00192  0.81976  1.0000
  Fe  Fe70      1.0  0.66969  0.02842  0.56186  1.0000
  Fe  Fe71      1.0  0.67636  0.98685  0.89777  1.0000
  S   S137      1.0  0.59932  0.94579  0.81938  1.0000
  S   S138      1.0  0.62063  0.92874  0.90208  1.0000
  H   H600      1.0  0.73597  0.97469  0.65284  1.0000
  C   C498      1.0  0.64060  0.98800  0.71896  1.0000
  C   C499      1.0  0.63241  0.97507  0.68244  1.0000
  H   H601      1.0  0.62714  0.96724  0.74131  1.0000
  H   H602      1.0  0.61275  0.94429  0.67693  1.0000
  S   S139      1.0  0.03769  0.72468  0.94482  1.0000
  C   C500      1.0  0.78435  0.01555  0.70812  1.0000
  S   S140      1.0  0.68511  0.72396  0.70946  1.0000
  C   C501      1.0  0.94716  0.73210  0.95318  1.0000
  C   C502      1.0  0.55291  0.97653  0.58059  1.0000
  C   C503      1.0  0.94717  0.72990  0.91510  1.0000
  C   C504      1.0  0.66654  0.75577  0.82990  1.0000
  C   C505      1.0  0.82151  0.70355  0.51363  1.0000
  C   C506      1.0  0.91512  0.72669  0.89506  1.0000
  H   H603      1.0  0.91087  0.74772  0.61777  1.0000
  H   H604      1.0  0.75979  0.75469  0.86651  1.0000
  H   H605      1.0  0.91529  0.72503  0.86540  1.0000
  C   C507      1.0  0.72602  0.72279  0.51691  1.0000
  N   N34       1.0  0.64194  0.74720  0.86329  1.0000
  H   H606      1.0  0.71698  0.99385  0.74823  1.0000
  H   H607      1.0  0.64809  0.74795  0.80464  1.0000
  C   C508      1.0  0.71692  0.84328  0.75790  1.0000
  C   C509      1.0  0.72886  0.87613  0.78059  1.0000
  C   C510      1.0  0.70096  0.88228  0.79969  1.0000
  C   C511      1.0  0.66072  0.85537  0.79656  1.0000
  C   C512      1.0  0.64878  0.82234  0.77412  1.0000
  C   C513      1.0  0.67668  0.81639  0.75474  1.0000
  H   H608      1.0  0.75995  0.89681  0.78364  1.0000
  H   H609      1.0  0.71063  0.90741  0.81742  1.0000
  H   H610      1.0  0.61771  0.80141  0.77143  1.0000
  H   H611      1.0  0.66701  0.79122  0.73708  1.0000
  H   H612      1.0  0.71290  0.99513  0.68031  1.0000
  H   H613      1.0  0.95318  0.72143  0.66095  1.0000
  C   C514      1.0  0.88549  0.71959  0.61182  1.0000
  N   N35       1.0  0.74859  0.97633  0.71062  1.0000
  H   H614      1.0  0.74759  0.97688  0.76968  1.0000
  S   S141      1.0  0.72121  0.01288  0.94382  1.0000
  S   S142      1.0  0.64440  0.01325  0.50480  1.0000
  C   C515      1.0  0.65045  0.00152  0.65314  1.0000
  C   C516      1.0  0.74391  0.72340  0.86135  1.0000
  C   C517      1.0  0.61197  0.70490  0.86420  1.0000
  Fe  Fe72      1.0  0.69978  0.71503  0.65167  1.0000
  H   H615      1.0  0.68899  0.78754  0.82765  1.0000
  H   H616      1.0  0.68291  0.73912  0.82942  1.0000
  H   H617      1.0  0.72088  0.79429  0.47570  1.0000
  H   H618      1.0  0.99183  0.70904  0.65422  1.0000
  H   H619      1.0  0.72935  0.91402  0.71112  1.0000
  C   C518      1.0  0.75684  0.94299  0.70861  1.0000
  C   C519      1.0  0.72170  0.97209  0.67989  1.0000
  H   H620      1.0  0.56114  0.96780  0.60693  1.0000
  C   C520      1.0  0.71519  0.81427  0.45914  1.0000
  C   C521      1.0  0.62478  0.77391  0.86284  1.0000
  C   C522      1.0  0.88214  0.72816  0.95191  1.0000
  C   C523      1.0  0.71254  0.71680  0.55340  1.0000
  H   H621      1.0  0.77031  0.94252  0.68190  1.0000
  C   C524      1.0  0.54780  0.02719  0.81684  1.0000
  H   H622      1.0  0.54691  0.01631  0.84443  1.0000
  H   H623      1.0  0.55874  0.71097  0.85988  1.0000
  C   C525      1.0  0.01936  0.77475  0.69940  1.0000
  C   C526      1.0  0.66778  0.75706  0.89612  1.0000
  H   H624      1.0  0.68938  0.78907  0.89730  1.0000
  H   H625      1.0  0.82816  0.99619  0.69954  1.0000
  H   H626      1.0  0.99903  0.72061  0.77933  1.0000
  C   C527      1.0  0.03606  0.78326  0.77578  1.0000
  H   H627      1.0  0.57599  0.00265  0.45905  1.0000
  H   H628      1.0  0.65007  0.74868  0.92186  1.0000
  H   H629      1.0  0.60616  0.76944  0.88743  1.0000
  C   C528      1.0  0.69924  0.71067  0.48753  1.0000
  H   H630      1.0  0.69393  0.94329  0.68091  1.0000
  H   H631      1.0  0.72659  0.85463  0.50305  1.0000
  H   H632      1.0  0.75735  0.73699  0.51148  1.0000
  H   H633      1.0  0.70134  0.94278  0.74907  1.0000
  H   H634      1.0  0.60687  0.77013  0.83772  1.0000
  C   C529      1.0  0.84792  0.71210  0.62297  1.0000
  S   S143      1.0  0.73825  0.71480  0.93609  1.0000
  H   H635      1.0  0.97214  0.73056  0.90125  1.0000
  C   C530      1.0  0.98230  0.73098  0.64779  1.0000
  S   S144      1.0  0.64702  0.02005  0.87548  1.0000
  H   H636      1.0  0.77667  0.94399  0.73120  1.0000
  C   C531      1.0  0.00275  0.74187  0.72382  1.0000
  H   H637      1.0  0.98398  0.71222  0.71455  1.0000
  H   H638      1.0  0.83500  0.73476  0.50429  1.0000
  C   C532      1.0  0.82272  0.02068  0.70196  1.0000
  H   H639      1.0  0.97122  0.79314  0.66209  1.0000
  H   H640      1.0  0.97772  0.72932  0.61758  1.0000
  C   C533      1.0  0.73648  0.70990  0.82502  1.0000
  H   H641      1.0  0.84374  0.70090  0.53089  1.0000
  H   H642      1.0  0.02056  0.82980  0.64998  1.0000
  C   C534      1.0  0.71835  0.84828  0.47443  1.0000
  H   H643      1.0  0.71376  0.89972  0.46680  1.0000
  H   H644      1.0  0.85866  0.72300  0.89646  1.0000
  N   N36       1.0  0.01224  0.77112  0.65929  1.0000
  H   H645      1.0  0.58043  0.99229  0.56403  1.0000
  C   C535      1.0  0.67212  0.69915  0.56077  1.0000
  C   C536      1.0  0.99807  0.79840  0.64664  1.0000
  H   H646      1.0  0.68560  0.74184  0.89664  1.0000
  C   C537      1.0  0.88296  0.72566  0.91310  1.0000
  C   C538      1.0  0.66656  0.02759  0.72636  1.0000
  C   C539      1.0  0.55856  0.02692  0.92881  1.0000
  H   H647      1.0  0.57670  0.01427  0.64988  1.0000
  C   C540      1.0  0.84115  0.75914  0.95550  1.0000
  H   H648      1.0  0.54273  0.01959  0.52924  1.0000
