data_image0
_chemical_formula_structural       FeS2FeS2FeSFeS3H2SH3C3HC2HCH4C7H4C6H3NC4H2CH7CHSCH4NC9H7CH6CH4C2HNCH2CHC2H4CH3C2HCHNCH3C4HCHCH2CH4CHC2H2CFeS2FeS2FeSFeS3H2SC2H2CHC6H5C4H2C6H4NC4HCH4CH3CH2C3H3CHCH2C2HCH2CHC2H3C3H5CHC3H2CNH3C7H3CHSNHC2H3CH3CNHC2HFeC3H2CHC2H5C2S2HFeS2CFeH3CH2C2H3C2H2C2HCH2FeSHFeS2C2FeSFeS2FeS2FeSFeS3C6H4C6H5C2H2C3SHNCHC7HCHCFeNC5H10CH8SHSH2FeHC3HC2HSHCH3CHNC9H12CSCHCH3CH6CHCH2C3SH2NH3CNCHSHCHC2HCNCH2CFeS2CSHFe2SCSFeS2FeS2FeS2FeS2FeSFeS3HCH3C6H2CH3C6H4CSHC3HC6H4SCHCHSFeNHC7H3CHCH4C3H2SHCHNC4HC2HC2SHCHCH2CSH3C3HCH4CH2CH5NH3CHFeH2CHCH3C2H10C3FeSFeS2FeSCHS2FeS2FeSFeSFeS2FeS2FeSFeS4C6H4C6H4CH2C2HC3HNSH2C8H4SNSHC7H2CH4CFeHCH3NC7H14SHFeCH2CH2CH2NC4HCH7C3H3CH2CHCHCH3CH5C2H3C3HC4HCH2C2H3CH4C2H2NHCH2CH2NH2CHCFeSHSHFe3SCSFeS2FeS2FeSFeS3C4HCHCHCSC2H2C7H5C6H4CHCHNSH4CHNC5H14C2HCNC3HC2HC3H9C3H4CSH2C2SCHCH2CH5CHCH2CFeH2C3HSNSH2FeSHSNCHCHCH5CHC2H2FeCH2SH2CH2C4H3SH2CH2C3HSNHFeS2FeS2FeSFeSCHC2HC3H3C4H6C3H4C2HCHCHC3SCHCH8C4HCH2S2C3NH2C2HC3H3CFeCFeHCHC2HCHCH2SCH2CH5CFe2SNSFeHSHC2FeSCSHSCHCHC2H2C2HCH2C4H2CSHNHSHC2HCHC2H2FeH4C2SC2H6C5H2CSHCFeSHCHSCH2CH2CHCSFeS2FeHFeSFeS3C2H2C2H3C5H3CNC5HSH5C2SFeHCH5C2HCFeNC9H4CHNH7CH2NH4CSHCH3C2H2C2H
_chemical_formula_sum              "Fe72 S144 H648 C540 N36"
_cell_length_a       43.5943
_cell_length_b       42.9969
_cell_length_c       59.3304
_cell_angle_alpha    88.6054
_cell_angle_beta     91.6013
_cell_angle_gamma    118.836

_space_group_name_H-M_alt    "P 1"
_space_group_IT_number       1

loop_
  _space_group_symop_operation_xyz
  'x, y, z'

loop_
  _atom_site_type_symbol
  _atom_site_label
  _atom_site_symmetry_multiplicity
  _atom_site_fract_x
  _atom_site_fract_y
  _atom_site_fract_z
  _atom_site_occupancy
  Fe  Fe1       1.0  0.18248  0.17269  0.08892  1.0000
  S   S1        1.0  0.17990  0.14606  0.05640  1.0000
  S   S2        1.0  0.13734  0.17491  0.10501  1.0000
  Fe  Fe2       1.0  0.26044  0.19630  0.09811  1.0000
  S   S3        1.0  0.26439  0.17172  0.06583  1.0000
  S   S4        1.0  0.29966  0.22839  0.12617  1.0000
  Fe  Fe3       1.0  0.23159  0.19388  0.04953  1.0000
  S   S5        1.0  0.24469  0.21906  0.01471  1.0000
  Fe  Fe4       1.0  0.21213  0.12562  0.07488  1.0000
  S   S6        1.0  0.19955  0.06897  0.06927  1.0000
  S   S7        1.0  0.23202  0.22256  0.08079  1.0000
  S   S8        1.0  0.21029  0.14797  0.10828  1.0000
  H   H1        1.0  0.20550  0.00234  0.00745  1.0000
  H   H2        1.0  0.16039  0.99206  0.06885  1.0000
  S   S9        1.0  0.44507  0.25680  0.17317  1.0000
  H   H3        1.0  0.01503  0.09566  0.12438  1.0000
  H   H4        1.0  0.06124  0.13726  0.03735  1.0000
  H   H5        1.0  0.19895  0.10194  0.02124  1.0000
  C   C1        1.0  0.17409  0.27433  0.00681  1.0000
  C   C2        1.0  0.20003  0.11603  0.00506  1.0000
  C   C3        1.0  0.11215  0.06612  0.14944  1.0000
  H   H6        1.0  0.37991  0.18296  0.19504  1.0000
  C   C4        1.0  0.00862  0.07398  0.11219  1.0000
  C   C5        1.0  0.07773  0.00941  0.03016  1.0000
  H   H7        1.0  0.98185  0.06648  0.10536  1.0000
  C   C6        1.0  0.15664  0.03854  0.07750  1.0000
  H   H8        1.0  0.08531  0.03671  0.10046  1.0000
  H   H9        1.0  0.26942  0.16297  0.00661  1.0000
  H   H10       1.0  0.07050  0.98794  0.04318  1.0000
  H   H11       1.0  0.01901  0.02252  0.09273  1.0000
  C   C7        1.0  0.07432  0.08659  0.13165  1.0000
  C   C8        1.0  0.40623  0.25191  0.15912  1.0000
  C   C9        1.0  0.39297  0.22943  0.14033  1.0000
  C   C10       1.0  0.36112  0.22283  0.12951  1.0000
  C   C11       1.0  0.34170  0.23818  0.13761  1.0000
  C   C12       1.0  0.35523  0.26108  0.15616  1.0000
  C   C13       1.0  0.38731  0.26806  0.16679  1.0000
  H   H12       1.0  0.40734  0.21679  0.13423  1.0000
  H   H13       1.0  0.35147  0.20557  0.11514  1.0000
  H   H14       1.0  0.34058  0.27323  0.16257  1.0000
  H   H15       1.0  0.39700  0.28532  0.18122  1.0000
  C   C14       1.0  0.03749  0.14962  0.06465  1.0000
  C   C15       1.0  0.04105  0.15986  0.08715  1.0000
  C   C16       1.0  0.07166  0.16702  0.09947  1.0000
  C   C17       1.0  0.09842  0.16320  0.08952  1.0000
  C   C18       1.0  0.09413  0.15138  0.06733  1.0000
  C   C19       1.0  0.06399  0.14526  0.05476  1.0000
  H   H16       1.0  0.02079  0.16351  0.09483  1.0000
  H   H17       1.0  0.07482  0.17607  0.11668  1.0000
  H   H18       1.0  0.11428  0.14767  0.05969  1.0000
  N   N1        1.0  0.15455  0.25815  0.04689  1.0000
  C   C20       1.0  0.16481  0.22997  0.04861  1.0000
  C   C21       1.0  0.18381  0.29159  0.05580  1.0000
  C   C22       1.0  0.12414  0.24769  0.06179  1.0000
  C   C23       1.0  0.14716  0.26297  0.02292  1.0000
  H   H19       1.0  0.99332  0.04998  0.15547  1.0000
  H   H20       1.0  0.09093  0.24583  0.02550  1.0000
  C   C24       1.0  0.17624  0.19198  0.99923  1.0000
  H   H21       1.0  0.17372  0.10220  0.99683  1.0000
  H   H22       1.0  0.17790  0.31398  0.05372  1.0000
  H   H23       1.0  0.20892  0.29938  0.04725  1.0000
  H   H24       1.0  0.18903  0.28902  0.07408  1.0000
  H   H25       1.0  0.10168  0.22167  0.05691  1.0000
  H   H26       1.0  0.13058  0.24425  0.07970  1.0000
  H   H27       1.0  0.11529  0.26802  0.06155  1.0000
  C   C25       1.0  0.11323  0.25515  0.01466  1.0000
  H   H28       1.0  0.08793  0.01029  0.15741  1.0000
  S   S10       1.0  0.00145  0.14470  0.04813  1.0000
  C   C26       1.0  0.99883  0.01505  0.10588  1.0000
  H   H29       1.0  0.07253  0.10904  0.12463  1.0000
  H   H30       1.0  0.22000  0.06267  0.01785  1.0000
  H   H31       1.0  0.14462  0.20525  0.04051  1.0000
  H   H32       1.0  0.97530  0.17465  0.01332  1.0000
  N   N2        1.0  0.27844  0.10758  0.13355  1.0000
  C   C27       1.0  0.28472  0.13188  0.11402  1.0000
  C   C28       1.0  0.27862  0.07532  0.12525  1.0000
  C   C29       1.0  0.24283  0.09620  0.14215  1.0000
  C   C30       1.0  0.30539  0.12655  0.15125  1.0000
  C   C31       1.0  0.30585  0.15535  0.16278  1.0000
  C   C32       1.0  0.33303  0.11874  0.15657  1.0000
  C   C33       1.0  0.33192  0.17470  0.17880  1.0000
  C   C34       1.0  0.35929  0.13870  0.17240  1.0000
  C   C35       1.0  0.35879  0.16666  0.18343  1.0000
  H   H33       1.0  0.31131  0.14134  0.10713  1.0000
  H   H34       1.0  0.26521  0.11872  0.10014  1.0000
  H   H35       1.0  0.28320  0.15598  0.11871  1.0000
  H   H36       1.0  0.30329  0.08206  0.11640  1.0000
  H   H37       1.0  0.25705  0.06091  0.11268  1.0000
  H   H38       1.0  0.27509  0.05634  0.13933  1.0000
  H   H39       1.0  0.23870  0.11902  0.14611  1.0000
  C   C36       1.0  0.14384  0.00181  0.07556  1.0000
  H   H40       1.0  0.23796  0.07971  0.15776  1.0000
  H   H41       1.0  0.28708  0.16441  0.15879  1.0000
  H   H42       1.0  0.33545  0.09791  0.14842  1.0000
  H   H43       1.0  0.33233  0.19732  0.18683  1.0000
  H   H44       1.0  0.38073  0.13311  0.17580  1.0000
  H   H45       1.0  0.13781  0.07152  0.15567  1.0000
  C   C37       1.0  0.05100  0.02466  0.14225  1.0000
  H   H46       1.0  0.16845  0.17905  0.01546  1.0000
  H   H47       1.0  0.19013  0.23772  0.04030  1.0000
  H   H48       1.0  0.12915  0.12023  0.13920  1.0000
  H   H49       1.0  0.97385  0.00997  0.09726  1.0000
  C   C38       1.0  0.12254  0.99775  0.01703  1.0000
  C   C39       1.0  0.04520  0.05175  0.13224  1.0000
  H   H50       1.0  0.14455  0.02330  0.02311  1.0000
  N   N3        1.0  0.01010  0.04320  0.12308  1.0000
  C   C40       1.0  0.10148  0.02677  0.09353  1.0000
  H   H51       1.0  0.05340  0.01100  0.02630  1.0000
  H   H52       1.0  0.14456  0.07909  0.08772  1.0000
  C   C41       1.0  0.08405  0.03178  0.15056  1.0000
  H   H53       1.0  0.22200  0.08039  0.12946  1.0000
  C   C42       1.0  0.13513  0.05089  0.08619  1.0000
  C   C43       1.0  0.26158  0.13499  0.00217  1.0000
  H   H54       1.0  0.02677  0.08481  0.09775  1.0000
  H   H55       1.0  0.20499  0.14302  0.00963  1.0000
  H   H56       1.0  0.08533  0.06430  0.00831  1.0000
  H   H57       1.0  0.03022  0.99745  0.14313  1.0000
  C   C44       1.0  0.21175  0.21286  0.99448  1.0000
  H   H58       1.0  0.16787  0.22335  0.06650  1.0000
  H   H59       1.0  0.20024  0.27952  0.01161  1.0000
  H   H60       1.0  0.09743  0.03440  0.03838  1.0000
  C   C45       1.0  0.10724  0.09346  0.14010  1.0000
  C   C46       1.0  0.98474  0.03020  0.14171  1.0000
  H   H61       1.0  0.98126  0.00477  0.14916  1.0000
  C   C47       1.0  0.08891  0.99007  0.09232  1.0000
  H   H62       1.0  0.26115  0.12122  0.01836  1.0000
  N   N4        1.0  0.09192  0.00197  0.00968  1.0000
  C   C48       1.0  0.09701  0.05995  0.99374  1.0000
  H   H63       1.0  0.99418  0.98909  0.11318  1.0000
  H   H64       1.0  0.13240  0.98784  0.00335  1.0000
  H   H65       1.0  0.01359  0.15995  0.99605  1.0000
  C   C49       1.0  0.20751  0.02138  0.99443  1.0000
  C   C50       1.0  0.21581  0.05597  0.00015  1.0000
  C   C51       1.0  0.10701  0.25866  0.99171  1.0000
  C   C52       1.0  0.10245  0.03000  0.99199  1.0000
  H   H66       1.0  0.28267  0.13552  0.99174  1.0000
  C   C53       1.0  0.41237  0.44547  0.44819  1.0000
  H   H67       1.0  0.38487  0.44276  0.47753  1.0000
  C   C54       1.0  0.39301  0.45603  0.46139  1.0000
  H   H68       1.0  0.33301  0.44508  0.48384  1.0000
  H   H69       1.0  0.31776  0.45578  0.62462  1.0000
  C   C55       1.0  0.28161  0.43182  0.65181  1.0000
  H   H70       1.0  0.25889  0.42612  0.64120  1.0000
  H   H71       1.0  0.44157  0.45474  0.41786  1.0000
  H   H72       1.0  0.41834  0.42497  0.45430  1.0000
  H   H73       1.0  0.46438  0.45797  0.51126  1.0000
  C   C56       1.0  0.42556  0.46227  0.42762  1.0000
  H   H74       1.0  0.37001  0.47086  0.64868  1.0000
  C   C57       1.0  0.31474  0.44836  0.64237  1.0000
  C   C58       1.0  0.34418  0.45677  0.65595  1.0000
  H   H75       1.0  0.31883  0.46743  0.44694  1.0000
  H   H76       1.0  0.37097  0.47560  0.50029  1.0000
  C   C59       1.0  0.35013  0.47349  0.48807  1.0000
  Fe  Fe5       1.0  0.08882  0.22623  0.86914  1.0000
  S   S11       1.0  0.12766  0.23796  0.84186  1.0000
  S   S12       1.0  0.03914  0.22859  0.86158  1.0000
  Fe  Fe6       1.0  0.13641  0.22087  0.90615  1.0000
  S   S13       1.0  0.17990  0.23328  0.88194  1.0000
  S   S14       1.0  0.12709  0.20033  0.94235  1.0000
  Fe  Fe7       1.0  0.16776  0.27532  0.86656  1.0000
  S   S15       1.0  0.20674  0.33410  0.85903  1.0000
  Fe  Fe8       1.0  0.13630  0.19555  0.85907  1.0000
  S   S16       1.0  0.13257  0.14915  0.84010  1.0000
  S   S17       1.0  0.12790  0.26573  0.89316  1.0000
  S   S18       1.0  0.09381  0.18083  0.88395  1.0000
  H   H77       1.0  0.20490  0.46599  0.80689  1.0000
  H   H78       1.0  0.99901  0.17753  0.91435  1.0000
  S   S19       1.0  0.24560  0.43685  0.77160  1.0000
  C   C60       1.0  0.22964  0.14120  0.97045  1.0000
  C   C61       1.0  0.00167  0.17299  0.93220  1.0000
  H   H79       1.0  0.20354  0.23737  0.94027  1.0000
  H   H80       1.0  0.19928  0.02681  0.93766  1.0000
  C   C62       1.0  0.13580  0.37402  0.83204  1.0000
  H   H81       1.0  0.23679  0.16852  0.97593  1.0000
  C   C63       1.0  0.21857  0.36178  0.83420  1.0000
  C   C64       1.0  0.20448  0.34878  0.81278  1.0000
  C   C65       1.0  0.21332  0.37211  0.79394  1.0000
  C   C66       1.0  0.23680  0.40870  0.79603  1.0000
  C   C67       1.0  0.25173  0.42155  0.81728  1.0000
  C   C68       1.0  0.24253  0.39828  0.83619  1.0000
  H   H82       1.0  0.18686  0.32075  0.81067  1.0000
  H   H83       1.0  0.20177  0.36170  0.77761  1.0000
  H   H84       1.0  0.26993  0.44951  0.81926  1.0000
  H   H85       1.0  0.25392  0.40873  0.85256  1.0000
  H   H86       1.0  0.31691  0.47567  0.72197  1.0000
  C   C69       1.0  0.03436  0.18059  0.94119  1.0000
  C   C70       1.0  0.99769  0.19033  0.85993  1.0000
  C   C71       1.0  0.99093  0.15709  0.86886  1.0000
  C   C72       1.0  0.06345  0.02915  0.89568  1.0000
  H   H87       1.0  0.20772  0.45249  0.84736  1.0000
  H   H88       1.0  0.01190  0.15408  0.87694  1.0000
  C   C73       1.0  0.15876  0.07392  0.88174  1.0000
  C   C74       1.0  0.16563  0.10664  0.89059  1.0000
  C   C75       1.0  0.15741  0.12975  0.87796  1.0000
  C   C76       1.0  0.14295  0.12052  0.85623  1.0000
  C   C77       1.0  0.13599  0.08775  0.84740  1.0000
  C   C78       1.0  0.14367  0.06434  0.86018  1.0000
  H   H89       1.0  0.17760  0.11427  0.90717  1.0000
  H   H90       1.0  0.16287  0.15499  0.88487  1.0000
  H   H91       1.0  0.12511  0.08066  0.83053  1.0000
  H   H92       1.0  0.13872  0.03929  0.85318  1.0000
  N   N5        1.0  0.04050  0.04586  0.89475  1.0000
  C   C79       1.0  0.16032  0.20457  0.96167  1.0000
  C   C80       1.0  0.19582  0.22461  0.95664  1.0000
  C   C81       1.0  0.00924  0.16292  0.97826  1.0000
  C   C82       1.0  0.97248  0.15998  0.94606  1.0000
  H   H93       1.0  0.30421  0.37326  0.70862  1.0000
  C   C83       1.0  0.20165  0.01102  0.97198  1.0000
  H   H94       1.0  0.04830  0.09955  0.89516  1.0000
  H   H95       1.0  0.12267  0.00516  0.96919  1.0000
  H   H96       1.0  0.36440  0.45645  0.68887  1.0000
  H   H97       1.0  0.04804  0.99982  0.89376  1.0000
  C   C84       1.0  0.97036  0.19411  0.84978  1.0000
  H   H98       1.0  0.02948  0.99711  0.93052  1.0000
  H   H99       1.0  0.05689  0.19067  0.93035  1.0000
  H   H100      1.0  0.34667  0.40992  0.71485  1.0000
  C   C85       1.0  0.26779  0.40571  0.72183  1.0000
  H   H101      1.0  0.10240  0.10819  0.97802  1.0000
  H   H102      1.0  0.21375  0.08695  0.94657  1.0000
  C   C86       1.0  0.34064  0.44850  0.67899  1.0000
  C   C87       1.0  0.99429  0.06448  0.81156  1.0000
  C   C88       1.0  0.03010  0.09094  0.81040  1.0000
  H   H103      1.0  0.35355  0.46802  0.72382  1.0000
  H   H104      1.0  0.06374  0.18150  0.97102  1.0000
  H   H105      1.0  0.06727  0.33200  0.81819  1.0000
  C   C89       1.0  0.13410  0.27001  0.97641  1.0000
  H   H106      1.0  0.13970  0.31292  0.83333  1.0000
  C   C90       1.0  0.01369  0.03263  0.91250  1.0000
  H   H107      1.0  0.12980  0.10215  0.94368  1.0000
  H   H108      1.0  0.26656  0.39952  0.74026  1.0000
  C   C91       1.0  0.05667  0.08169  0.80898  1.0000
  C   C92       1.0  0.18526  0.44096  0.81398  1.0000
  H   H109      1.0  0.03848  0.11903  0.81047  1.0000
  C   C93       1.0  0.21868  0.08139  0.98339  1.0000
  H   H110      1.0  0.25619  0.42374  0.71955  1.0000
  H   H111      1.0  0.05365  0.30731  0.84387  1.0000
  C   C94       1.0  0.98707  0.02852  0.81162  1.0000
  H   H112      1.0  0.07922  0.03521  0.91161  1.0000
  C   C95       1.0  0.02330  0.03871  0.87210  1.0000
  C   C96       1.0  0.32494  0.45548  0.72674  1.0000
  H   H113      1.0  0.09352  0.28362  0.83502  1.0000
  H   H114      1.0  0.11036  0.35402  0.87533  1.0000
  H   H115      1.0  0.24890  0.24501  0.96924  1.0000
  C   C97       1.0  0.01388  0.01963  0.81031  1.0000
  C   C98       1.0  0.20403  0.03515  0.95514  1.0000
  C   C99       1.0  0.01177  0.00806  0.92967  1.0000
  H   H116      1.0  0.08257  0.03890  0.88179  1.0000
  H   H117      1.0  0.07032  0.35469  0.84389  1.0000
  H   H118      1.0  0.20419  0.13103  0.96111  1.0000
  H   H119      1.0  0.25075  0.38016  0.71327  1.0000
  H   H120      1.0  0.25135  0.41109  0.68107  1.0000
  C   C100      1.0  0.21245  0.06987  0.96061  1.0000
  H   H121      1.0  0.99076  0.12461  0.79635  1.0000
  C   C101      1.0  0.07376  0.33305  0.83648  1.0000
  C   C102      1.0  0.06322  0.08473  0.89703  1.0000
  C   C103      1.0  0.22144  0.22893  0.97309  1.0000
  H   H122      1.0  0.11091  0.31161  0.81081  1.0000
  H   H123      1.0  0.11583  0.36411  0.79728  1.0000
  C   C104      1.0  0.04861  0.04617  0.80891  1.0000
  N   N6        1.0  0.22733  0.11779  0.98994  1.0000
  H   H124      1.0  0.08367  0.09566  0.88388  1.0000
  H   H125      1.0  0.00447  0.00996  0.87017  1.0000
  H   H126      1.0  0.97525  0.21964  0.84296  1.0000
  C   C105      1.0  0.13497  0.38288  0.80888  1.0000
  C   C106      1.0  0.97544  0.15467  0.96963  1.0000
  C   C107      1.0  0.12210  0.08215  0.95700  1.0000
  C   C108      1.0  0.98570  0.99581  0.94595  1.0000
  C   C109      1.0  0.16271  0.40024  0.84576  1.0000
  C   C110      1.0  0.11799  0.02736  0.97189  1.0000
  C   C111      1.0  0.97708  0.11181  0.81226  1.0000
  H   H127      1.0  0.00765  0.99197  0.81023  1.0000
  H   H128      1.0  0.08380  0.10230  0.80787  1.0000
  H   H129      1.0  0.98839  0.06342  0.90070  1.0000
  C   C112      1.0  0.15948  0.41579  0.80004  1.0000
  H   H130      1.0  0.15925  0.42158  0.78216  1.0000
  S   S20       1.0  0.17007  0.04605  0.89785  1.0000
  N   N7        1.0  0.10978  0.33874  0.84087  1.0000
  H   H131      1.0  0.04274  0.04659  0.85839  1.0000
  C   C113      1.0  0.98845  0.04453  0.91303  1.0000
  C   C114      1.0  0.11352  0.33408  0.86551  1.0000
  H   H132      1.0  0.13950  0.05036  0.93958  1.0000
  H   H133      1.0  0.06936  0.03923  0.80775  1.0000
  H   H134      1.0  0.25024  0.14426  0.95853  1.0000
  C   C115      1.0  0.18681  0.43324  0.83678  1.0000
  H   H135      1.0  0.32127  0.45054  0.74526  1.0000
  H   H136      1.0  0.09342  0.30733  0.87157  1.0000
  H   H137      1.0  0.13949  0.33611  0.86988  1.0000
  C   C116      1.0  0.12764  0.05309  0.95474  1.0000
  N   N8        1.0  0.30432  0.42265  0.71362  1.0000
  H   H138      1.0  0.16641  0.39566  0.86334  1.0000
  C   C117      1.0  0.11359  0.31058  0.82943  1.0000
  C   C118      1.0  0.30727  0.43141  0.68918  1.0000
  H   H139      1.0  0.07687  0.09144  0.91377  1.0000
  Fe  Fe9       1.0  0.13579  0.98675  0.89494  1.0000
  C   C119      1.0  0.10672  0.08551  0.97641  1.0000
  C   C120      1.0  0.16760  0.27806  0.98397  1.0000
  C   C121      1.0  0.03813  0.17546  0.96416  1.0000
  H   H140      1.0  0.00871  0.05354  0.86874  1.0000
  H   H141      1.0  0.12906  0.27186  0.95855  1.0000
  C   C122      1.0  0.15065  0.18824  0.98299  1.0000
  H   H142      1.0  0.19516  0.98415  0.96755  1.0000
  C   C123      1.0  0.27771  0.42339  0.67486  1.0000
  C   C124      1.0  0.31836  0.39790  0.71868  1.0000
  H   H143      1.0  0.18843  0.28610  0.97191  1.0000
  H   H144      1.0  0.99482  0.12550  0.82683  1.0000
  H   H145      1.0  0.31580  0.39009  0.73687  1.0000
  H   H146      1.0  0.12322  0.17303  0.98705  1.0000
  H   H147      1.0  0.08092  0.25215  0.98567  1.0000
  C   C125      1.0  0.05932  0.88042  0.02230  1.0000
  C   C126      1.0  0.98899  0.75422  0.19462  1.0000
  S   S21       1.0  0.01480  0.85306  0.09443  1.0000
  S   S22       1.0  0.99356  0.82335  0.02811  1.0000
  H   H148      1.0  0.99605  0.77844  0.20365  1.0000
  Fe  Fe10      1.0  0.01246  0.90450  0.09384  1.0000
  S   S23       1.0  0.04801  0.96139  0.10428  1.0000
  S   S24       1.0  0.98772  0.89690  0.05945  1.0000
  C   C127      1.0  0.03032  0.85191  0.01227  1.0000
  Fe  Fe11      1.0  0.98602  0.84407  0.06086  1.0000
  H   H149      1.0  0.11114  0.92409  0.01709  1.0000
  H   H150      1.0  0.05980  0.88452  0.04026  1.0000
  H   H151      1.0  0.10047  0.94924  0.08193  1.0000
  C   C128      1.0  0.97674  0.72188  0.20631  1.0000
  H   H152      1.0  0.97470  0.72224  0.22439  1.0000
  H   H153      1.0  0.00487  0.66579  0.21787  1.0000
  C   C129      1.0  0.08822  0.90294  0.00916  1.0000
  C   C130      1.0  0.99132  0.75541  0.17123  1.0000
  H   H154      1.0  0.05494  0.94617  0.01335  1.0000
  H   H155      1.0  0.99980  0.78032  0.16212  1.0000
  H   H156      1.0  0.96975  0.62935  0.18416  1.0000
  C   C131      1.0  0.97901  0.65822  0.22533  1.0000
  C   C132      1.0  0.98123  0.72426  0.15943  1.0000
  H   H157      1.0  0.97012  0.63248  0.23461  1.0000
  H   H158      1.0  0.98308  0.67796  0.23840  1.0000
  C   C133      1.0  0.06445  0.96783  0.00037  1.0000
  C   C134      1.0  0.10989  0.97754  0.08285  1.0000
  H   H159      1.0  0.98184  0.72519  0.14115  1.0000
  C   C135      1.0  0.96869  0.69173  0.17091  1.0000
  H   H160      1.0  0.04148  0.97019  0.99385  1.0000
  H   H161      1.0  0.11585  0.97804  0.03109  1.0000
  Fe  Fe12      1.0  0.43232  0.86082  0.55719  1.0000
  S   S25       1.0  0.37978  0.83126  0.57449  1.0000
  H   H162      1.0  0.29341  0.51722  0.63349  1.0000
  Fe  Fe13      1.0  0.37887  0.58219  0.51987  1.0000
  S   S26       1.0  0.38623  0.60850  0.55302  1.0000
  S   S27       1.0  0.34309  0.58850  0.49433  1.0000
  C   C136      1.0  0.40005  0.82612  0.65220  1.0000
  C   C137      1.0  0.34737  0.53752  0.62444  1.0000
  Fe  Fe14      1.0  0.37925  0.55744  0.56837  1.0000
  S   S28       1.0  0.43613  0.60097  0.51470  1.0000
  Fe  Fe15      1.0  0.17873  0.64565  0.57978  1.0000
  S   S29       1.0  0.16286  0.67490  0.55405  1.0000
  S   S30       1.0  0.19045  0.65074  0.61765  1.0000
  Fe  Fe16      1.0  0.18814  0.60151  0.54371  1.0000
  S   S31       1.0  0.17381  0.62717  0.51491  1.0000
  S   S32       1.0  0.20426  0.55896  0.54352  1.0000
  Fe  Fe17      1.0  0.20702  0.67794  0.53377  1.0000
  S   S33       1.0  0.24587  0.72816  0.51603  1.0000
  Fe  Fe18      1.0  0.13006  0.62185  0.53690  1.0000
  S   S34       1.0  0.07321  0.60604  0.52583  1.0000
  S   S35       1.0  0.22506  0.65247  0.56036  1.0000
  S   S36       1.0  0.14241  0.59243  0.56471  1.0000
  C   C138      1.0  0.30433  0.58059  0.50765  1.0000
  C   C139      1.0  0.28465  0.59659  0.49952  1.0000
  C   C140      1.0  0.25438  0.59107  0.51079  1.0000
  C   C141      1.0  0.24278  0.56803  0.52946  1.0000
  C   C142      1.0  0.26204  0.55145  0.53716  1.0000
  C   C143      1.0  0.29315  0.55842  0.52668  1.0000
  H   H163      1.0  0.29279  0.61332  0.48458  1.0000
  H   H164      1.0  0.23937  0.60361  0.50459  1.0000
  H   H165      1.0  0.25300  0.53311  0.55130  1.0000
  H   H166      1.0  0.30796  0.54580  0.53304  1.0000
  C   C144      1.0  0.34247  0.80362  0.55798  1.0000
  C   C145      1.0  0.31409  0.77489  0.56836  1.0000
  C   C146      1.0  0.28425  0.75193  0.55568  1.0000
  C   C147      1.0  0.28250  0.75755  0.53247  1.0000
  C   C148      1.0  0.31070  0.78656  0.52210  1.0000
  C   C149      1.0  0.34063  0.80953  0.53481  1.0000
  H   H167      1.0  0.31535  0.77009  0.58620  1.0000
  H   H168      1.0  0.26251  0.73003  0.56393  1.0000
  H   H169      1.0  0.30951  0.79122  0.50417  1.0000
  H   H170      1.0  0.36221  0.83185  0.52668  1.0000
  H   H171      1.0  0.41128  0.75016  0.61751  1.0000
  C   C150      1.0  0.28789  0.76999  0.63721  1.0000
  C   C151      1.0  0.40458  0.74243  0.46040  1.0000
  H   H172      1.0  0.14828  0.72049  0.51639  1.0000
  H   H173      1.0  0.04652  0.56111  0.44733  1.0000
  C   C152      1.0  0.39312  0.74640  0.48138  1.0000
  C   C153      1.0  0.18132  0.70834  0.62768  1.0000
  C   C154      1.0  0.19459  0.68580  0.63464  1.0000
  S   S37       1.0  0.33750  0.53383  0.59524  1.0000
  H   H174      1.0  0.16929  0.70537  0.61110  1.0000
  N   N9        1.0  0.25944  0.58819  0.60570  1.0000
  C   C155      1.0  0.38158  0.54987  0.63267  1.0000
  H   H175      1.0  0.40283  0.55790  0.62102  1.0000
  C   C156      1.0  0.00022  0.55536  0.46329  1.0000
  C   C157      1.0  0.04563  0.58518  0.50168  1.0000
  C   C158      1.0  0.00977  0.57540  0.50234  1.0000
  C   C159      1.0  0.98719  0.56045  0.48339  1.0000
  C   C160      1.0  0.46459  0.72406  0.65086  1.0000
  C   C161      1.0  0.03602  0.56488  0.46271  1.0000
  C   C162      1.0  0.05850  0.57945  0.48172  1.0000
  H   H176      1.0  0.99935  0.57962  0.51760  1.0000
  C   C163      1.0  0.46067  0.73329  0.51154  1.0000
  H   H177      1.0  0.08581  0.58645  0.48081  1.0000
  C   C164      1.0  0.33040  0.60797  0.65054  1.0000
  Fe  Fe19      1.0  0.42603  0.54999  0.53240  1.0000
  N   N10       1.0  0.36146  0.71974  0.51821  1.0000
  C   C165      1.0  0.36945  0.69887  0.53547  1.0000
  C   C166      1.0  0.37797  0.75692  0.52622  1.0000
  C   C167      1.0  0.32303  0.70577  0.51694  1.0000
  C   C168      1.0  0.37375  0.71662  0.49576  1.0000
  C   C169      1.0  0.36543  0.68282  0.48732  1.0000
  H   H178      1.0  0.39772  0.70638  0.53539  1.0000
  H   H179      1.0  0.36319  0.70328  0.55275  1.0000
  H   H180      1.0  0.35409  0.66975  0.53282  1.0000
  H   H181      1.0  0.40706  0.76917  0.52680  1.0000
  H   H182      1.0  0.36952  0.75867  0.54345  1.0000
  H   H183      1.0  0.37071  0.77374  0.51524  1.0000
  H   H184      1.0  0.30882  0.67734  0.51203  1.0000
  H   H185      1.0  0.31245  0.70784  0.53337  1.0000
  H   H186      1.0  0.31587  0.72081  0.50422  1.0000
  H   H187      1.0  0.35021  0.65893  0.49697  1.0000
  C   C170      1.0  0.37687  0.67907  0.46630  1.0000
  H   H188      1.0  0.44438  0.79590  0.61414  1.0000
  H   H189      1.0  0.45074  0.72700  0.58459  1.0000
  H   H190      1.0  0.00181  0.63998  0.47953  1.0000
  H   H191      1.0  0.44746  0.67859  0.51779  1.0000
  H   H192      1.0  0.11264  0.67426  0.44037  1.0000
  H   H193      1.0  0.40087  0.77329  0.48619  1.0000
  H   H194      1.0  0.05640  0.64049  0.42068  1.0000
  H   H195      1.0  0.37059  0.65284  0.46059  1.0000
  S   S38       1.0  0.36789  0.52979  0.53507  1.0000
  H   H196      1.0  0.10933  0.72279  0.50888  1.0000
  S   S39       1.0  0.44355  0.87066  0.52026  1.0000
  H   H197      1.0  0.42127  0.82865  0.64185  1.0000
  H   H198      1.0  0.30418  0.60675  0.58389  1.0000
  Fe  Fe20      1.0  0.44248  0.62291  0.54961  1.0000
  H   H199      1.0  0.43125  0.76739  0.59070  1.0000
  C   C171      1.0  0.22662  0.59074  0.60540  1.0000
  C   C172      1.0  0.28130  0.61080  0.58695  1.0000
  C   C173      1.0  0.39660  0.70886  0.45290  1.0000
  H   H200      1.0  0.32699  0.85914  0.62826  1.0000
  C   C174      1.0  0.31997  0.52698  0.63974  1.0000
  C   C175      1.0  0.31088  0.83056  0.62401  1.0000
  H   H201      1.0  0.36480  0.81385  0.62423  1.0000
  S   S40       1.0  0.43662  0.57343  0.56746  1.0000
  H   H202      1.0  0.32260  0.59148  0.61638  1.0000
  C   C176      1.0  0.45425  0.72436  0.60307  1.0000
  H   H203      1.0  0.32407  0.82494  0.61013  1.0000
  H   H204      1.0  0.00100  0.62328  0.43995  1.0000
  H   H205      1.0  0.35459  0.60662  0.65237  1.0000
  C   C177      1.0  0.26707  0.60936  0.64631  1.0000
  H   H206      1.0  0.05641  0.67242  0.50032  1.0000
  N   N11       1.0  0.12492  0.69726  0.48420  1.0000
  C   C178      1.0  0.14278  0.67538  0.48471  1.0000
  C   C179      1.0  0.14738  0.73121  0.47226  1.0000
  C   C180      1.0  0.12209  0.70586  0.50792  1.0000
  C   C181      1.0  0.09067  0.67787  0.47223  1.0000
  C   C182      1.0  0.08913  0.66804  0.44937  1.0000
  C   C183      1.0  0.05816  0.66754  0.48277  1.0000
  C   C184      1.0  0.05713  0.64892  0.43785  1.0000
  C   C185      1.0  0.02635  0.64876  0.47098  1.0000
  C   C186      1.0  0.02581  0.63932  0.44864  1.0000
  H   H207      1.0  0.14873  0.67002  0.46763  1.0000
  H   H208      1.0  0.16823  0.68857  0.49422  1.0000
  H   H209      1.0  0.12603  0.64917  0.49292  1.0000
  H   H210      1.0  0.15376  0.72706  0.45498  1.0000
  H   H211      1.0  0.17300  0.74686  0.48128  1.0000
  H   H212      1.0  0.13427  0.74791  0.47079  1.0000
  H   H213      1.0  0.10697  0.68131  0.51822  1.0000
  H   H214      1.0  0.42044  0.76574  0.45017  1.0000
  H   H215      1.0  0.23212  0.61848  0.60810  1.0000
  H   H216      1.0  0.25684  0.80758  0.65049  1.0000
  H   H217      1.0  0.30377  0.76460  0.62518  1.0000
  H   H218      1.0  0.26620  0.60462  0.57073  1.0000
  C   C187      1.0  0.18234  0.73387  0.64255  1.0000
  S   S41       1.0  0.44414  0.51030  0.52174  1.0000
  C   C188      1.0  0.27940  0.59934  0.62729  1.0000
  H   H219      1.0  0.21231  0.58255  0.58891  1.0000
  C   C189      1.0  0.43645  0.76820  0.60923  1.0000
  H   H220      1.0  0.17112  0.75055  0.63726  1.0000
  H   H221      1.0  0.41043  0.53436  0.48561  1.0000
  H   H222      1.0  0.40591  0.70598  0.43676  1.0000
  C   C190      1.0  0.36765  0.81815  0.64223  1.0000
  H   H223      1.0  0.20797  0.57303  0.61831  1.0000
  H   H224      1.0  0.29103  0.63940  0.59033  1.0000
  H   H225      1.0  0.23554  0.53318  0.61582  1.0000
  H   H226      1.0  0.23241  0.54046  0.58611  1.0000
  H   H227      1.0  0.28555  0.82666  0.61654  1.0000
  H   H228      1.0  0.27304  0.54722  0.59834  1.0000
  C   C191      1.0  0.24976  0.55070  0.60134  1.0000
  H   H229      1.0  0.44606  0.72769  0.49580  1.0000
  C   C192      1.0  0.33974  0.81607  0.65518  1.0000
  H   H230      1.0  0.26205  0.76230  0.62882  1.0000
  H   H231      1.0  0.46119  0.70118  0.64168  1.0000
  C   C193      1.0  0.31185  0.59933  0.62999  1.0000
  C   C194      1.0  0.46168  0.70549  0.52391  1.0000
  C   C195      1.0  0.46656  0.75478  0.63991  1.0000
  S   S42       1.0  0.97384  0.53920  0.43807  1.0000
  H   H232      1.0  0.42924  0.70202  0.60917  1.0000
  H   H233      1.0  0.24281  0.61045  0.64594  1.0000
  N   N12       1.0  0.46370  0.75785  0.61509  1.0000
  H   H234      1.0  0.39992  0.55128  0.46036  1.0000
  H   H235      1.0  0.37381  0.54277  0.48466  1.0000
  H   H236      1.0  0.16317  0.59317  0.65374  1.0000
  C   C196      1.0  0.38837  0.53257  0.47479  1.0000
  N   N13       1.0  0.30562  0.80757  0.64427  1.0000
  C   C197      1.0  0.38817  0.55096  0.65607  1.0000
  H   H237      1.0  0.28306  0.75182  0.65198  1.0000
  S   S43       1.0  0.46440  0.83338  0.56246  1.0000
  H   H238      1.0  0.39655  0.52235  0.42675  1.0000
  C   C198      1.0  0.21001  0.68986  0.65625  1.0000
  H   H239      1.0  0.34493  0.51353  0.43931  1.0000
  C   C199      1.0  0.38576  0.48362  0.45405  1.0000
  C   C200      1.0  0.46564  0.50563  0.49784  1.0000
  H   H240      1.0  0.31918  0.50194  0.46381  1.0000
  C   C201      1.0  0.33585  0.49448  0.45374  1.0000
  N   N14       1.0  0.36533  0.49556  0.46751  1.0000
  C   C202      1.0  0.39993  0.50040  0.43308  1.0000
  H   H241      1.0  0.43065  0.50337  0.40437  1.0000
  H   H242      1.0  0.33367  0.48213  0.49729  1.0000
  C   C203      1.0  0.41949  0.48979  0.42012  1.0000
  Fe  Fe21      1.0  0.11296  0.92922  0.93170  1.0000
  S   S44       1.0  0.07295  0.88792  0.90896  1.0000
  S   S45       1.0  0.12236  0.92930  0.96947  1.0000
  C   C204      1.0  0.36079  0.54042  0.67137  1.0000
  S   S46       1.0  0.09702  0.95023  0.86900  1.0000
  H   H243      1.0  0.31583  0.65753  0.75204  1.0000
  Fe  Fe22      1.0  0.05873  0.92963  0.89758  1.0000
  Fe  Fe23      1.0  0.11448  0.91071  0.88196  1.0000
  S   S47       1.0  0.12164  0.86825  0.86317  1.0000
  C   C205      1.0  0.45247  0.66842  0.74969  1.0000
  S   S48       1.0  0.15559  0.94918  0.90616  1.0000
  Fe  Fe24      1.0  0.33661  0.57361  0.77161  1.0000
  S   S49       1.0  0.33484  0.59085  0.73604  1.0000
  S   S50       1.0  0.37409  0.61745  0.79449  1.0000
  Fe  Fe25      1.0  0.27679  0.55942  0.73947  1.0000
  S   S51       1.0  0.24769  0.58581  0.72305  1.0000
  S   S52       1.0  0.27795  0.54476  0.77597  1.0000
  Fe  Fe26      1.0  0.28481  0.81377  0.74658  1.0000
  S   S53       1.0  0.25778  0.79578  0.77966  1.0000
  S   S54       1.0  0.34240  0.84910  0.74116  1.0000
  Fe  Fe27      1.0  0.21688  0.77657  0.71891  1.0000
  S   S55       1.0  0.18386  0.75649  0.74997  1.0000
  S   S56       1.0  0.19503  0.76778  0.68303  1.0000
  Fe  Fe28      1.0  0.21808  0.81065  0.76508  1.0000
  S   S57       1.0  0.20621  0.85209  0.78096  1.0000
  Fe  Fe29      1.0  0.22618  0.74369  0.76186  1.0000
  S   S58       1.0  0.21648  0.69181  0.77807  1.0000
  S   S59       1.0  0.24758  0.83160  0.73261  1.0000
  S   S60       1.0  0.25690  0.76083  0.73010  1.0000
  H   H244      1.0  0.07803  0.63758  0.72509  1.0000
  C   C206      1.0  0.26889  0.83138  0.84526  1.0000
  H   H245      1.0  0.13737  0.62947  0.66348  1.0000
  H   H246      1.0  0.29034  0.68933  0.84288  1.0000
  H   H247      1.0  0.22305  0.71821  0.68765  1.0000
  C   C207      1.0  0.37256  0.84189  0.75773  1.0000
  C   C208      1.0  0.36228  0.81986  0.77693  1.0000
  C   C209      1.0  0.38750  0.81599  0.79024  1.0000
  C   C210      1.0  0.42277  0.83316  0.78396  1.0000
  C   C211      1.0  0.43273  0.85444  0.76449  1.0000
  C   C212      1.0  0.40783  0.85928  0.75167  1.0000
  H   H248      1.0  0.33508  0.80615  0.78167  1.0000
  H   H249      1.0  0.37964  0.79921  0.80519  1.0000
  C   C213      1.0  0.43196  0.68322  0.79046  1.0000
  H   H250      1.0  0.41604  0.87656  0.73696  1.0000
  H   H251      1.0  0.30933  0.71168  0.74156  1.0000
  H   H252      1.0  0.34403  0.75529  0.74952  1.0000
  C   C214      1.0  0.24264  0.61731  0.73875  1.0000
  C   C215      1.0  0.23751  0.64341  0.72730  1.0000
  C   C216      1.0  0.23033  0.66690  0.73925  1.0000
  C   C217      1.0  0.22808  0.66440  0.76276  1.0000
  C   C218      1.0  0.23394  0.63877  0.77424  1.0000
  C   C219      1.0  0.24152  0.61549  0.76230  1.0000
  H   H253      1.0  0.23801  0.64478  0.70907  1.0000
  H   H254      1.0  0.22517  0.68591  0.73014  1.0000
  H   H255      1.0  0.23233  0.63670  0.79243  1.0000
  H   H256      1.0  0.24535  0.59541  0.77130  1.0000
  C   C220      1.0  0.41218  0.64953  0.78095  1.0000
  S   S61       1.0  0.36995  0.54025  0.70051  1.0000
  H   H257      1.0  0.26636  0.91305  0.81845  1.0000
  C   C221      1.0  0.42256  0.64222  0.76052  1.0000
  C   C222      1.0  0.28577  0.61775  0.66682  1.0000
  C   C223      1.0  0.16241  0.58139  0.71052  1.0000
  H   H258      1.0  0.40792  0.61613  0.75324  1.0000
  C   C224      1.0  0.14576  0.86465  0.84031  1.0000
  C   C225      1.0  0.16662  0.89342  0.82623  1.0000
  C   C226      1.0  0.18458  0.88888  0.80816  1.0000
  C   C227      1.0  0.18228  0.85568  0.80392  1.0000
  C   C228      1.0  0.16176  0.82700  0.81814  1.0000
  C   C229      1.0  0.14359  0.83148  0.83611  1.0000
  H   H259      1.0  0.16859  0.91907  0.82910  1.0000
  H   H260      1.0  0.20028  0.91131  0.79733  1.0000
  H   H261      1.0  0.15970  0.80132  0.81525  1.0000
  H   H262      1.0  0.12757  0.80898  0.84681  1.0000
  S   S62       1.0  0.27414  0.50929  0.72675  1.0000
  C   C230      1.0  0.46124  0.70979  0.77928  1.0000
  H   H263      1.0  0.30536  0.52034  0.67478  1.0000
  C   C231      1.0  0.30283  0.69430  0.82667  1.0000
  H   H264      1.0  0.05810  0.86536  0.95790  1.0000
  S   S63       1.0  0.33910  0.52456  0.76225  1.0000
  Fe  Fe30      1.0  0.33278  0.53992  0.72657  1.0000
  N   N15       1.0  0.12316  0.64363  0.70726  1.0000
  H   H265      1.0  0.22037  0.67253  0.66177  1.0000
  C   C232      1.0  0.09116  0.62195  0.72050  1.0000
  C   C233      1.0  0.08745  0.89824  0.98579  1.0000
  C   C234      1.0  0.13834  0.62116  0.70024  1.0000
  C   C235      1.0  0.32667  0.52876  0.66315  1.0000
  C   C236      1.0  0.16803  0.57807  0.68794  1.0000
  C   C237      1.0  0.40538  0.83137  0.67536  1.0000
  C   C238      1.0  0.14820  0.60290  0.71668  1.0000
  H   H266      1.0  0.14567  0.60562  0.73450  1.0000
  H   H267      1.0  0.07193  0.59848  0.71075  1.0000
  H   H268      1.0  0.17034  0.56819  0.72339  1.0000
  C   C239      1.0  0.11322  0.65998  0.68803  1.0000
  H   H269      1.0  0.43057  0.83779  0.68309  1.0000
  C   C240      1.0  0.34596  0.82114  0.67884  1.0000
  H   H270      1.0  0.09697  0.61204  0.73666  1.0000
  H   H271      1.0  0.38257  0.83288  0.70664  1.0000
  H   H272      1.0  0.29397  0.83999  0.66600  1.0000
  H   H273      1.0  0.27545  0.62434  0.68130  1.0000
  C   C241      1.0  0.24500  0.87157  0.84290  1.0000
  C   C242      1.0  0.29279  0.85081  0.82842  1.0000
  C   C243      1.0  0.24500  0.84169  0.85243  1.0000
  H   H274      1.0  0.35333  0.94133  0.82302  1.0000
  H   H275      1.0  0.33098  0.62217  0.68513  1.0000
  S   S64       1.0  0.00600  0.92472  0.90548  1.0000
  H   H276      1.0  0.99726  0.91370  0.95324  1.0000
  C   C244      1.0  0.34441  0.67663  0.75277  1.0000
  H   H277      1.0  0.27521  0.72049  0.81263  1.0000
  N   N16       1.0  0.31752  0.90213  0.79989  1.0000
  C   C245      1.0  0.29720  0.90107  0.77918  1.0000
  C   C246      1.0  0.33892  0.93960  0.80689  1.0000
  C   C247      1.0  0.34201  0.88886  0.79393  1.0000
  C   C248      1.0  0.29316  0.88123  0.81810  1.0000
  H   H278      1.0  0.32643  0.81977  0.69025  1.0000
  C   C249      1.0  0.26851  0.89098  0.82591  1.0000
  C   C250      1.0  0.31717  0.61673  0.66900  1.0000
  H   H279      1.0  0.22582  0.87905  0.84817  1.0000
  C   C251      1.0  0.14376  0.61661  0.67728  1.0000
  C   C252      1.0  0.19688  0.73727  0.66438  1.0000
  S   S65       1.0  0.45420  0.82730  0.80005  1.0000
  H   H280      1.0  0.27965  0.87322  0.77401  1.0000
  C   C253      1.0  0.03035  0.84611  0.98911  1.0000
  H   H281      1.0  0.35852  0.95577  0.79395  1.0000
  C   C254      1.0  0.15863  0.59555  0.67135  1.0000
  H   H282      1.0  0.17343  0.68968  0.71236  1.0000
  H   H283      1.0  0.35973  0.90478  0.78004  1.0000
  C   C255      1.0  0.97947  0.93455  0.88697  1.0000
  S   S66       1.0  0.09633  0.96911  0.92194  1.0000
  H   H284      1.0  0.45983  0.86778  0.75951  1.0000
  H   H285      1.0  0.35900  0.88973  0.80852  1.0000
  H   H286      1.0  0.35074  0.73125  0.72790  1.0000
  C   C256      1.0  0.21138  0.71564  0.67102  1.0000
  C   C257      1.0  0.34270  0.68858  0.80171  1.0000
  C   C258      1.0  0.05851  0.86968  0.97580  1.0000
  H   H287      1.0  0.30182  0.73139  0.77616  1.0000
  C   C259      1.0  0.33812  0.72813  0.74446  1.0000
  H   H288      1.0  0.32757  0.86122  0.78762  1.0000
  H   H289      1.0  0.28008  0.91326  0.78149  1.0000
  H   H290      1.0  0.31442  0.91506  0.76469  1.0000
  H   H291      1.0  0.26852  0.80786  0.85258  1.0000
  C   C260      1.0  0.37834  0.82868  0.68862  1.0000
  H   H292      1.0  0.42429  0.68898  0.80635  1.0000
  H   H293      1.0  0.35482  0.67913  0.73553  1.0000
  C   C261      1.0  0.29450  0.71202  0.80967  1.0000
  H   H294      1.0  0.40322  0.73908  0.74803  1.0000
  H   H295      1.0  0.00256  0.93068  0.85627  1.0000
  H   H296      1.0  0.15621  0.66316  0.73732  1.0000
  H   H297      1.0  0.32270  0.95273  0.80943  1.0000
  H   H298      1.0  0.36119  0.67895  0.79951  1.0000
  N   N17       1.0  0.35115  0.71140  0.76167  1.0000
  H   H299      1.0  0.09308  0.63950  0.67682  1.0000
  H   H300      1.0  0.13843  0.69054  0.72691  1.0000
  H   H301      1.0  0.46052  0.66238  0.73403  1.0000
  C   C262      1.0  0.38951  0.73461  0.76430  1.0000
  H   H302      1.0  0.00205  0.89277  0.97870  1.0000
  Fe  Fe31      1.0  0.28005  0.49646  0.76340  1.0000
  H   H303      1.0  0.46594  0.69860  0.68247  1.0000
  H   H304      1.0  0.31022  0.84102  0.82352  1.0000
  C   C263      1.0  0.31005  0.71802  0.78857  1.0000
  H   H305      1.0  0.39577  0.76098  0.77104  1.0000
  C   C264      1.0  0.33450  0.70613  0.78388  1.0000
  H   H306      1.0  0.35698  0.66403  0.76331  1.0000
  H   H307      1.0  0.33343  0.66875  0.83588  1.0000
  H   H308      1.0  0.40156  0.72318  0.77623  1.0000
  C   C265      1.0  0.32698  0.68269  0.82272  1.0000
  C   C266      1.0  0.14888  0.67286  0.72160  1.0000
  H   H309      1.0  0.22605  0.82626  0.86517  1.0000
  H   H310      1.0  0.00052  0.87388  0.95188  1.0000
  H   H311      1.0  0.10226  0.67702  0.69383  1.0000
  H   H312      1.0  0.27328  0.79344  0.67386  1.0000
  H   H313      1.0  0.41461  0.55985  0.66235  1.0000
  H   H314      1.0  0.13630  0.67771  0.67776  1.0000
  H   H315      1.0  0.07423  0.95858  0.98624  1.0000
  H   H316      1.0  0.00840  0.82353  0.98140  1.0000
  H   H317      1.0  0.18013  0.56226  0.68339  1.0000
  H   H318      1.0  0.98414  0.97641  0.95852  1.0000
  C   C267      1.0  0.98924  0.88761  0.96172  1.0000
  C   C268      1.0  0.98290  0.93570  0.86356  1.0000
  C   C269      1.0  0.28164  0.81250  0.65935  1.0000
  Fe  Fe32      1.0  0.89783  0.05701  0.09271  1.0000
  S   S67       1.0  0.91368  0.06530  0.05665  1.0000
  Fe  Fe33      1.0  0.89487  0.12631  0.09572  1.0000
  S   S68       1.0  0.91069  0.14030  0.05935  1.0000
  S   S69       1.0  0.89376  0.16667  0.12002  1.0000
  Fe  Fe34      1.0  0.87338  0.08301  0.05180  1.0000
  S   S70       1.0  0.84185  0.07121  0.01891  1.0000
  C   C270      1.0  0.53497  0.43849  0.23381  1.0000
  H   H319      1.0  0.73979  0.30283  0.29469  1.0000
  S   S71       1.0  0.85389  0.07015  0.08761  1.0000
  S   S72       1.0  0.93782  0.11202  0.10296  1.0000
  Fe  Fe35      1.0  0.55149  0.36583  0.20502  1.0000
  S   S73       1.0  0.55730  0.35639  0.24154  1.0000
  S   S74       1.0  0.59250  0.41516  0.18757  1.0000
  Fe  Fe36      1.0  0.54080  0.30050  0.23235  1.0000
  S   S75       1.0  0.57196  0.28004  0.25273  1.0000
  Fe  Fe37      1.0  0.50034  0.33907  0.24314  1.0000
  S   S76       1.0  0.53985  0.31108  0.19521  1.0000
  Fe  Fe38      1.0  0.76483  0.20901  0.20038  1.0000
  S   S77       1.0  0.79592  0.23535  0.23190  1.0000
  S   S78       1.0  0.77255  0.17662  0.17300  1.0000
  Fe  Fe39      1.0  0.70932  0.23151  0.21055  1.0000
  S   S79       1.0  0.73651  0.26032  0.24207  1.0000
  S   S80       1.0  0.65894  0.22728  0.19652  1.0000
  Fe  Fe40      1.0  0.78544  0.28038  0.22215  1.0000
  S   S81       1.0  0.82726  0.33746  0.22616  1.0000
  Fe  Fe41      1.0  0.74406  0.21312  0.24932  1.0000
  S   S82       1.0  0.73471  0.18792  0.28421  1.0000
  S   S83       1.0  0.75764  0.25580  0.18967  1.0000
  S   S84       1.0  0.71369  0.18269  0.21887  1.0000
  S   S85       1.0  0.78661  0.44995  0.18424  1.0000
  C   C271      1.0  0.81582  0.36875  0.21476  1.0000
  C   C272      1.0  0.78787  0.35837  0.19935  1.0000
  C   C273      1.0  0.77977  0.38375  0.18979  1.0000
  C   C274      1.0  0.79852  0.41939  0.19627  1.0000
  C   C275      1.0  0.82609  0.42974  0.21203  1.0000
  C   C276      1.0  0.83512  0.40453  0.22094  1.0000
  H   H320      1.0  0.77285  0.33092  0.19444  1.0000
  H   H321      1.0  0.75868  0.37572  0.17741  1.0000
  H   H322      1.0  0.84088  0.45727  0.21692  1.0000
  H   H323      1.0  0.85697  0.41271  0.23272  1.0000
  C   C277      1.0  0.59698  0.26676  0.23686  1.0000
  C   C278      1.0  0.58833  0.25731  0.21431  1.0000
  C   C279      1.0  0.60750  0.24511  0.20218  1.0000
  C   C280      1.0  0.63598  0.24322  0.21231  1.0000
  C   C281      1.0  0.64493  0.25312  0.23484  1.0000
  C   C282      1.0  0.62523  0.26457  0.24716  1.0000
  H   H324      1.0  0.56634  0.25855  0.20631  1.0000
  H   H325      1.0  0.60028  0.23721  0.18481  1.0000
  H   H326      1.0  0.66648  0.25129  0.24292  1.0000
  H   H327      1.0  0.63174  0.27148  0.26471  1.0000
  C   C283      1.0  0.62959  0.44660  0.20270  1.0000
  H   H328      1.0  0.55739  0.40430  0.27163  1.0000
  H   H329      1.0  0.47443  0.37265  0.31888  1.0000
  C   C284      1.0  0.63165  0.44590  0.22628  1.0000
  C   C285      1.0  0.88170  0.24997  0.11084  1.0000
  H   H330      1.0  0.61016  0.42611  0.23580  1.0000
  C   C286      1.0  0.69084  0.21335  0.29814  1.0000
  C   C287      1.0  0.70658  0.19227  0.30321  1.0000
  C   C288      1.0  0.69868  0.37416  0.21935  1.0000
  H   H331      1.0  0.69600  0.22776  0.28232  1.0000
  N   N18       1.0  0.67183  0.37514  0.20381  1.0000
  S   S86       1.0  0.48194  0.35656  0.27326  1.0000
  H   H332      1.0  0.76590  0.99075  0.02137  1.0000
  H   H333      1.0  0.88727  0.23490  0.09874  1.0000
  C   C289      1.0  0.86463  0.02634  0.00239  1.0000
  C   C290      1.0  0.66414  0.30215  0.16464  1.0000
  C   C291      1.0  0.85940  0.16623  0.13600  1.0000
  C   C292      1.0  0.82401  0.14528  0.13011  1.0000
  C   C293      1.0  0.79793  0.14841  0.14192  1.0000
  C   C294      1.0  0.80668  0.17216  0.15994  1.0000
  C   C295      1.0  0.84200  0.19222  0.16634  1.0000
  C   C296      1.0  0.86814  0.18954  0.15429  1.0000
  H   H334      1.0  0.81677  0.12732  0.11608  1.0000
  H   H335      1.0  0.77074  0.13257  0.13686  1.0000
  H   H336      1.0  0.84924  0.21004  0.18038  1.0000
  H   H337      1.0  0.89538  0.20588  0.15902  1.0000
  S   S87       1.0  0.49481  0.35204  0.20666  1.0000
  N   N19       1.0  0.82930  0.44369  0.30067  1.0000
  S   S88       1.0  0.48347  0.28163  0.23657  1.0000
  H   H338      1.0  0.54664  0.47605  0.27616  1.0000
  C   C297      1.0  0.84193  0.46202  0.27859  1.0000
  C   C298      1.0  0.80478  0.40515  0.29863  1.0000
  C   C299      1.0  0.79377  0.38782  0.27748  1.0000
  C   C300      1.0  0.84867  0.04727  0.99757  1.0000
  C   C301      1.0  0.77068  0.35135  0.27620  1.0000
  C   C302      1.0  0.58438  0.15871  0.29581  1.0000
  C   C303      1.0  0.51295  0.38515  0.29329  1.0000
  H   H339      1.0  0.58599  0.35963  0.31070  1.0000
  H   H340      1.0  0.78712  0.45599  0.30283  1.0000
  C   C304      1.0  0.65751  0.47327  0.19073  1.0000
  H   H341      1.0  0.61692  0.25458  0.32249  1.0000
  H   H342      1.0  0.65605  0.47424  0.17250  1.0000
  H   H343      1.0  0.51373  0.42420  0.22110  1.0000
  H   H344      1.0  0.93017  0.16281  0.01289  1.0000
  C   C305      1.0  0.69981  0.17401  0.32397  1.0000
  Fe  Fe42      1.0  0.48276  0.29587  0.19960  1.0000
  H   H345      1.0  0.80267  0.40172  0.26161  1.0000
  C   C306      1.0  0.81170  0.46104  0.31199  1.0000
  H   H346      1.0  0.76331  0.33866  0.25987  1.0000
  H   H347      1.0  0.59592  0.14762  0.30763  1.0000
  H   H348      1.0  0.68887  0.34751  0.22750  1.0000
  N   N20       1.0  0.85915  0.30394  0.16305  1.0000
  C   C307      1.0  0.83116  0.31252  0.15582  1.0000
  C   C308      1.0  0.84686  0.27911  0.18259  1.0000
  C   C309      1.0  0.88956  0.33749  0.17091  1.0000
  C   C310      1.0  0.86728  0.28682  0.14447  1.0000
  C   C311      1.0  0.84021  0.25600  0.13408  1.0000
  C   C312      1.0  0.90199  0.29860  0.13708  1.0000
  C   C313      1.0  0.55339  0.18963  0.26810  1.0000
  H   H349      1.0  0.67585  0.28515  0.16259  1.0000
  H   H350      1.0  0.87399  0.43587  0.30687  1.0000
  H   H351      1.0  0.80601  0.28848  0.15174  1.0000
  H   H352      1.0  0.82516  0.32630  0.16933  1.0000
  H   H353      1.0  0.83891  0.33005  0.14057  1.0000
  H   H354      1.0  0.82296  0.25377  0.17842  1.0000
  H   H355      1.0  0.84050  0.29084  0.19708  1.0000
  H   H356      1.0  0.86716  0.27200  0.18853  1.0000
  H   H357      1.0  0.88203  0.35000  0.18446  1.0000
  H   H358      1.0  0.91068  0.33280  0.17841  1.0000
  H   H359      1.0  0.90042  0.35733  0.15692  1.0000
  H   H360      1.0  0.81336  0.24429  0.13949  1.0000
  H   H361      1.0  0.92435  0.32142  0.14413  1.0000
  H   H362      1.0  0.82645  0.21386  0.11040  1.0000
  S   S89       1.0  0.89651  0.01203  0.11376  1.0000
  H   H363      1.0  0.63167  0.10953  0.26929  1.0000
  Fe  Fe43      1.0  0.94994  0.12151  0.06621  1.0000
  C   C314      1.0  0.56509  0.33500  0.30282  1.0000
  H   H364      1.0  0.85695  0.36168  0.28184  1.0000
  H   H365      1.0  0.70629  0.39396  0.23303  1.0000
  C   C315      1.0  0.57270  0.42703  0.30452  1.0000
  H   H366      1.0  0.69671  0.43228  0.20656  1.0000
  H   H367      1.0  0.59822  0.10216  0.28887  1.0000
  C   C316      1.0  0.84485  0.34200  0.29513  1.0000
  H   H368      1.0  0.62815  0.34134  0.22458  1.0000
  H   H369      1.0  0.87225  0.02383  0.01951  1.0000
  N   N21       1.0  0.60308  0.13806  0.26135  1.0000
  C   C317      1.0  0.57688  0.10863  0.24733  1.0000
  C   C318      1.0  0.63163  0.16322  0.24662  1.0000
  C   C319      1.0  0.58617  0.15658  0.27203  1.0000
  C   C320      1.0  0.57033  0.17281  0.25847  1.0000
  H   H370      1.0  0.63895  0.14339  0.28866  1.0000
  C   C321      1.0  0.50189  0.38777  0.31481  1.0000
  H   H371      1.0  0.56652  0.11837  0.23309  1.0000
  H   H372      1.0  0.58838  0.09328  0.23963  1.0000
  H   H373      1.0  0.55419  0.08985  0.25759  1.0000
  H   H374      1.0  0.62195  0.17344  0.23228  1.0000
  H   H375      1.0  0.64572  0.15047  0.23896  1.0000
  H   H376      1.0  0.65120  0.18656  0.25624  1.0000
  H   H377      1.0  0.60018  0.31718  0.14180  1.0000
  C   C322      1.0  0.54845  0.40518  0.28819  1.0000
  C   C323      1.0  0.61850  0.12260  0.27782  1.0000
  C   C324      1.0  0.76755  0.34732  0.31676  1.0000
  H   H378      1.0  0.85609  0.45080  0.26927  1.0000
  H   H379      1.0  0.53936  0.20473  0.29881  1.0000
  H   H380      1.0  0.72324  0.38116  0.21036  1.0000
  C   C325      1.0  0.67565  0.32661  0.18218  1.0000
  H   H381      1.0  0.82007  0.46068  0.26774  1.0000
  H   H382      1.0  0.81294  0.30056  0.27204  1.0000
  C   C326      1.0  0.86054  0.44937  0.31440  1.0000
  H   H383      1.0  0.95929  0.19596  0.99347  1.0000
  C   C327      1.0  0.68712  0.41120  0.19356  1.0000
  H   H384      1.0  0.62162  0.37299  0.20792  1.0000
  C   C328      1.0  0.64153  0.36896  0.21767  1.0000
  H   H385      1.0  0.70977  0.41664  0.18279  1.0000
  H   H386      1.0  0.50526  0.47815  0.21879  1.0000
  H   H387      1.0  0.64956  0.38756  0.23207  1.0000
  C   C329      1.0  0.66775  0.21527  0.31345  1.0000
  H   H388      1.0  0.69643  0.32740  0.19289  1.0000
  H   H389      1.0  0.66787  0.41477  0.18266  1.0000
  H   H390      1.0  0.57110  0.17289  0.24026  1.0000
  H   H391      1.0  0.57988  0.27490  0.30257  1.0000
  H   H392      1.0  0.72227  0.99955  0.99865  1.0000
  C   C330      1.0  0.66017  0.34861  0.18563  1.0000
  C   C331      1.0  0.90890  0.28022  0.12055  1.0000
  H   H393      1.0  0.87993  0.47811  0.31581  1.0000
  H   H394      1.0  0.50207  0.25428  0.32069  1.0000
  H   H395      1.0  0.60001  0.44242  0.30028  1.0000
  C   C332      1.0  0.63293  0.34476  0.17033  1.0000
  C   C333      1.0  0.75749  0.33114  0.29578  1.0000
  C   C334      1.0  0.84741  0.23815  0.11741  1.0000
  H   H396      1.0  0.55393  0.42822  0.23266  1.0000
  C   C335      1.0  0.62138  0.31992  0.15303  1.0000
  C   C336      1.0  0.82004  0.30747  0.28961  1.0000
  C   C337      1.0  0.55221  0.19135  0.29143  1.0000
  C   C338      1.0  0.56774  0.17602  0.30525  1.0000
  H   H397      1.0  0.62776  0.27916  0.13692  1.0000
  C   C339      1.0  0.94008  0.10947  0.99708  1.0000
  H   H398      1.0  0.52246  0.43044  0.25056  1.0000
  H   H399      1.0  0.62033  0.36103  0.17159  1.0000
  C   C340      1.0  0.79086  0.38372  0.31824  1.0000
  C   C341      1.0  0.63693  0.29863  0.15021  1.0000
  H   H400      1.0  0.65498  0.23087  0.30913  1.0000
  H   H401      1.0  0.54154  0.20188  0.25736  1.0000
  H   H402      1.0  0.91823  0.10016  0.00919  1.0000
  C   C342      1.0  0.51632  0.27656  0.30856  1.0000
  H   H403      1.0  0.54759  0.34222  0.29265  1.0000
  H   H404      1.0  0.57770  0.32571  0.29060  1.0000
  H   H405      1.0  0.93559  0.28887  0.11559  1.0000
  H   H406      1.0  0.78422  0.25588  0.30132  1.0000
  C   C343      1.0  0.66151  0.47156  0.23774  1.0000
  C   C344      1.0  0.58437  0.27974  0.32048  1.0000
  H   H407      1.0  0.66264  0.47115  0.25597  1.0000
  H   H408      1.0  0.49688  0.28336  0.30043  1.0000
  N   N22       1.0  0.54515  0.30763  0.32009  1.0000
  H   H409      1.0  0.52585  0.26663  0.29470  1.0000
  C   C345      1.0  0.95297  0.17018  0.00185  1.0000
  H   H410      1.0  0.95835  0.02531  0.13588  1.0000
  H   H411      1.0  0.96329  0.11325  0.00732  1.0000
  C   C346      1.0  0.80403  0.28189  0.30657  1.0000
  H   H412      1.0  0.58360  0.47447  0.20332  1.0000
  H   H413      1.0  0.54295  0.47062  0.19398  1.0000
  N   N23       1.0  0.55250  0.47745  0.23001  1.0000
  H   H414      1.0  0.87564  0.98502  0.06814  1.0000
  H   H415      1.0  0.56710  0.17764  0.32345  1.0000
  C   C347      1.0  0.85355  0.35115  0.31769  1.0000
  H   H416      1.0  0.87251  0.37815  0.32207  1.0000
  C   C348      1.0  0.75976  0.98123  0.00419  1.0000
  Fe  Fe44      1.0  0.86207  0.45278  0.39726  1.0000
  S   S90       1.0  0.84163  0.40297  0.37656  1.0000
  H   H417      1.0  0.71387  0.41716  0.45161  1.0000
  S   S91       1.0  0.56990  0.43117  0.44791  1.0000
  H   H418      1.0  0.66960  0.32704  0.44575  1.0000
  Fe  Fe45      1.0  0.58013  0.44915  0.38276  1.0000
  Fe  Fe46      1.0  0.54516  0.45692  0.42583  1.0000
  Fe  Fe47      1.0  0.55734  0.39285  0.41913  1.0000
  S   S92       1.0  0.53535  0.33338  0.41669  1.0000
  C   C349      1.0  0.47237  0.47671  0.49728  1.0000
  S   S93       1.0  0.60860  0.42513  0.40199  1.0000
  Fe  Fe48      1.0  0.69829  0.22303  0.42362  1.0000
  S   S94       1.0  0.66695  0.24588  0.40702  1.0000
  S   S95       1.0  0.75701  0.25607  0.42823  1.0000
  Fe  Fe49      1.0  0.63248  0.15077  0.43395  1.0000
  S   S96       1.0  0.59655  0.16896  0.41706  1.0000
  S   S97       1.0  0.61982  0.09842  0.45277  1.0000
  Fe  Fe50      1.0  0.63800  0.19293  0.39020  1.0000
  S   S98       1.0  0.63028  0.19812  0.35253  1.0000
  Fe  Fe51      1.0  0.62947  0.22058  0.43514  1.0000
  S   S99       1.0  0.61518  0.25371  0.45720  1.0000
  S   S100      1.0  0.67149  0.17111  0.40550  1.0000
  S   S101      1.0  0.66312  0.20136  0.45331  1.0000
  C   C350      1.0  0.58491  0.06257  0.46770  1.0000
  C   C351      1.0  0.59145  0.03706  0.47899  1.0000
  C   C352      1.0  0.56535  0.00919  0.49190  1.0000
  C   C353      1.0  0.52625  0.40955  0.33125  1.0000
  H   H419      1.0  0.84559  0.33494  0.35186  1.0000
  C   C354      1.0  0.55142  0.05922  0.46910  1.0000
  H   H420      1.0  0.61706  0.03902  0.47793  1.0000
  C   C355      1.0  0.57730  0.30310  0.35559  1.0000
  H   H421      1.0  0.54544  0.07779  0.46009  1.0000
  C   C356      1.0  0.83791  0.32570  0.33479  1.0000
  S   S102      1.0  0.78905  0.45794  0.45583  1.0000
  C   C357      1.0  0.60597  0.26837  0.33162  1.0000
  C   C358      1.0  0.52547  0.03164  0.48225  1.0000
  H   H422      1.0  0.67188  0.16183  0.35524  1.0000
  H   H423      1.0  0.66757  0.43469  0.44672  1.0000
  C   C359      1.0  0.79399  0.22819  0.34114  1.0000
  C   C360      1.0  0.55962  0.31296  0.42719  1.0000
  C   C361      1.0  0.58290  0.32690  0.44552  1.0000
  C   C362      1.0  0.59964  0.30838  0.45467  1.0000
  C   C363      1.0  0.59451  0.27675  0.44490  1.0000
  C   C364      1.0  0.57216  0.26344  0.42611  1.0000
  C   C365      1.0  0.55419  0.28111  0.41761  1.0000
  H   H424      1.0  0.58690  0.35120  0.45318  1.0000
  H   H425      1.0  0.61660  0.31865  0.46937  1.0000
  H   H426      1.0  0.56775  0.23889  0.41862  1.0000
  H   H427      1.0  0.53588  0.26999  0.40360  1.0000
  H   H428      1.0  0.61102  0.12185  0.50465  1.0000
  C   C366      1.0  0.81714  0.36390  0.39241  1.0000
  C   C367      1.0  0.78191  0.34134  0.38670  1.0000
  C   C368      1.0  0.76287  0.30867  0.39806  1.0000
  C   C369      1.0  0.77922  0.29795  0.41479  1.0000
  C   C370      1.0  0.81446  0.32060  0.42049  1.0000
  C   C371      1.0  0.83326  0.35366  0.40952  1.0000
  H   H429      1.0  0.76932  0.34912  0.37349  1.0000
  H   H430      1.0  0.73591  0.29136  0.39333  1.0000
  H   H431      1.0  0.82734  0.31252  0.43339  1.0000
  H   H432      1.0  0.86056  0.37081  0.41388  1.0000
  C   C372      1.0  0.69485  0.45482  0.44738  1.0000
  H   H433      1.0  0.53694  0.03797  0.54564  1.0000
  C   C373      1.0  0.73151  0.39053  0.40035  1.0000
  H   H434      1.0  0.64528  0.34324  0.41295  1.0000
  N   N24       1.0  0.73821  0.34828  0.45659  1.0000
  S   S103      1.0  0.52812  0.41544  0.39862  1.0000
  H   H435      1.0  0.68422  0.38327  0.38335  1.0000
  H   H436      1.0  0.49359  0.44895  0.47854  1.0000
  H   H437      1.0  0.78366  0.20811  0.35507  1.0000
  H   H438      1.0  0.79059  0.39294  0.45714  1.0000
  C   C374      1.0  0.67736  0.17657  0.33949  1.0000
  H   H439      1.0  0.49997  0.02986  0.48353  1.0000
  N   N25       1.0  0.57680  0.16143  0.49997  1.0000
  C   C375      1.0  0.61347  0.18814  0.50571  1.0000
  C   C376      1.0  0.57455  0.15281  0.47577  1.0000
  C   C377      1.0  0.55457  0.17840  0.50334  1.0000
  C   C378      1.0  0.56614  0.12853  0.51352  1.0000
  C   C379      1.0  0.53394  0.11121  0.52520  1.0000
  H   H440      1.0  0.82028  0.23208  0.33674  1.0000
  H   H441      1.0  0.60519  0.29654  0.38432  1.0000
  H   H442      1.0  0.49878  0.06565  0.54508  1.0000
  H   H443      1.0  0.57111  0.99019  0.50066  1.0000
  H   H444      1.0  0.61685  0.19334  0.52414  1.0000
  H   H445      1.0  0.63272  0.17974  0.50072  1.0000
  H   H446      1.0  0.62144  0.21390  0.49671  1.0000
  H   H447      1.0  0.59219  0.14187  0.47161  1.0000
  H   H448      1.0  0.58189  0.17669  0.46487  1.0000
  H   H449      1.0  0.54750  0.13256  0.47079  1.0000
  H   H450      1.0  0.55428  0.18462  0.52140  1.0000
  H   H451      1.0  0.56431  0.20387  0.49360  1.0000
  H   H452      1.0  0.52721  0.16137  0.49717  1.0000
  H   H453      1.0  0.51566  0.12139  0.52518  1.0000
  C   C380      1.0  0.77689  0.36341  0.45670  1.0000
  C   C381      1.0  0.61329  0.27433  0.35458  1.0000
  H   H454      1.0  0.51741  0.41148  0.34775  1.0000
  C   C382      1.0  0.57721  0.07996  0.52626  1.0000
  N   N26       1.0  0.79584  0.26234  0.34742  1.0000
  C   C383      1.0  0.75981  0.25656  0.35013  1.0000
  C   C384      1.0  0.72422  0.35849  0.43637  1.0000
  C   C385      1.0  0.81423  0.27230  0.36969  1.0000
  H   H455      1.0  0.77598  0.21535  0.32660  1.0000
  C   C386      1.0  0.52388  0.07913  0.53687  1.0000
  C   C387      1.0  0.54545  0.06355  0.53738  1.0000
  H   H456      1.0  0.62974  0.26510  0.36321  1.0000
  C   C388      1.0  0.68757  0.34480  0.43338  1.0000
  C   C389      1.0  0.59930  0.29194  0.36646  1.0000
  C   C390      1.0  0.58728  0.11167  0.51425  1.0000
  H   H457      1.0  0.74537  0.23586  0.36323  1.0000
  H   H458      1.0  0.76004  0.28135  0.35522  1.0000
  H   H459      1.0  0.85395  0.43935  0.33204  1.0000
  H   H460      1.0  0.70035  0.34913  0.47907  1.0000
  H   H461      1.0  0.75749  0.33154  0.33198  1.0000
  H   H462      1.0  0.84199  0.27832  0.36853  1.0000
  H   H463      1.0  0.81374  0.29565  0.37677  1.0000
  H   H464      1.0  0.80138  0.25083  0.38262  1.0000
  H   H465      1.0  0.51021  0.32910  0.32556  1.0000
  C   C391      1.0  0.69534  0.37652  0.39798  1.0000
  C   C392      1.0  0.72246  0.30901  0.45786  1.0000
  C   C393      1.0  0.67342  0.35384  0.41455  1.0000
  H   H466      1.0  0.56711  0.31624  0.36598  1.0000
  H   H467      1.0  0.73484  0.30015  0.47138  1.0000
  H   H468      1.0  0.78662  0.35448  0.47169  1.0000
  H   H469      1.0  0.74045  0.39021  0.47674  1.0000
  C   C394      1.0  0.53222  0.00651  0.49389  1.0000
  S   S104      1.0  0.59287  0.45878  0.34563  1.0000
  H   H470      1.0  0.73943  0.35375  0.49269  1.0000
  H   H471      1.0  0.78553  0.35522  0.44163  1.0000
  C   C395      1.0  0.72911  0.36077  0.47715  1.0000
  C   C396      1.0  0.81320  0.28987  0.32970  1.0000
  S   S105      1.0  0.87328  0.45905  0.43448  1.0000
  C   C397      1.0  0.74592  0.38196  0.41929  1.0000
  H   H472      1.0  0.69397  0.29559  0.46135  1.0000
  C   C398      1.0  0.56880  0.29688  0.33220  1.0000
  H   H473      1.0  0.74871  0.40832  0.38755  1.0000
  H   H474      1.0  0.77416  0.39428  0.42024  1.0000
  C   C399      1.0  0.75667  0.47078  0.45079  1.0000
  H   H475      1.0  0.68512  0.45775  0.38325  1.0000
  H   H476      1.0  0.59323  0.06697  0.52592  1.0000
  H   H477      1.0  0.72559  0.29835  0.44171  1.0000
  H   H478      1.0  0.71926  0.47102  0.40410  1.0000
  H   H479      1.0  0.54864  0.34780  0.34296  1.0000
  C   C400      1.0  0.66095  0.19693  0.33421  1.0000
  H   H480      1.0  0.80505  0.45170  0.32974  1.0000
  C   C401      1.0  0.72115  0.44492  0.45008  1.0000
  H   H481      1.0  0.51352  0.30339  0.34865  1.0000
  H   H482      1.0  0.79810  0.39496  0.33492  1.0000
  C   C402      1.0  0.52880  0.32255  0.33505  1.0000
  Fe  Fe52      1.0  0.61893  0.46530  0.42850  1.0000
  H   H483      1.0  0.74427  0.24792  0.33417  1.0000
  H   H484      1.0  0.72398  0.45474  0.37768  1.0000
  C   C403      1.0  0.56174  0.42944  0.32608  1.0000
  C   C404      1.0  0.48918  0.47163  0.47879  1.0000
  C   C405      1.0  0.71406  0.47120  0.38567  1.0000
  H   H485      1.0  0.71173  0.15749  0.32801  1.0000
  S   S106      1.0  0.82339  0.47263  0.39741  1.0000
  N   N27       1.0  0.96529  0.07307  0.81272  1.0000
  S   S107      1.0  0.82180  0.01396  0.88955  1.0000
  H   H486      1.0  0.96375  0.06851  0.84884  1.0000
  H   H487      1.0  0.96053  0.00688  0.81261  1.0000
  Fe  Fe53      1.0  0.86621  0.04032  0.86540  1.0000
  S   S108      1.0  0.88620  0.09703  0.85403  1.0000
  H   H488      1.0  0.93331  0.02886  0.83462  1.0000
  S   S109      1.0  0.89942  0.02020  0.88270  1.0000
  N   N28       1.0  0.94549  0.14232  0.98502  1.0000
  C   C406      1.0  0.92944  0.13204  0.85724  1.0000
  H   H489      1.0  0.91585  0.16857  0.84018  1.0000
  C   C407      1.0  0.93663  0.16516  0.84827  1.0000
  H   H490      1.0  0.93370  0.08756  0.98509  1.0000
  C   C408      1.0  0.84343  0.03087  0.95792  1.0000
  H   H491      1.0  0.90406  0.11275  0.96085  1.0000
  H   H492      1.0  0.72449  0.98888  0.92330  1.0000
  H   H493      1.0  0.83505  0.03261  0.94084  1.0000
  H   H494      1.0  0.91914  0.06409  0.79331  1.0000
  H   H495      1.0  0.95101  0.10269  0.87529  1.0000
  C   C409      1.0  0.95657  0.12799  0.86783  1.0000
  H   H496      1.0  0.94025  0.99745  0.95793  1.0000
  C   C410      1.0  0.85901  0.00962  0.96287  1.0000
  C   C411      1.0  0.83792  0.04930  0.97528  1.0000
  H   H497      1.0  0.82528  0.06519  0.97145  1.0000
  H   H498      1.0  0.95462  0.11729  0.81343  1.0000
  Fe  Fe54      1.0  0.85332  0.99008  0.90504  1.0000
  C   C412      1.0  0.91186  0.13427  0.97339  1.0000
  H   H499      1.0  0.88141  0.99086  0.98913  1.0000
  H   H500      1.0  0.94800  0.15460  0.93787  1.0000
  S   S110      1.0  0.84168  0.99644  0.84008  1.0000
  H   H501      1.0  0.95437  0.06598  0.77706  1.0000
  H   H502      1.0  0.77078  0.00442  0.92414  1.0000
  C   C413      1.0  0.96094  0.00752  0.94565  1.0000
  H   H503      1.0  0.92451  0.06497  0.83566  1.0000
  H   H504      1.0  0.64867  0.01724  0.71093  1.0000
  C   C414      1.0  0.94600  0.05825  0.83388  1.0000
  C   C415      1.0  0.96240  0.03192  0.92929  1.0000
  C   C416      1.0  0.94059  0.05698  0.79340  1.0000
  C   C417      1.0  0.86965  0.00751  0.98513  1.0000
  H   H505      1.0  0.92744  0.02744  0.79391  1.0000
  H   H506      1.0  0.88993  0.12477  0.98552  1.0000
  H   H507      1.0  0.94279  0.04062  0.92906  1.0000
  S   S111      1.0  0.86435  0.98409  0.94203  1.0000
  H   H508      1.0  0.58498  0.99273  0.72028  1.0000
  H   H509      1.0  0.91319  0.15820  0.96485  1.0000
  C   C418      1.0  0.64503  0.99060  0.71608  1.0000
  H   H510      1.0  0.65001  0.99082  0.73464  1.0000
  H   H511      1.0  0.66594  0.98713  0.70814  1.0000
  C   C419      1.0  0.73541  0.98643  0.99127  1.0000
  C   C420      1.0  0.74484  0.98100  0.92045  1.0000
  C   C421      1.0  0.92005  0.64776  0.21860  1.0000
  H   H512      1.0  0.86948  0.78652  0.10660  1.0000
  S   S112      1.0  0.89389  0.88113  0.06548  1.0000
  N   N29       1.0  0.84377  0.80708  0.12767  1.0000
  H   H513      1.0  0.79323  0.77352  0.14181  1.0000
  Fe  Fe55      1.0  0.77769  0.54399  0.22430  1.0000
  S   S113      1.0  0.78361  0.53810  0.18749  1.0000
  S   S114      1.0  0.72634  0.53074  0.24030  1.0000
  Fe  Fe56      1.0  0.85068  0.55650  0.23617  1.0000
  S   S115      1.0  0.86166  0.55028  0.20024  1.0000
  S   S116      1.0  0.89234  0.56368  0.26223  1.0000
  Fe  Fe57      1.0  0.83769  0.58542  0.19143  1.0000
  S   S117      1.0  0.86335  0.62542  0.16224  1.0000
  Fe  Fe58      1.0  0.80725  0.50425  0.19947  1.0000
  S   S118      1.0  0.82973  0.59417  0.22777  1.0000
  C   C422      1.0  0.52619  0.48971  0.23208  1.0000
  H   H514      1.0  0.85568  0.90918  0.16324  1.0000
  C   C423      1.0  0.88503  0.96901  0.07716  1.0000
  C   C424      1.0  0.77673  0.96438  0.99487  1.0000
  H   H515      1.0  0.91644  0.91013  0.11003  1.0000
  C   C425      1.0  0.85541  0.56958  0.29738  1.0000
  C   C426      1.0  0.88176  0.56220  0.29087  1.0000
  C   C427      1.0  0.90007  0.55341  0.30742  1.0000
  H   H516      1.0  0.84145  0.57679  0.28478  1.0000
  H   H517      1.0  0.92347  0.66851  0.23073  1.0000
  H   H518      1.0  0.80932  0.88689  0.09704  1.0000
  C   C428      1.0  0.91101  0.72176  0.12968  1.0000
  C   C429      1.0  0.89432  0.68501  0.13483  1.0000
  C   C430      1.0  0.88272  0.67212  0.15676  1.0000
  C   C431      1.0  0.88773  0.69664  0.17350  1.0000
  H   H519      1.0  0.84973  0.79900  0.16333  1.0000
  H   H520      1.0  0.53871  0.51917  0.23059  1.0000
  H   H521      1.0  0.89060  0.66638  0.12172  1.0000
  H   H522      1.0  0.87888  0.68736  0.19040  1.0000
  H   H523      1.0  0.90209  0.94211  0.00694  1.0000
  H   H524      1.0  0.81051  0.75037  0.12601  1.0000
  C   C432      1.0  0.83132  0.90079  0.13044  1.0000
  C   C433      1.0  0.90837  0.92680  0.10063  1.0000
  C   C434      1.0  0.89606  0.91855  0.07840  1.0000
  H   H525      1.0  0.87432  0.93311  0.04958  1.0000
  H   H526      1.0  0.89997  0.64573  0.20583  1.0000
  H   H527      1.0  0.70886  0.51913  0.19271  1.0000
  H   H528      1.0  0.70902  0.50378  0.28602  1.0000
  C   C435      1.0  0.88421  0.93959  0.06670  1.0000
  C   C436      1.0  0.84660  0.89203  0.14869  1.0000
  H   H529      1.0  0.86639  0.77821  0.14549  1.0000
  C   C437      1.0  0.80864  0.77529  0.12671  1.0000
  H   H530      1.0  0.82902  0.92482  0.13070  1.0000
  C   C438      1.0  0.71355  0.50402  0.30410  1.0000
  H   H531      1.0  0.86334  0.85695  0.16270  1.0000
  C   C439      1.0  0.61679  0.51606  0.24127  1.0000
  C   C440      1.0  0.85092  0.86184  0.14808  1.0000
  C   C441      1.0  0.90824  0.95547  0.11126  1.0000
  S   S119      1.0  0.93972  0.79318  0.14150  1.0000
  C   C442      1.0  0.58095  0.49525  0.24705  1.0000
  H   H532      1.0  0.90898  0.75208  0.18159  1.0000
  C   C443      1.0  0.83988  0.83940  0.12895  1.0000
  H   H533      1.0  0.81561  0.83365  0.09548  1.0000
  H   H534      1.0  0.89050  0.82513  0.14853  1.0000
  H   H535      1.0  0.67011  0.54799  0.25306  1.0000
  H   H536      1.0  0.57768  0.51331  0.20210  1.0000
  H   H537      1.0  0.92449  0.61937  0.18072  1.0000
  H   H538      1.0  0.59277  0.50587  0.30450  1.0000
  H   H539      1.0  0.65455  0.54192  0.29330  1.0000
  H   H540      1.0  0.88770  0.83396  0.10599  1.0000
  C   C444      1.0  0.82422  0.84905  0.11072  1.0000
  C   C445      1.0  0.63419  0.52924  0.28052  1.0000
  C   C446      1.0  0.91669  0.74629  0.14652  1.0000
  C   C447      1.0  0.74740  0.51603  0.31270  1.0000
  H   H541      1.0  0.84774  0.80661  0.09123  1.0000
  C   C448      1.0  0.68562  0.49245  0.31876  1.0000
  H   H542      1.0  0.93837  0.92016  0.02708  1.0000
  H   H543      1.0  0.79320  0.77567  0.11156  1.0000
  S   S120      1.0  0.93222  0.81505  0.07561  1.0000
  S   S121      1.0  0.79836  0.50758  0.23600  1.0000
  C   C449      1.0  0.57313  0.49212  0.27035  1.0000
  C   C450      1.0  0.64285  0.53274  0.25785  1.0000
  C   C451      1.0  0.94600  0.62491  0.19328  1.0000
  N   N30       1.0  0.95317  0.65566  0.20761  1.0000
  H   H544      1.0  0.90902  0.62220  0.22825  1.0000
  H   H545      1.0  0.62565  0.51942  0.22412  1.0000
  C   C452      1.0  0.90467  0.73342  0.16839  1.0000
  C   C453      1.0  0.86338  0.80239  0.14718  1.0000
  H   H546      1.0  0.92008  0.73106  0.11280  1.0000
  C   C454      1.0  0.93274  0.91516  0.00919  1.0000
  C   C455      1.0  0.82020  0.87936  0.11148  1.0000
  C   C456      1.0  0.86284  0.80851  0.10701  1.0000
  H   H547      1.0  0.95479  0.83737  0.99233  1.0000
  H   H548      1.0  0.92075  0.54803  0.30251  1.0000
  H   H549      1.0  0.91657  0.96079  0.12873  1.0000
  C   C457      1.0  0.59939  0.50906  0.28676  1.0000
  Fe  Fe59      1.0  0.96039  0.82716  0.10925  1.0000
  C   C458      1.0  0.84802  0.56901  0.32035  1.0000
  Fe  Fe60      1.0  0.93673  0.86914  0.07718  1.0000
  H   H550      1.0  0.76906  0.52510  0.30117  1.0000
  C   C459      1.0  0.68760  0.49856  0.20215  1.0000
  H   H551      1.0  0.86072  0.49075  0.28064  1.0000
  C   C460      1.0  0.94530  0.89564  0.99775  1.0000
  C   C461      1.0  0.96647  0.68962  0.19483  1.0000
  H   H552      1.0  0.82874  0.49036  0.31278  1.0000
  C   C462      1.0  0.68965  0.49790  0.22570  1.0000
  H   H553      1.0  0.93733  0.60007  0.20347  1.0000
  C   C463      1.0  0.89677  0.97676  0.09956  1.0000
  H   H554      1.0  0.79586  0.96067  0.00497  1.0000
  H   H555      1.0  0.95994  0.66857  0.16054  1.0000
  S   S122      1.0  0.96117  0.87979  0.11163  1.0000
  C   C464      1.0  0.56486  0.48448  0.20639  1.0000
  H   H556      1.0  0.65922  0.48299  0.31211  1.0000
  H   H557      1.0  0.96116  0.88672  0.00733  1.0000
  C   C465      1.0  0.91220  0.92747  0.99787  1.0000
  H   H558      1.0  0.51257  0.48175  0.24848  1.0000
  H   H559      1.0  0.51211  0.80225  0.54569  1.0000
  H   H560      1.0  0.79301  0.52677  0.44995  1.0000
  H   H561      1.0  0.49657  0.78962  0.58787  1.0000
  H   H562      1.0  0.68653  0.51415  0.38504  1.0000
  C   C466      1.0  0.76573  0.50665  0.44901  1.0000
  Fe  Fe61      1.0  0.91584  0.51489  0.42623  1.0000
  Fe  Fe62      1.0  0.86861  0.52649  0.39122  1.0000
  S   S123      1.0  0.85477  0.55792  0.36548  1.0000
  N   N31       1.0  0.73126  0.50780  0.37622  1.0000
  S   S124      1.0  0.87972  0.53896  0.42830  1.0000
  Fe  Fe63      1.0  0.49069  0.92274  0.53029  1.0000
  H   H563      1.0  0.47212  0.55247  0.47991  1.0000
  S   S125      1.0  0.90700  0.50618  0.38837  1.0000
  H   H564      1.0  0.51639  0.75354  0.56658  1.0000
  C   C467      1.0  0.70396  0.49076  0.44613  1.0000
  C   C468      1.0  0.49914  0.49525  0.46040  1.0000
  Fe  Fe64      1.0  0.50926  0.88699  0.56988  1.0000
  S   S126      1.0  0.54565  0.88784  0.59827  1.0000
  C   C469      1.0  0.55056  0.87372  0.64311  1.0000
  S   S127      1.0  0.52692  0.89899  0.53376  1.0000
  H   H565      1.0  0.62223  0.54992  0.44179  1.0000
  S   S128      1.0  0.47642  0.91432  0.56735  1.0000
  C   C470      1.0  0.55661  0.58962  0.51770  1.0000
  H   H566      1.0  0.77223  0.52680  0.40201  1.0000
  C   C471      1.0  0.59237  0.56353  0.49117  1.0000
  H   H567      1.0  0.66888  0.48390  0.35272  1.0000
  C   C472      1.0  0.53236  0.88261  0.62652  1.0000
  C   C473      1.0  0.50488  0.88835  0.63285  1.0000
  H   H568      1.0  0.57178  0.86915  0.63825  1.0000
  H   H569      1.0  0.49082  0.89535  0.62019  1.0000
  C   C474      1.0  0.75355  0.51694  0.33602  1.0000
  C   C475      1.0  0.86569  0.55938  0.33689  1.0000
  H   H570      1.0  0.51898  0.77876  0.61003  1.0000
  C   C476      1.0  0.50021  0.74774  0.55148  1.0000
  H   H571      1.0  0.56927  0.49741  0.47206  1.0000
  H   H572      1.0  0.90576  0.54442  0.34297  1.0000
  C   C477      1.0  0.89160  0.55131  0.33033  1.0000
  C   C478      1.0  0.49782  0.77528  0.53968  1.0000
  C   C479      1.0  0.72574  0.50628  0.35145  1.0000
  C   C480      1.0  0.56979  0.96887  0.65255  1.0000
  H   H573      1.0  0.59169  0.64087  0.50382  1.0000
  H   H574      1.0  0.58183  0.54990  0.44714  1.0000
  C   C481      1.0  0.58422  0.61287  0.50425  1.0000
  S   S129      1.0  0.49915  0.97411  0.51173  1.0000
  H   H575      1.0  0.54247  0.59936  0.52756  1.0000
  N   N32       1.0  0.61137  0.55073  0.47699  1.0000
  H   H576      1.0  0.62296  0.58973  0.45010  1.0000
  S   S130      1.0  0.48209  0.67824  0.56034  1.0000
  H   H577      1.0  0.74664  0.54447  0.44636  1.0000
  C   C482      1.0  0.60204  0.60017  0.49127  1.0000
  C   C483      1.0  0.59709  0.51162  0.47805  1.0000
  H   H578      1.0  0.59896  0.50221  0.49540  1.0000
  C   C484      1.0  0.69148  0.49332  0.34207  1.0000
  H   H579      1.0  0.50026  0.54281  0.44694  1.0000
  C   C485      1.0  0.71563  0.52813  0.38628  1.0000
  C   C486      1.0  0.56428  0.54060  0.50528  1.0000
  H   H580      1.0  0.66233  0.59662  0.48220  1.0000
  H   H581      1.0  0.52517  0.53568  0.52877  1.0000
  Fe  Fe65      1.0  0.83694  0.48262  0.43392  1.0000
  H   H582      1.0  0.72549  0.55467  0.37800  1.0000
  H   H583      1.0  0.47521  0.71659  0.60478  1.0000
  H   H584      1.0  0.62332  0.61925  0.48116  1.0000
  H   H585      1.0  0.78362  0.55265  0.37655  1.0000
  C   C487      1.0  0.49274  0.52436  0.46105  1.0000
  C   C488      1.0  0.47638  0.52972  0.47967  1.0000
  S   S131      1.0  0.67183  0.50432  0.44297  1.0000
  C   C489      1.0  0.60955  0.56060  0.45303  1.0000
  C   C490      1.0  0.73943  0.51661  0.44712  1.0000
  H   H586      1.0  0.66352  0.55734  0.47443  1.0000
  H   H587      1.0  0.72194  0.53260  0.40459  1.0000
  H   H588      1.0  0.78181  0.50975  0.37787  1.0000
  H   H589      1.0  0.50610  0.81194  0.61397  1.0000
  H   H590      1.0  0.55470  0.51232  0.50627  1.0000
  H   H591      1.0  0.65112  0.56122  0.50246  1.0000
  C   C491      1.0  0.48141  0.71266  0.54396  1.0000
  C   C492      1.0  0.49774  0.78563  0.60641  1.0000
  C   C493      1.0  0.54692  0.55369  0.51838  1.0000
  C   C494      1.0  0.64867  0.56729  0.48435  1.0000
  C   C495      1.0  0.59231  0.96555  0.63781  1.0000
  H   H592      1.0  0.58740  0.96497  0.61974  1.0000
  H   H593      1.0  0.61190  0.50299  0.46712  1.0000
  C   C496      1.0  0.76879  0.52502  0.38333  1.0000
  S   S132      1.0  0.59511  0.49253  0.40773  1.0000
  H   H594      1.0  0.95985  0.55342  0.48424  1.0000
  C   C497      1.0  0.47213  0.78345  0.65391  1.0000
  Fe  Fe66      1.0  0.47899  0.84681  0.52646  1.0000
  S   S133      1.0  0.51759  0.48868  0.43562  1.0000
  H   H595      1.0  0.47501  0.80807  0.64678  1.0000
  C   C498      1.0  0.47795  0.76810  0.51968  1.0000
  H   H596      1.0  0.54743  0.97089  0.64580  1.0000
  S   S134      1.0  0.47398  0.80204  0.50485  1.0000
  C   C499      1.0  0.49682  0.88689  0.65576  1.0000
  H   H597      1.0  0.78034  0.52639  0.34158  1.0000
  H   H598      1.0  0.82873  0.57636  0.32530  1.0000
  C   C500      1.0  0.62018  0.96136  0.64631  1.0000
  H   H599      1.0  0.63702  0.95785  0.63469  1.0000
  H   H600      1.0  0.94682  0.84055  0.93133  1.0000
  C   C501      1.0  0.90436  0.92058  0.97500  1.0000
  H   H601      1.0  0.61421  0.73744  0.75436  1.0000
  C   C502      1.0  0.93709  0.88730  0.97459  1.0000
  S   S135      1.0  0.82816  0.94187  0.88303  1.0000
  Fe  Fe67      1.0  0.57680  0.86439  0.76804  1.0000
  S   S136      1.0  0.56301  0.83782  0.73396  1.0000
  S   S137      1.0  0.63617  0.89771  0.77443  1.0000
  Fe  Fe68      1.0  0.49917  0.83561  0.77840  1.0000
  H   H602      1.0  0.47596  0.73583  0.78660  1.0000
  Fe  Fe69      1.0  0.52153  0.79089  0.75255  1.0000
  S   S138      1.0  0.50894  0.73494  0.74496  1.0000
  Fe  Fe70      1.0  0.52315  0.85654  0.73029  1.0000
  S   S139      1.0  0.50558  0.87928  0.70095  1.0000
  S   S140      1.0  0.53745  0.81560  0.78668  1.0000
  S   S141      1.0  0.53957  0.88677  0.76277  1.0000
  C   C503      1.0  0.47234  0.75063  0.68759  1.0000
  C   C504      1.0  0.72844  0.97537  0.96884  1.0000
  H   H603      1.0  0.78546  0.94194  0.96614  1.0000
  H   H604      1.0  0.55613  0.86458  0.67858  1.0000
  C   C505      1.0  0.76358  0.93725  0.92559  1.0000
  C   C506      1.0  0.70340  0.92095  0.93106  1.0000
  H   H605      1.0  0.91128  0.95228  0.88967  1.0000
  H   H606      1.0  0.58949  0.96562  0.74211  1.0000
  H   H607      1.0  0.70876  0.76628  0.80319  1.0000
  C   C507      1.0  0.67454  0.90583  0.83946  1.0000
  C   C508      1.0  0.65122  0.89706  0.82069  1.0000
  C   C509      1.0  0.66414  0.90822  0.79894  1.0000
  C   C510      1.0  0.70069  0.92820  0.79635  1.0000
  C   C511      1.0  0.60661  0.92734  0.71583  1.0000
  H   H608      1.0  0.66413  0.89700  0.85613  1.0000
  H   H609      1.0  0.62326  0.88177  0.82308  1.0000
  H   H610      1.0  0.55211  0.75068  0.78766  1.0000
  C   C512      1.0  0.74638  0.95948  0.95850  1.0000
  N   N33       1.0  0.60940  0.96224  0.70976  1.0000
  C   C513      1.0  0.93117  0.94773  0.88230  1.0000
  C   C514      1.0  0.93395  0.94807  0.85889  1.0000
  C   C515      1.0  0.95351  0.94047  0.89623  1.0000
  C   C516      1.0  0.72401  0.93701  0.81512  1.0000
  C   C517      1.0  0.71111  0.92593  0.83686  1.0000
  H   H611      1.0  0.90736  0.84047  0.93930  1.0000
  S   S142      1.0  0.48068  0.80709  0.74577  1.0000
  H   H612      1.0  0.73244  0.82469  0.82153  1.0000
  H   H613      1.0  0.58199  0.78322  0.75159  1.0000
  H   H614      1.0  0.58048  0.90546  0.71070  1.0000
  H   H615      1.0  0.61009  0.92462  0.73434  1.0000
  H   H616      1.0  0.71113  0.93697  0.77967  1.0000
  C   C518      1.0  0.77039  0.95370  0.97236  1.0000
  C   C519      1.0  0.57488  0.96784  0.67589  1.0000
  S   S143      1.0  0.73924  0.93564  0.86124  1.0000
  Fe  Fe71      1.0  0.79931  0.96778  0.86551  1.0000
  H   H617      1.0  0.79154  0.95777  0.92763  1.0000
  C   C520      1.0  0.91660  0.90088  0.96341  1.0000
  H   H618      1.0  0.69821  0.85673  0.82063  1.0000
  H   H619      1.0  0.64741  0.95672  0.67533  1.0000
  H   H620      1.0  0.95056  0.93943  0.91429  1.0000
  H   H621      1.0  0.75967  0.91231  0.93412  1.0000
  H   H622      1.0  0.96163  0.94164  0.83141  1.0000
  C   C521      1.0  0.54185  0.87130  0.66597  1.0000
  C   C522      1.0  0.95979  0.94198  0.84953  1.0000
  H   H623      1.0  0.75887  0.93118  0.90727  1.0000
  C   C523      1.0  0.47476  0.78122  0.67738  1.0000
  Fe  Fe72      1.0  0.87202  0.97415  0.85943  1.0000
  N   N34       1.0  0.60596  0.76846  0.77916  1.0000
  C   C524      1.0  0.57866  0.76201  0.79578  1.0000
  C   C525      1.0  0.60667  0.79432  0.76186  1.0000
  C   C526      1.0  0.59526  0.73438  0.76755  1.0000
  C   C527      1.0  0.64054  0.78309  0.79080  1.0000
  C   C528      1.0  0.66083  0.76523  0.79174  1.0000
  C   C529      1.0  0.65494  0.81639  0.80170  1.0000
  C   C530      1.0  0.69358  0.78019  0.80275  1.0000
  C   C531      1.0  0.68768  0.83109  0.81261  1.0000
  C   C532      1.0  0.70699  0.81306  0.81311  1.0000
  H   H624      1.0  0.58341  0.78677  0.80424  1.0000
  H   H625      1.0  0.59238  0.71301  0.77968  1.0000
  H   H626      1.0  0.57758  0.74300  0.80922  1.0000
  H   H627      1.0  0.60970  0.81913  0.76936  1.0000
  C   C533      1.0  0.51541  0.87862  0.67239  1.0000
  H   H628      1.0  0.62867  0.80204  0.75007  1.0000
  N   N35       1.0  0.73988  0.94977  0.93437  1.0000
  H   H629      1.0  0.62664  0.92281  0.70756  1.0000
  H   H630      1.0  0.55673  0.94510  0.72073  1.0000
  H   H631      1.0  0.65209  0.73977  0.78404  1.0000
  H   H632      1.0  0.64104  0.83149  0.80176  1.0000
  H   H633      1.0  0.69845  0.89705  0.94136  1.0000
  H   H634      1.0  0.74334  0.97563  0.90203  1.0000
  H   H635      1.0  0.90940  0.89648  0.94575  1.0000
  C   C534      1.0  0.46736  0.72218  0.67438  1.0000
  H   H636      1.0  0.55556  0.96914  0.68623  1.0000
  H   H637      1.0  0.56923  0.72443  0.75883  1.0000
  N   N36       1.0  0.95059  0.86640  0.96293  1.0000
  H   H638      1.0  0.75196  0.95236  0.81272  1.0000
  H   H639      1.0  0.68388  0.92911  0.93589  1.0000
  H   H640      1.0  0.69782  0.91283  0.91302  1.0000
  H   H641      1.0  0.88836  0.93030  0.96622  1.0000
  C   C535      1.0  0.60326  0.96381  0.68516  1.0000
  S   S144      1.0  0.90540  0.95619  0.84120  1.0000
  H   H642      1.0  0.47656  0.89294  0.66062  1.0000
  C   C536      1.0  0.93643  0.85650  0.93957  1.0000
  H   H643      1.0  0.47913  0.80350  0.68773  1.0000
  H   H644      1.0  0.94935  0.81558  0.96647  1.0000
  H   H645      1.0  0.91271  0.81739  0.97841  1.0000
  C   C537      1.0  0.47167  0.70236  0.75891  1.0000
  C   C538      1.0  0.58405  0.96674  0.72373  1.0000
  H   H646      1.0  0.94427  0.88024  0.92850  1.0000
  H   H647      1.0  0.47471  0.74909  0.70578  1.0000
  C   C539      1.0  0.62573  0.96058  0.66960  1.0000
  C   C540      1.0  0.94140  0.83286  0.97557  1.0000
  H   H648      1.0  0.70924  0.97988  0.95956  1.0000
