data_image0
_chemical_formula_structural       HNC3HFeS3FeS2CFeS2FeS2H2C2HSFeSC2SH5FeC6H4C6H4C5SHC2HCHCHCH2CFeC4H3NC9H18C3H2CH2CHCHSC6FeSHSHC2HCH2CHCNCSC2FeH2CNH2FeS2FeSHCSH2CFeH2FeS2FeSCH3CFeS3CHCH2C3HC2HCHC6H4C6H5CFeS2H2C3NSC2H2CH6CNC9H14C2H3CH3C2NH2CSHC2H2C3HCHSHC2HCNC2H2CH4FeSH2CH6CSC3SHFeH2FeS3FeSCSH2C3HFeS2FeS2FeS2FeSFeS3C6H4C2H6C2HC7H5NH3CH2CNC2H2CH3C4H3C2HSNC7H13CH2CH2CHCH2CH2C3H4C2H2FeH2NHCH2C2HSHCHCH2CHSHC4H2CHC2SFeS2FeS2FeS2FeSFeS3HCFe2SHCFeHCSCHCNSC3HC7H4C6H5C2HC2H4C2NC6H15CNC5HCH8CSHFeH2CH3CH5CSCH2FeC2H4CH4C2NH2C2HC2H4CHS2HCH2CH2CH3CFeS2FeSCFeS2FeSFeS3H3SHFeS2CHCSCH2CHC2FeH2C7FeHC6H4C2HC3HCH3C6H4C3H2C2SHSHNC9H2CH11C2H2NHC3FeSHCH2C2H3NHC2HC2HCH3CH4CH6CH4CH2CH3SNCHCS2H6C3HCH2NH2C2H2CH2CFeS2HSFeHFeSHS2FeS2FeSHFeSFeS3FeS2CHC6H4NC7H3C6H7C7H4NC3H3C2H3CH2CHC2SH4CH6C2H3SC2HCNH3C6SH2FeHCHCH6NHCH5C2HCH2FeH2C2HCHCH2CHCHC2HCH4FeCSNCH2C2FeSHFeS2FeSFeS4FeS3CSHFeS2C6HCH2C6HC6H4C2SC3HSH4C3HCH2C2H6FeCHNHCHNHC4FeH5CHSHCSCH2CHCH4CHNC9H12CH3CNC2HCHC2FeHSH3CSC2HCHFeC2HC2HC2H3C2HCHCHCH3CHCFeS2FeS2Fe2SFeHSHSCHS2FeHSH2SC2HC2H4CH2C4H2CSH2C3H3CH2C6H5C2HCSHSCH5C3H2CHCHFeH2CHNCH2NC2HCNC6H4CH2CHSH2CHCHC3HC3H3SC2FeC2HC2HC5H6SCNH2CSCH2CHCH2CH4CSCSHCFeH4C3H2FeS2CHFeCFeSHS2FeHSCHFeS2FeS2FeCFeHS2HC2H2C6H4C5NH3C6H4CHC6H5CHCHC3HCH2C2H2FeCH7CHSHSC4H2SNH2SC2H3SCNH3SH3S2HCHC2HCH4NC4HCH2CSHCHCH2C2H3CFeCH2CHCH2NH4CH3FeS2HCHNCFeS2FeS2FeSFeCS2FeNSHSFeS2C6H4C6H4SH2C6H4C2SHCHC3FeH2C3HCHC2H3CH3CH3CHCH11SCHCSCH3CHNCH6CH2CSHC2HCNC6HCH11CHCNH4CH2C6HFeHC3SFeH6C2HCH2CSFeHS2FeS2FeS2FeHFeS3FeS2FeS2C3H2C7H4C3HC6HCHC6H3C6H7CH3C2HCH4CHFeHNC8NH11CH2NCH2CHCNSCH2C2HCNHCHCH3CH2CH2CH2CH2CNHCHCH3C3HCH7CHCNH2C3H3C2H2SHCHC2HCNH2SCHC2H6C2H2CHCH3C2H2SH2Fe2SHFeS2FeSFeS3C3SFeS2HC2FeS2H2C3HCSHC2HC2HC2H3C6H4C2H2C7H7C4NHC2H3CH3C2HCH2CH2NCH3CH4CHC3H3CHCHCHC2H3C2HSH7CH3CSHCHCHFeNC2HSC2HC3H5CHCHCH3C2H3FeS2HFeS2FeS2FeSFeS3FeS2HFeHSCH2CH2CNH3C6H4C6H5C3H2C6H4NC9H12CH2CH4NCHCH5CNC7H13C3HC5H2C4HS2H10Fe2S2FeS2FeSFeS3FeS2CFeS2HFeCH3C4H2CH4CHCHC6H4C6H6CH5CHC5H3NH3CHNCH3CHCHCH5CH4C5H4C2H5C2H6CNCSC8H2C2HCH4SH2CNC2H2C2HFeS2HFeCHSFeS2HCFeSH2SH2S2C2H2SFeHC7H3C6H6C6H4C3NCH3CSH2CFeH2S2HC2HCHCH2C4SHCHFeCHCH2CNC9HCH2CHC2H9CHSH10CSCSCSC2H3FeHNC2FeS2FeSCSCHSFeS2FeHSCH2FeHSCH2SCH2C6H2CHC6H4C6H5CH3NCHCH4FeCH2CH2NC9H9CHCHSC3H6C2NC3HNH3CHFeH5CHSC3H2CH3CSNSHCHCHC2HCH2CH4FeCSHFeH2CSH2SNFeSHCHC2
_chemical_formula_sum              "H1296 N72 C1080 Fe144 S288"
_cell_length_a       39.8855
_cell_length_b       40.2961
_cell_length_c       79.9256
_cell_angle_alpha    88.1827
_cell_angle_beta     90.8731
_cell_angle_gamma    119.816

_space_group_name_H-M_alt    "P 1"
_space_group_IT_number       1

loop_
  _space_group_symop_operation_xyz
  'x, y, z'

loop_
  _atom_site_type_symbol
  _atom_site_label
  _atom_site_symmetry_multiplicity
  _atom_site_fract_x
  _atom_site_fract_y
  _atom_site_fract_z
  _atom_site_occupancy
  H   H1        1.0  0.44647  0.18394  0.11892  1.0000
  N   N1        1.0  0.42543  0.16797  0.14450  1.0000
  C   C1        1.0  0.43315  0.48847  0.20011  1.0000
  C   C2        1.0  0.44242  0.46272  0.19306  1.0000
  C   C3        1.0  0.46626  0.13786  0.13869  1.0000
  H   H2        1.0  0.48937  0.15273  0.99617  1.0000
  Fe  Fe1       1.0  0.09985  0.46137  0.01916  1.0000
  S   S1        1.0  0.08037  0.42118  0.04210  1.0000
  S   S2        1.0  0.10915  0.44884  0.99287  1.0000
  S   S3        1.0  0.04333  0.15172  0.10147  1.0000
  Fe  Fe2       1.0  0.16848  0.06651  0.07342  1.0000
  S   S4        1.0  0.15731  0.04776  0.10037  1.0000
  S   S5        1.0  0.14658  0.10314  0.06071  1.0000
  C   C4        1.0  0.44570  0.19693  0.13083  1.0000
  Fe  Fe3       1.0  0.21825  0.05864  0.10082  1.0000
  S   S6        1.0  0.25196  0.08571  0.12449  1.0000
  S   S7        1.0  0.23102  0.08174  0.07429  1.0000
  Fe  Fe4       1.0  0.42354  0.28590  0.15365  1.0000
  S   S8        1.0  0.41324  0.26468  0.18053  1.0000
  S   S9        1.0  0.38672  0.25821  0.13069  1.0000
  H   H3        1.0  0.47593  0.21758  0.13443  1.0000
  H   H4        1.0  0.42890  0.49647  0.00124  1.0000
  C   C5        1.0  0.46989  0.45543  0.20058  1.0000
  C   C6        1.0  0.48852  0.12150  0.14402  1.0000
  H   H5        1.0  0.44008  0.15125  0.17745  1.0000
  S   S10       1.0  0.07168  0.49609  0.01122  1.0000
  Fe  Fe5       1.0  0.47512  0.27755  0.17995  1.0000
  S   S11       1.0  0.44449  0.34763  0.15971  1.0000
  C   C7        1.0  0.34138  0.40201  0.21014  1.0000
  C   C8        1.0  0.41743  0.18762  0.15801  1.0000
  S   S12       1.0  0.48347  0.29421  0.15276  1.0000
  H   H6        1.0  0.02271  0.06410  0.13404  1.0000
  H   H7        1.0  0.46165  0.09244  0.00831  1.0000
  H   H8        1.0  0.32549  0.38222  0.18495  1.0000
  H   H9        1.0  0.36871  0.35431  0.18373  1.0000
  H   H10       1.0  0.44458  0.20835  0.16435  1.0000
  Fe  Fe6       1.0  0.43808  0.32702  0.18664  1.0000
  C   C9        1.0  0.28972  0.13357  0.12594  1.0000
  C   C10       1.0  0.30918  0.15569  0.11177  1.0000
  C   C11       1.0  0.33879  0.19386  0.11346  1.0000
  C   C12       1.0  0.34957  0.21008  0.12932  1.0000
  C   C13       1.0  0.33024  0.18791  0.14351  1.0000
  C   C14       1.0  0.30053  0.14976  0.14181  1.0000
  H   H11       1.0  0.30153  0.14338  0.09951  1.0000
  H   H12       1.0  0.35360  0.21089  0.10243  1.0000
  H   H13       1.0  0.33796  0.20024  0.15577  1.0000
  H   H14       1.0  0.28565  0.13278  0.15284  1.0000
  C   C15       1.0  0.06970  0.13630  0.08964  1.0000
  C   C16       1.0  0.07331  0.14182  0.07224  1.0000
  C   C17       1.0  0.09686  0.13144  0.06341  1.0000
  C   C18       1.0  0.11572  0.11426  0.07185  1.0000
  C   C19       1.0  0.11072  0.10744  0.08912  1.0000
  C   C20       1.0  0.08870  0.11932  0.09802  1.0000
  H   H15       1.0  0.05918  0.15537  0.06568  1.0000
  H   H16       1.0  0.10061  0.13689  0.05003  1.0000
  H   H17       1.0  0.12458  0.09393  0.09571  1.0000
  H   H18       1.0  0.08642  0.11543  0.11148  1.0000
  C   C21       1.0  0.45738  0.08322  0.98139  1.0000
  C   C22       1.0  0.38736  0.01589  0.99033  1.0000
  C   C23       1.0  0.41024  0.04089  0.00264  1.0000
  C   C24       1.0  0.05383  0.37044  0.04190  1.0000
  C   C25       1.0  0.03603  0.35077  0.02736  1.0000
  S   S13       1.0  0.23574  0.00503  0.04582  1.0000
  H   H19       1.0  0.22498  0.43723  0.99650  1.0000
  C   C26       1.0  0.02634  0.30915  0.05752  1.0000
  C   C27       1.0  0.04899  0.34941  0.05695  1.0000
  H   H20       1.0  0.05550  0.02578  0.13762  1.0000
  C   C28       1.0  0.45249  0.14300  0.16761  1.0000
  H   H21       1.0  0.06260  0.36441  0.06826  1.0000
  C   C29       1.0  0.39771  0.48586  0.00366  1.0000
  H   H22       1.0  0.36674  0.43393  0.97906  1.0000
  C   C30       1.0  0.44848  0.15020  0.15035  1.0000
  H   H23       1.0  0.43114  0.21388  0.12768  1.0000
  H   H24       1.0  0.46366  0.14121  0.12538  1.0000
  C   C31       1.0  0.25540  0.44659  0.99490  1.0000
  Fe  Fe7       1.0  0.08491  0.48706  0.98506  1.0000
  C   C32       1.0  0.36773  0.36829  0.19491  1.0000
  C   C33       1.0  0.27755  0.44667  0.00855  1.0000
  C   C34       1.0  0.34331  0.38417  0.19564  1.0000
  C   C35       1.0  0.04031  0.02455  0.12610  1.0000
  H   H25       1.0  0.47586  0.43429  0.19543  1.0000
  H   H26       1.0  0.02288  0.29335  0.06914  1.0000
  H   H27       1.0  0.41307  0.47371  0.97350  1.0000
  N   N2        1.0  0.21367  0.17564  0.11029  1.0000
  C   C36       1.0  0.25033  0.20585  0.11743  1.0000
  C   C37       1.0  0.19324  0.14508  0.12333  1.0000
  C   C38       1.0  0.22324  0.15812  0.09638  1.0000
  C   C39       1.0  0.18984  0.19284  0.10485  1.0000
  C   C40       1.0  0.17214  0.20450  0.11685  1.0000
  C   C41       1.0  0.18462  0.19981  0.08770  1.0000
  C   C42       1.0  0.14888  0.22004  0.11197  1.0000
  C   C43       1.0  0.16170  0.21584  0.08299  1.0000
  C   C44       1.0  0.14351  0.22550  0.09508  1.0000
  H   H28       1.0  0.24531  0.21962  0.12821  1.0000
  H   H29       1.0  0.26887  0.19412  0.12206  1.0000
  H   H30       1.0  0.26731  0.22886  0.10793  1.0000
  H   H31       1.0  0.20873  0.12897  0.12632  1.0000
  H   H32       1.0  0.16362  0.12399  0.11916  1.0000
  H   H33       1.0  0.19083  0.15646  0.13544  1.0000
  H   H34       1.0  0.23805  0.14238  0.10093  1.0000
  H   H35       1.0  0.19670  0.13702  0.08978  1.0000
  H   H36       1.0  0.24311  0.17991  0.08707  1.0000
  H   H37       1.0  0.17578  0.20139  0.13010  1.0000
  H   H38       1.0  0.19689  0.19206  0.07762  1.0000
  H   H39       1.0  0.13421  0.22719  0.12130  1.0000
  H   H40       1.0  0.15682  0.21946  0.06984  1.0000
  H   H41       1.0  0.12442  0.23635  0.09134  1.0000
  H   H42       1.0  0.03946  0.36656  0.01572  1.0000
  H   H43       1.0  0.39204  0.12208  0.12768  1.0000
  H   H44       1.0  0.26409  0.43703  0.02076  1.0000
  H   H45       1.0  0.40374  0.20419  0.15314  1.0000
  C   C45       1.0  0.00768  0.28957  0.04308  1.0000
  C   C46       1.0  0.31219  0.47364  0.97726  1.0000
  C   C47       1.0  0.00170  0.02232  0.09564  1.0000
  H   H46       1.0  0.39721  0.16717  0.16762  1.0000
  H   H47       1.0  0.37094  0.11611  0.14799  1.0000
  C   C48       1.0  0.31715  0.46028  0.00668  1.0000
  H   H48       1.0  0.00347  0.48568  0.98822  1.0000
  H   H49       1.0  0.47850  0.12251  0.18600  1.0000
  C   C49       1.0  0.01285  0.31057  0.02800  1.0000
  H   H50       1.0  0.37013  0.14974  0.13293  1.0000
  C   C50       1.0  0.38803  0.13766  0.13800  1.0000
  H   H51       1.0  0.33266  0.46041  0.01789  1.0000
  S   S14       1.0  0.30812  0.41897  0.21081  1.0000
  C   C51       1.0  0.44474  0.07410  0.99830  1.0000
  C   C52       1.0  0.02174  0.04595  0.12409  1.0000
  C   C53       1.0  0.48849  0.47413  0.21511  1.0000
  C   C54       1.0  0.49296  0.15248  0.98243  1.0000
  C   C55       1.0  0.00269  0.04501  0.10913  1.0000
  C   C56       1.0  0.39031  0.36995  0.20875  1.0000
  Fe  Fe8       1.0  0.20945  0.02032  0.06742  1.0000
  S   S15       1.0  0.41987  0.34863  0.20891  1.0000
  H   H52       1.0  0.38524  0.45593  0.00861  1.0000
  S   S16       1.0  0.14794  0.00755  0.06413  1.0000
  H   H53       1.0  0.03611  0.05637  0.06709  1.0000
  C   C57       1.0  0.38218  0.46490  0.97540  1.0000
  C   C58       1.0  0.39864  0.02421  0.97362  1.0000
  H   H54       1.0  0.46840  0.15391  0.97629  1.0000
  C   C59       1.0  0.33566  0.47394  0.99087  1.0000
  H   H55       1.0  0.42716  0.44717  0.18205  1.0000
  H   H56       1.0  0.48821  0.47232  0.98772  1.0000
  C   C60       1.0  0.48778  0.48800  0.97655  1.0000
  H   H57       1.0  0.25550  0.46137  0.96890  1.0000
  C   C61       1.0  0.49272  0.11584  0.16101  1.0000
  N   N3        1.0  0.37735  0.48795  0.98827  1.0000
  C   C62       1.0  0.27270  0.46020  0.97931  1.0000
  S   S17       1.0  0.49689  0.24046  0.19235  1.0000
  C   C63       1.0  0.00884  0.02885  0.06537  1.0000
  C   C64       1.0  0.47442  0.12618  0.17276  1.0000
  Fe  Fe9       1.0  0.16640  0.50334  0.99442  1.0000
  H   H58       1.0  0.40125  0.03427  0.01563  1.0000
  H   H59       1.0  0.41036  0.49174  0.19420  1.0000
  C   C65       1.0  0.43313  0.05723  0.96913  1.0000
  N   N4        1.0  0.49442  0.11821  0.97720  1.0000
  H   H60       1.0  0.01672  0.00627  0.06393  1.0000
  H   H61       1.0  0.39668  0.50413  0.01363  1.0000
  Fe  Fe10      1.0  0.03465  0.22821  0.32069  1.0000
  S   S18       1.0  0.05805  0.23710  0.34696  1.0000
  S   S19       1.0  0.06292  0.26617  0.29762  1.0000
  Fe  Fe11      1.0  0.04042  0.17462  0.34669  1.0000
  S   S20       1.0  0.07600  0.15041  0.35845  1.0000
  H   H62       1.0  0.44184  0.49686  0.43664  1.0000
  C   C66       1.0  0.27134  0.34815  0.25243  1.0000
  S   S21       1.0  0.11555  0.04267  0.31706  1.0000
  H   H63       1.0  0.13789  0.48229  0.26894  1.0000
  H   H64       1.0  0.02378  0.03088  0.35222  1.0000
  C   C67       1.0  0.45287  0.34520  0.43890  1.0000
  Fe  Fe12      1.0  0.46153  0.09830  0.43708  1.0000
  H   H65       1.0  0.40622  0.23799  0.42609  1.0000
  H   H66       1.0  0.48842  0.24825  0.40480  1.0000
  Fe  Fe13      1.0  0.44085  0.11720  0.40273  1.0000
  S   S22       1.0  0.40330  0.09274  0.37973  1.0000
  S   S23       1.0  0.42329  0.12214  0.42871  1.0000
  Fe  Fe14      1.0  0.29709  0.44595  0.23305  1.0000
  S   S24       1.0  0.32402  0.45187  0.25837  1.0000
  C   C68       1.0  0.44866  0.33489  0.42180  1.0000
  H   H67       1.0  0.21383  0.28839  0.26783  1.0000
  H   H68       1.0  0.09109  0.38924  0.23101  1.0000
  H   H69       1.0  0.27360  0.05269  0.40212  1.0000
  C   C69       1.0  0.24666  0.25142  0.25037  1.0000
  Fe  Fe15      1.0  0.26475  0.43399  0.26838  1.0000
  S   S25       1.0  0.24008  0.39294  0.29073  1.0000
  S   S26       1.0  0.02121  0.16708  0.31993  1.0000
  S   S27       1.0  0.23690  0.42364  0.24308  1.0000
  C   C70       1.0  0.08336  0.36910  0.27898  1.0000
  H   H70       1.0  0.21235  0.29574  0.22092  1.0000
  C   C71       1.0  0.36456  0.40437  0.22387  1.0000
  H   H71       1.0  0.40608  0.38954  0.23395  1.0000
  H   H72       1.0  0.36345  0.41799  0.23511  1.0000
  C   C72       1.0  0.08886  0.38362  0.24443  1.0000
  C   C73       1.0  0.35233  0.07172  0.37879  1.0000
  C   C74       1.0  0.33287  0.05280  0.36423  1.0000
  H   H73       1.0  0.45233  0.42263  0.45430  1.0000
  C   C75       1.0  0.11182  0.40589  0.27283  1.0000
  C   C76       1.0  0.33078  0.07215  0.39234  1.0000
  H   H74       1.0  0.34930  0.05250  0.35365  1.0000
  C   C77       1.0  0.29779  0.24372  0.23838  1.0000
  H   H75       1.0  0.34533  0.08717  0.40351  1.0000
  C   C78       1.0  0.08294  0.11715  0.34728  1.0000
  C   C79       1.0  0.09954  0.09741  0.35540  1.0000
  C   C80       1.0  0.10815  0.07304  0.34645  1.0000
  C   C81       1.0  0.10117  0.06918  0.32922  1.0000
  C   C82       1.0  0.08390  0.08830  0.32121  1.0000
  C   C83       1.0  0.07405  0.11150  0.33025  1.0000
  H   H76       1.0  0.10648  0.10155  0.36858  1.0000
  H   H77       1.0  0.12183  0.05874  0.35273  1.0000
  H   H78       1.0  0.07847  0.08548  0.30789  1.0000
  H   H79       1.0  0.06053  0.12566  0.32386  1.0000
  C   C84       1.0  0.11211  0.30180  0.29612  1.0000
  C   C85       1.0  0.13592  0.31462  0.31022  1.0000
  C   C86       1.0  0.17501  0.34302  0.30842  1.0000
  C   C87       1.0  0.19039  0.35911  0.29259  1.0000
  C   C88       1.0  0.16633  0.34697  0.27857  1.0000
  C   C89       1.0  0.12751  0.31809  0.28032  1.0000
  H   H80       1.0  0.12414  0.30285  0.32248  1.0000
  H   H81       1.0  0.19341  0.35266  0.31936  1.0000
  H   H82       1.0  0.17765  0.35948  0.26635  1.0000
  H   H83       1.0  0.10922  0.30838  0.26936  1.0000
  H   H84       1.0  0.07991  0.36106  0.29213  1.0000
  C   C90       1.0  0.20758  0.29389  0.25473  1.0000
  Fe  Fe16      1.0  0.25217  0.48536  0.24370  1.0000
  S   S28       1.0  0.47616  0.09013  0.41110  1.0000
  S   S29       1.0  0.27637  0.49443  0.26971  1.0000
  H   H85       1.0  0.10146  0.46144  0.28486  1.0000
  H   H86       1.0  0.10425  0.41676  0.30654  1.0000
  C   C91       1.0  0.45649  0.02051  0.46091  1.0000
  C   C92       1.0  0.27062  0.03341  0.37701  1.0000
  C   C93       1.0  0.44250  0.49273  0.46360  1.0000
  N   N5        1.0  0.47084  0.38548  0.44409  1.0000
  S   S30       1.0  0.48711  0.23365  0.44066  1.0000
  C   C94       1.0  0.29012  0.05273  0.39150  1.0000
  C   C95       1.0  0.17905  0.44942  0.27937  1.0000
  H   H87       1.0  0.28234  0.34216  0.26438  1.0000
  H   H88       1.0  0.18493  0.42518  0.28024  1.0000
  C   C96       1.0  0.43751  0.31474  0.45104  1.0000
  H   H89       1.0  0.31207  0.22704  0.23693  1.0000
  H   H90       1.0  0.13920  0.40081  0.30436  1.0000
  H   H91       1.0  0.02691  0.02359  0.28551  1.0000
  H   H92       1.0  0.19996  0.47209  0.28772  1.0000
  H   H93       1.0  0.47267  0.41356  0.42026  1.0000
  H   H94       1.0  0.45916  0.35585  0.41162  1.0000
  C   C97       1.0  0.13192  0.46988  0.28192  1.0000
  N   N6        1.0  0.16513  0.22952  0.32708  1.0000
  C   C98       1.0  0.16415  0.24835  0.34262  1.0000
  C   C99       1.0  0.19464  0.25935  0.31580  1.0000
  C   C100      1.0  0.12665  0.21414  0.31905  1.0000
  C   C101      1.0  0.17440  0.19846  0.33005  1.0000
  C   C102      1.0  0.18312  0.18882  0.34620  1.0000
  C   C103      1.0  0.17584  0.17734  0.31644  1.0000
  C   C104      1.0  0.19311  0.16022  0.34840  1.0000
  C   C105      1.0  0.18544  0.14854  0.31884  1.0000
  C   C106      1.0  0.19426  0.14015  0.33477  1.0000
  H   H95       1.0  0.14175  0.22746  0.35151  1.0000
  H   H96       1.0  0.19264  0.26213  0.34905  1.0000
  H   H97       1.0  0.15661  0.27118  0.33998  1.0000
  H   H98       1.0  0.22417  0.27069  0.32116  1.0000
  H   H99       1.0  0.18960  0.28394  0.31373  1.0000
  H   H100      1.0  0.19457  0.24832  0.30324  1.0000
  H   H101      1.0  0.10395  0.19176  0.32725  1.0000
  H   H102      1.0  0.11857  0.23666  0.31671  1.0000
  H   H103      1.0  0.12484  0.20112  0.30681  1.0000
  H   H104      1.0  0.18149  0.20218  0.35741  1.0000
  H   H105      1.0  0.16891  0.18243  0.30387  1.0000
  H   H106      1.0  0.19867  0.15257  0.36085  1.0000
  H   H107      1.0  0.18478  0.13158  0.30843  1.0000
  H   H108      1.0  0.20050  0.11696  0.33662  1.0000
  C   C107      1.0  0.41816  0.26755  0.42959  1.0000
  C   C108      1.0  0.42098  0.27658  0.44641  1.0000
  H   H109      1.0  0.30693  0.32839  0.22559  1.0000
  H   H110      1.0  0.42355  0.37343  0.46063  1.0000
  H   H111      1.0  0.18625  0.46163  0.26642  1.0000
  C   C109      1.0  0.38864  0.38812  0.22320  1.0000
  H   H112      1.0  0.34564  0.01420  0.43126  1.0000
  H   H113      1.0  0.42971  0.28942  0.40425  1.0000
  H   H114      1.0  0.22156  0.23899  0.25838  1.0000
  C   C110      1.0  0.43155  0.29659  0.41733  1.0000
  C   C111      1.0  0.45837  0.49709  0.44755  1.0000
  N   N7        1.0  0.24316  0.31224  0.24430  1.0000
  H   H115      1.0  0.25830  0.36606  0.25547  1.0000
  H   H116      1.0  0.13439  0.43961  0.24956  1.0000
  C   C112      1.0  0.29432  0.30100  0.23210  1.0000
  S   S31       1.0  0.43896  0.05276  0.45780  1.0000
  H   H117      1.0  0.19451  0.31260  0.25563  1.0000
  C   C113      1.0  0.29221  0.03383  0.36330  1.0000
  C   C114      1.0  0.48287  0.01987  0.44981  1.0000
  H   H118      1.0  0.38112  0.01351  0.38822  1.0000
  H   H119      1.0  0.39491  0.02980  0.42632  1.0000
  C   C115      1.0  0.06142  0.34785  0.25087  1.0000
  C   C116      1.0  0.23263  0.32199  0.22769  1.0000
  C   C117      1.0  0.05865  0.34067  0.26809  1.0000
  H   H120      1.0  0.27754  0.01907  0.35209  1.0000
  C   C118      1.0  0.00855  0.02090  0.29593  1.0000
  H   H121      1.0  0.41907  0.38861  0.43980  1.0000
  S   S32       1.0  0.49218  0.17678  0.40201  1.0000
  H   H122      1.0  0.03774  0.31256  0.27311  1.0000
  C   C119      1.0  0.36575  0.01906  0.42076  1.0000
  C   C120      1.0  0.11365  0.41230  0.25520  1.0000
  H   H123      1.0  0.29672  0.36624  0.24429  1.0000
  C   C121      1.0  0.44014  0.39283  0.44996  1.0000
  N   N8        1.0  0.13848  0.43680  0.28394  1.0000
  C   C122      1.0  0.26092  0.28789  0.24222  1.0000
  C   C123      1.0  0.13372  0.42514  0.30196  1.0000
  H   H124      1.0  0.21884  0.34003  0.22881  1.0000
  H   H125      1.0  0.04237  0.32556  0.24250  1.0000
  C   C124      1.0  0.26494  0.22978  0.24838  1.0000
  H   H126      1.0  0.25373  0.20205  0.25469  1.0000
  H   H127      1.0  0.39607  0.48912  0.23730  1.0000
  H   H128      1.0  0.36757  0.04277  0.41261  1.0000
  H   H129      1.0  0.37932  0.49760  0.21757  1.0000
  Fe  Fe17      1.0  0.47786  0.17955  0.42873  1.0000
  S   S33       1.0  0.21944  0.00763  0.37708  1.0000
  H   H130      1.0  0.15445  0.44888  0.30994  1.0000
  H   H131      1.0  0.41082  0.25379  0.45588  1.0000
  C   C125      1.0  0.31245  0.27928  0.23025  1.0000
  H   H132      1.0  0.15109  0.49370  0.29023  1.0000
  H   H133      1.0  0.49227  0.03895  0.43896  1.0000
  H   H134      1.0  0.18499  0.26665  0.24931  1.0000
  H   H135      1.0  0.43832  0.32007  0.46422  1.0000
  H   H136      1.0  0.25814  0.33885  0.21945  1.0000
  H   H137      1.0  0.33824  0.29027  0.22254  1.0000
  C   C126      1.0  0.49228  0.41353  0.43031  1.0000
  S   S34       1.0  0.39573  0.48677  0.46551  1.0000
  C   C127      1.0  0.49561  0.50203  0.44551  1.0000
  C   C128      1.0  0.49873  0.39295  0.45799  1.0000
  C   C129      1.0  0.47978  0.50030  0.22219  1.0000
  S   S35       1.0  0.20956  0.50307  0.23420  1.0000
  H   H138      1.0  0.41104  0.00446  0.40206  1.0000
  Fe  Fe18      1.0  0.47236  0.22337  0.68358  1.0000
  H   H139      1.0  0.36211  0.04521  0.66306  1.0000
  H   H140      1.0  0.35400  0.08759  0.68353  1.0000
  Fe  Fe19      1.0  0.43140  0.13752  0.69254  1.0000
  S   S36       1.0  0.43983  0.12247  0.66679  1.0000
  S   S37       1.0  0.40267  0.09576  0.71440  1.0000
  S   S38       1.0  0.48313  0.21436  0.65709  1.0000
  Fe  Fe20      1.0  0.42213  0.16514  0.65784  1.0000
  S   S39       1.0  0.38314  0.15142  0.63509  1.0000
  C   C130      1.0  0.03533  0.05504  0.59322  1.0000
  S   S40       1.0  0.40980  0.17716  0.68357  1.0000
  H   H141      1.0  0.35480  0.25531  0.63066  1.0000
  H   H142      1.0  0.46022  0.34669  0.63475  1.0000
  C   C131      1.0  0.02466  0.48212  0.70875  1.0000
  C   C132      1.0  0.39310  0.29861  0.64842  1.0000
  C   C133      1.0  0.34099  0.31468  0.55316  1.0000
  H   H143      1.0  0.03411  0.06569  0.60577  1.0000
  Fe  Fe21      1.0  0.33364  0.46843  0.52375  1.0000
  S   S41       1.0  0.31202  0.42783  0.54652  1.0000
  S   S42       1.0  0.30953  0.45540  0.49768  1.0000
  Fe  Fe22      1.0  0.20452  0.17254  0.60350  1.0000
  S   S43       1.0  0.21370  0.16247  0.57684  1.0000
  S   S44       1.0  0.24675  0.18862  0.62528  1.0000
  Fe  Fe23      1.0  0.12604  0.16541  0.59557  1.0000
  S   S45       1.0  0.12998  0.15621  0.56840  1.0000
  S   S46       1.0  0.07316  0.16057  0.60788  1.0000
  Fe  Fe24      1.0  0.15102  0.11656  0.57757  1.0000
  S   S47       1.0  0.12275  0.06000  0.56456  1.0000
  Fe  Fe25      1.0  0.19197  0.20324  0.57004  1.0000
  S   S48       1.0  0.22059  0.24545  0.54810  1.0000
  S   S49       1.0  0.14358  0.12310  0.60476  1.0000
  S   S50       1.0  0.18623  0.21598  0.59666  1.0000
  C   C134      1.0  0.28460  0.37719  0.54645  1.0000
  C   C135      1.0  0.26874  0.35692  0.56160  1.0000
  C   C136      1.0  0.24857  0.31661  0.56232  1.0000
  C   C137      1.0  0.24465  0.29617  0.54791  1.0000
  C   C138      1.0  0.26023  0.31645  0.53273  1.0000
  C   C139      1.0  0.27978  0.35677  0.53195  1.0000
  H   H144      1.0  0.27228  0.37254  0.57286  1.0000
  H   H145      1.0  0.23615  0.30148  0.57401  1.0000
  H   H146      1.0  0.25716  0.30087  0.52151  1.0000
  H   H147      1.0  0.29197  0.37200  0.52024  1.0000
  C   C140      1.0  0.03152  0.14930  0.57865  1.0000
  C   C141      1.0  0.03048  0.14350  0.59602  1.0000
  H   H148      1.0  0.33576  0.24326  0.55847  1.0000
  H   H149      1.0  0.05894  0.16344  0.57216  1.0000
  H   H150      1.0  0.34094  0.10891  0.66650  1.0000
  H   H151      1.0  0.37771  0.27529  0.58344  1.0000
  H   H152      1.0  0.32574  0.02202  0.64738  1.0000
  H   H153      1.0  0.13908  0.04266  0.59860  1.0000
  C   C142      1.0  0.33797  0.30775  0.57079  1.0000
  C   C143      1.0  0.00200  0.00686  0.57258  1.0000
  H   H154      1.0  0.40134  0.24610  0.66600  1.0000
  C   C144      1.0  0.14354  0.32626  0.55773  1.0000
  C   C145      1.0  0.34346  0.15935  0.63300  1.0000
  C   C146      1.0  0.33155  0.17315  0.64614  1.0000
  C   C147      1.0  0.30116  0.18103  0.64368  1.0000
  C   C148      1.0  0.28225  0.17492  0.62814  1.0000
  C   C149      1.0  0.29364  0.16037  0.61511  1.0000
  C   C150      1.0  0.32419  0.15268  0.61755  1.0000
  H   H155      1.0  0.34598  0.17822  0.65812  1.0000
  H   H156      1.0  0.29244  0.19229  0.65382  1.0000
  H   H157      1.0  0.27917  0.15537  0.60313  1.0000
  H   H158      1.0  0.33311  0.14176  0.60735  1.0000
  H   H159      1.0  0.12843  0.31817  0.56963  1.0000
  N   N9        1.0  0.30996  0.04709  0.66728  1.0000
  H   H160      1.0  0.39635  0.04238  0.68885  1.0000
  H   H161      1.0  0.35258  0.07275  0.64752  1.0000
  H   H162      1.0  0.28718  0.23613  0.55773  1.0000
  C   C151      1.0  0.39377  0.32558  0.65964  1.0000
  H   H163      1.0  0.30896  0.04451  0.70276  1.0000
  H   H164      1.0  0.46591  0.08648  0.69735  1.0000
  C   C152      1.0  0.35077  0.34014  0.58099  1.0000
  N   N10       1.0  0.42638  0.29204  0.64753  1.0000
  C   C153      1.0  0.46289  0.32905  0.64512  1.0000
  C   C154      1.0  0.42361  0.26703  0.63367  1.0000
  H   H165      1.0  0.30433  0.31457  0.65301  1.0000
  H   H166      1.0  0.26341  0.01941  0.64945  1.0000
  C   C155      1.0  0.01882  0.21000  0.61934  1.0000
  H   H167      1.0  0.42071  0.27886  0.62133  1.0000
  H   H168      1.0  0.44962  0.26359  0.63304  1.0000
  H   H169      1.0  0.39901  0.23746  0.63546  1.0000
  C   C156      1.0  0.38599  0.02680  0.70062  1.0000
  C   C157      1.0  0.32923  0.08442  0.67572  1.0000
  C   C158      1.0  0.31066  0.23833  0.56621  1.0000
  C   C159      1.0  0.29654  0.01721  0.69679  1.0000
  H   H170      1.0  0.49698  0.03454  0.71225  1.0000
  H   H171      1.0  0.35756  0.35640  0.53285  1.0000
  H   H172      1.0  0.34846  0.33710  0.59446  1.0000
  C   C160      1.0  0.42864  0.27343  0.66345  1.0000
  C   C161      1.0  0.35033  0.26731  0.59014  1.0000
  H   H173      1.0  0.26436  0.26056  0.57988  1.0000
  S   S51       1.0  0.08005  0.42999  0.71512  1.0000
  N   N11       1.0  0.18904  0.41212  0.52693  1.0000
  C   C162      1.0  0.23164  0.43454  0.52832  1.0000
  C   C163      1.0  0.17835  0.40869  0.50890  1.0000
  C   C164      1.0  0.17301  0.43430  0.53473  1.0000
  C   C165      1.0  0.17533  0.37378  0.53486  1.0000
  C   C166      1.0  0.18396  0.34725  0.52751  1.0000
  C   C167      1.0  0.15490  0.36227  0.55033  1.0000
  C   C168      1.0  0.38638  0.04603  0.71494  1.0000
  H   H174      1.0  0.02409  0.39079  0.68965  1.0000
  H   H175      1.0  0.04820  0.21720  0.62252  1.0000
  H   H176      1.0  0.24588  0.42016  0.52238  1.0000
  H   H177      1.0  0.24332  0.46332  0.52215  1.0000
  H   H178      1.0  0.24116  0.43851  0.54165  1.0000
  H   H179      1.0  0.14686  0.38886  0.50718  1.0000
  H   H180      1.0  0.19443  0.39845  0.50138  1.0000
  H   H181      1.0  0.18536  0.43685  0.50298  1.0000
  H   H182      1.0  0.14085  0.41840  0.53452  1.0000
  H   H183      1.0  0.18321  0.44172  0.54784  1.0000
  H   H184      1.0  0.18247  0.46221  0.52797  1.0000
  H   H185      1.0  0.20095  0.35450  0.51619  1.0000
  H   H186      1.0  0.14779  0.38073  0.55707  1.0000
  C   C169      1.0  0.27770  0.04537  0.65715  1.0000
  H   H187      1.0  0.45251  0.26679  0.66325  1.0000
  H   H188      1.0  0.48444  0.37819  0.46991  1.0000
  C   C170      1.0  0.28658  0.25976  0.58820  1.0000
  H   H189      1.0  0.33918  0.23803  0.59581  1.0000
  H   H190      1.0  0.33058  0.29191  0.54433  1.0000
  C   C171      1.0  0.29497  0.01368  0.67909  1.0000
  H   H191      1.0  0.37440  0.40130  0.58193  1.0000
  C   C172      1.0  0.15200  0.30076  0.55002  1.0000
  H   H192      1.0  0.47206  0.34645  0.65658  1.0000
  H   H193      1.0  0.14372  0.27308  0.55588  1.0000
  C   C173      1.0  0.36879  0.38286  0.55669  1.0000
  H   H194      1.0  0.41846  0.34176  0.66761  1.0000
  H   H195      1.0  0.29234  0.27994  0.59842  1.0000
  C   C174      1.0  0.36582  0.37705  0.57398  1.0000
  C   C175      1.0  0.10926  0.01689  0.57580  1.0000
  C   C176      1.0  0.35650  0.35179  0.54632  1.0000
  H   H196      1.0  0.29929  0.20962  0.57244  1.0000
  H   H197      1.0  0.30880  0.08792  0.68381  1.0000
  H   H198      1.0  0.43411  0.29185  0.67441  1.0000
  H   H199      1.0  0.27346  0.23073  0.59421  1.0000
  C   C177      1.0  0.00989  0.21458  0.60282  1.0000
  C   C178      1.0  0.46404  0.49308  0.47762  1.0000
  H   H200      1.0  0.28788  0.07054  0.64831  1.0000
  H   H201      1.0  0.04328  0.07910  0.58399  1.0000
  Fe  Fe26      1.0  0.37083  0.49566  0.48925  1.0000
  H   H202      1.0  0.17892  0.29136  0.52908  1.0000
  H   H203      1.0  0.35742  0.28682  0.60075  1.0000
  N   N12       1.0  0.32171  0.26892  0.57855  1.0000
  H   H204      1.0  0.00800  0.02844  0.56232  1.0000
  C   C179      1.0  0.33875  0.04665  0.65585  1.0000
  H   H205      1.0  0.25510  0.04498  0.66532  1.0000
  H   H206      1.0  0.37933  0.41138  0.55127  1.0000
  C   C180      1.0  0.00836  0.38702  0.70112  1.0000
  C   C181      1.0  0.17189  0.31114  0.53489  1.0000
  H   H207      1.0  0.48759  0.32487  0.64202  1.0000
  S   S52       1.0  0.49278  0.18512  0.69506  1.0000
  H   H208      1.0  0.45196  0.48933  0.49003  1.0000
  C   C182      1.0  0.35865  0.27743  0.63903  1.0000
  H   H209      1.0  0.36335  0.35210  0.66983  1.0000
  C   C183      1.0  0.32721  0.28343  0.64067  1.0000
  H   H210      1.0  0.04621  0.47901  0.70190  1.0000
  H   H211      1.0  0.05995  0.04939  0.59332  1.0000
  C   C184      1.0  0.12076  0.01614  0.59237  1.0000
  H   H212      1.0  0.03223  0.22526  0.59331  1.0000
  S   S53       1.0  0.49262  0.28107  0.69487  1.0000
  H   H213      1.0  0.30078  0.26627  0.63374  1.0000
  C   C185      1.0  0.02889  0.40341  0.71587  1.0000
  C   C186      1.0  0.36226  0.33151  0.66110  1.0000
  C   C187      1.0  0.32903  0.31046  0.65163  1.0000
  C   C188      1.0  0.49662  0.09403  0.69590  1.0000
  H   H214      1.0  0.49655  0.07249  0.68750  1.0000
  H   H215      1.0  0.22302  0.25977  0.93606  1.0000
  C   C189      1.0  0.01048  0.48865  0.96148  1.0000
  H   H216      1.0  0.32047  0.45986  0.79209  1.0000
  C   C190      1.0  0.07782  0.25645  0.76471  1.0000
  C   C191      1.0  0.26406  0.44583  0.80059  1.0000
  S   S54       1.0  0.47189  0.42318  0.95999  1.0000
  Fe  Fe27      1.0  0.44680  0.35946  0.90259  1.0000
  S   S55       1.0  0.40611  0.34222  0.88015  1.0000
  S   S56       1.0  0.43315  0.33616  0.92908  1.0000
  Fe  Fe28      1.0  0.18407  0.21879  0.85730  1.0000
  S   S57       1.0  0.20016  0.21493  0.83096  1.0000
  S   S58       1.0  0.22210  0.24584  0.87995  1.0000
  Fe  Fe29      1.0  0.09738  0.17462  0.84975  1.0000
  S   S59       1.0  0.10632  0.16777  0.82274  1.0000
  S   S60       1.0  0.04104  0.14672  0.86415  1.0000
  Fe  Fe30      1.0  0.15135  0.15399  0.83229  1.0000
  S   S61       1.0  0.15342  0.10495  0.82040  1.0000
  Fe  Fe31      1.0  0.15398  0.22915  0.82342  1.0000
  S   S62       1.0  0.16865  0.26930  0.80081  1.0000
  S   S63       1.0  0.13920  0.15645  0.85928  1.0000
  S   S64       1.0  0.14126  0.23753  0.84978  1.0000
  H   H217      1.0  0.13095  0.02450  0.87116  1.0000
  C   C192      1.0  0.29892  0.36987  0.84098  1.0000
  Fe  Fe32      1.0  0.14902  0.44621  0.77074  1.0000
  Fe  Fe33      1.0  0.12154  0.45903  0.73670  1.0000
  S   S65       1.0  0.13022  0.40409  0.79289  1.0000
  H   H218      1.0  0.30594  0.15197  0.84917  1.0000
  C   C193      1.0  0.11406  0.16422  0.90168  1.0000
  Fe  Fe34      1.0  0.47755  0.39601  0.93642  1.0000
  H   H219      1.0  0.14447  0.17710  0.89729  1.0000
  C   C194      1.0  0.05065  0.29905  0.76740  1.0000
  S   S66       1.0  0.10537  0.46364  0.76292  1.0000
  C   C195      1.0  0.28078  0.17269  0.86664  1.0000
  H   H220      1.0  0.19171  0.25582  0.96315  1.0000
  C   C196      1.0  0.04449  0.28801  0.78467  1.0000
  N   N13       1.0  0.04053  0.32678  0.75961  1.0000
  S   S67       1.0  0.16260  0.43812  0.74446  1.0000
  C   C197      1.0  0.13981  0.06032  0.84913  1.0000
  C   C198      1.0  0.13537  0.06132  0.83176  1.0000
  C   C199      1.0  0.28695  0.19437  0.88076  1.0000
  H   H221      1.0  0.15396  0.08673  0.85585  1.0000
  C   C200      1.0  0.12827  0.21020  0.92333  1.0000
  C   C201      1.0  0.15770  0.30662  0.79889  1.0000
  C   C202      1.0  0.13780  0.31319  0.81142  1.0000
  C   C203      1.0  0.12936  0.34307  0.80934  1.0000
  C   C204      1.0  0.14083  0.36655  0.79477  1.0000
  C   C205      1.0  0.16085  0.36004  0.78229  1.0000
  C   C206      1.0  0.16923  0.33014  0.78436  1.0000
  H   H222      1.0  0.12861  0.29509  0.82262  1.0000
  H   H223      1.0  0.11389  0.34806  0.81904  1.0000
  H   H224      1.0  0.17006  0.37813  0.77109  1.0000
  H   H225      1.0  0.18468  0.32518  0.77464  1.0000
  C   C207      1.0  0.35498  0.31494  0.88048  1.0000
  C   C208      1.0  0.33508  0.30115  0.86534  1.0000
  C   C209      1.0  0.29441  0.27977  0.86496  1.0000
  C   C210      1.0  0.27326  0.27239  0.87974  1.0000
  C   C211      1.0  0.29314  0.28605  0.89489  1.0000
  C   C212      1.0  0.33384  0.30710  0.89530  1.0000
  H   H226      1.0  0.35127  0.30689  0.85384  1.0000
  H   H227      1.0  0.27949  0.26893  0.85326  1.0000
  H   H228      1.0  0.27701  0.28038  0.90640  1.0000
  H   H229      1.0  0.34882  0.31769  0.90701  1.0000
  H   H230      1.0  0.05636  0.02773  0.84791  1.0000
  C   C213      1.0  0.11122  0.20853  0.93908  1.0000
  C   C214      1.0  0.00482  0.02918  0.82523  1.0000
  H   H231      1.0  0.48141  0.12584  0.95147  1.0000
  C   C215      1.0  0.00831  0.39865  0.73061  1.0000
  C   C216      1.0  0.06280  0.17410  0.91080  1.0000
  H   H232      1.0  0.00941  0.06930  0.80566  1.0000
  H   H233      1.0  0.14592  0.23673  0.89077  1.0000
  H   H234      1.0  0.09732  0.21213  0.88348  1.0000
  H   H235      1.0  0.29675  0.39001  0.84953  1.0000
  C   C217      1.0  0.07154  0.24637  0.78166  1.0000
  C   C218      1.0  0.13403  0.22487  0.95322  1.0000
  N   N14       1.0  0.39369  0.22844  0.88981  1.0000
  C   C219      1.0  0.42238  0.25517  0.87735  1.0000
  C   C220      1.0  0.39666  0.25087  0.90471  1.0000
  C   C221      1.0  0.40442  0.19935  0.89520  1.0000
  C   C222      1.0  0.35470  0.20940  0.88214  1.0000
  C   C223      1.0  0.32331  0.21268  0.88842  1.0000
  C   C224      1.0  0.34726  0.18674  0.86781  1.0000
  H   H236      1.0  0.45193  0.27081  0.88279  1.0000
  H   H237      1.0  0.42453  0.24037  0.86629  1.0000
  H   H238      1.0  0.41475  0.27698  0.87272  1.0000
  H   H239      1.0  0.37668  0.23248  0.91487  1.0000
  H   H240      1.0  0.39065  0.27448  0.90144  1.0000
  H   H241      1.0  0.42623  0.26458  0.91022  1.0000
  H   H242      1.0  0.43270  0.21250  0.90189  1.0000
  H   H243      1.0  0.38241  0.17756  0.90391  1.0000
  H   H244      1.0  0.40745  0.18410  0.88450  1.0000
  H   H245      1.0  0.32610  0.22961  0.89910  1.0000
  H   H246      1.0  0.36968  0.18296  0.86232  1.0000
  H   H247      1.0  0.29988  0.34710  0.84890  1.0000
  H   H248      1.0  0.05050  0.25442  0.80483  1.0000
  H   H249      1.0  0.05291  0.14993  0.92011  1.0000
  H   H250      1.0  0.03273  0.29977  0.79323  1.0000
  C   C225      1.0  0.02598  0.34389  0.77174  1.0000
  N   N15       1.0  0.26604  0.35370  0.82906  1.0000
  C   C226      1.0  0.23039  0.32901  0.83891  1.0000
  C   C227      1.0  0.27133  0.32875  0.81737  1.0000
  C   C228      1.0  0.26482  0.38520  0.81947  1.0000
  C   C229      1.0  0.29657  0.41091  0.80923  1.0000
  C   C230      1.0  0.23275  0.39148  0.81993  1.0000
  H   H251      1.0  0.00130  0.32731  0.74082  1.0000
  C   C231      1.0  0.23264  0.42144  0.81063  1.0000
  H   H252      1.0  0.43065  0.49323  0.74398  1.0000
  H   H253      1.0  0.20464  0.31486  0.83061  1.0000
  H   H254      1.0  0.23219  0.30559  0.84594  1.0000
  H   H255      1.0  0.22512  0.34555  0.84838  1.0000
  H   H256      1.0  0.29964  0.34376  0.81085  1.0000
  H   H257      1.0  0.24844  0.31807  0.80756  1.0000
  H   H258      1.0  0.26978  0.30323  0.82396  1.0000
  H   H259      1.0  0.20710  0.37342  0.82719  1.0000
  C   C232      1.0  0.48063  0.47059  0.96093  1.0000
  S   S68       1.0  0.04861  0.47835  0.96178  1.0000
  H   H260      1.0  0.25265  0.15903  0.86064  1.0000
  Fe  Fe35      1.0  0.48373  0.32638  0.92656  1.0000
  H   H261      1.0  0.08547  0.34969  0.74060  1.0000
  H   H262      1.0  0.02015  0.29672  0.73642  1.0000
  C   C233      1.0  0.37264  0.02520  0.73012  1.0000
  H   H263      1.0  0.05382  0.19463  0.91495  1.0000
  H   H264      1.0  0.01941  0.36516  0.76554  1.0000
  H   H265      1.0  0.32431  0.48434  0.96496  1.0000
  C   C234      1.0  0.11755  0.02694  0.82313  1.0000
  H   H266      1.0  0.09550  0.14921  0.89076  1.0000
  H   H267      1.0  0.08068  0.22724  0.78722  1.0000
  H   H268      1.0  0.37285  0.03985  0.74127  1.0000
  H   H269      1.0  0.04639  0.16162  0.89908  1.0000
  H   H270      1.0  0.10924  0.14212  0.91152  1.0000
  C   C235      1.0  0.17418  0.24325  0.95215  1.0000
  S   S69       1.0  0.48272  0.27274  0.93661  1.0000
  C   C236      1.0  0.07514  0.35874  0.75143  1.0000
  H   H271      1.0  0.21918  0.00625  0.82189  1.0000
  H   H272      1.0  0.11416  0.02761  0.80968  1.0000
  Fe  Fe36      1.0  0.20827  0.50035  0.74495  1.0000
  C   C237      1.0  0.03540  0.50318  0.72327  1.0000
  C   C238      1.0  0.11533  0.22361  0.89493  1.0000
  H   H273      1.0  0.26348  0.19750  0.88567  1.0000
  H   H274      1.0  0.32734  0.38574  0.83454  1.0000
  H   H275      1.0  0.32200  0.40805  0.80827  1.0000
  H   H276      1.0  0.03407  0.03531  0.82300  1.0000
  C   C239      1.0  0.31086  0.16882  0.86019  1.0000
  H   H277      1.0  0.20770  0.42549  0.81101  1.0000
  H   H278      1.0  0.02761  0.02957  0.86445  1.0000
  H   H279      1.0  0.12048  0.22326  0.96513  1.0000
  H   H280      1.0  0.07277  0.28903  0.74440  1.0000
  C   C240      1.0  0.01018  0.30749  0.74677  1.0000
  C   C241      1.0  0.12693  0.02509  0.85775  1.0000
  N   N16       1.0  0.10524  0.19324  0.90805  1.0000
  H   H281      1.0  0.02371  0.41187  0.74193  1.0000
  H   H282      1.0  0.47431  0.47784  0.93448  1.0000
  C   C242      1.0  0.16924  0.22919  0.92272  1.0000
  C   C243      1.0  0.19175  0.24543  0.93691  1.0000
  H   H283      1.0  0.11091  0.24697  0.89948  1.0000
  C   C244      1.0  0.48014  0.49104  0.94656  1.0000
  C   C245      1.0  0.05461  0.26184  0.79157  1.0000
  H   H284      1.0  0.08034  0.19477  0.94085  1.0000
  H   H285      1.0  0.04802  0.35958  0.78157  1.0000
  H   H286      1.0  0.18425  0.23164  0.91120  1.0000
  H   H287      1.0  0.01915  0.16169  0.83096  1.0000
  C   C246      1.0  0.06727  0.28210  0.75760  1.0000
  H   H288      1.0  0.09156  0.24473  0.75712  1.0000
  S   S70       1.0  0.48782  0.42030  0.91002  1.0000
  S   S71       1.0  0.49452  0.34566  0.89971  1.0000
  H   H289      1.0  0.37130  0.46806  0.96292  1.0000
  C   C247      1.0  0.29605  0.44069  0.79993  1.0000
  H   H290      1.0  0.26349  0.46866  0.79325  1.0000
  H   H291      1.0  0.44040  0.06119  0.95599  1.0000
  C   C248      1.0  0.49004  0.02476  0.94557  1.0000
  H   H292      1.0  0.06947  0.38158  0.74640  1.0000
  H   H293      1.0  0.00998  0.49320  0.93455  1.0000
  C   C249      1.0  0.03275  0.00982  0.85687  1.0000
  H   H294      1.0  0.09938  0.37198  0.76053  1.0000
  H   H295      1.0  0.47913  0.11456  0.72334  1.0000
  H   H296      1.0  0.46191  0.04496  0.72081  1.0000
  C   C250      1.0  0.49352  0.05531  0.71987  1.0000
  Fe  Fe37      1.0  0.13191  0.54678  0.01086  1.0000
  S   S72       1.0  0.14675  0.60429  0.02129  1.0000
  S   S73       1.0  0.14301  0.54005  0.98423  1.0000
  Fe  Fe38      1.0  0.36779  0.89475  0.98626  1.0000
  S   S74       1.0  0.38854  0.90724  0.01290  1.0000
  C   C251      1.0  0.40803  0.93367  0.08561  1.0000
  Fe  Fe39      1.0  0.30779  0.81148  0.99479  1.0000
  S   S75       1.0  0.32366  0.81781  0.02190  1.0000
  S   S76       1.0  0.26960  0.75510  0.98237  1.0000
  Fe  Fe40      1.0  0.32517  0.87455  0.01965  1.0000
  S   S77       1.0  0.30067  0.88896  0.04224  1.0000
  Fe  Fe41      1.0  0.38493  0.84959  0.01284  1.0000
  S   S78       1.0  0.42626  0.83383  0.02566  1.0000
  S   S79       1.0  0.30438  0.86565  0.99292  1.0000
  S   S80       1.0  0.36912  0.83981  0.98581  1.0000
  H   H297      1.0  0.15953  0.94801  0.03833  1.0000
  H   H298      1.0  0.06984  0.55904  0.97341  1.0000
  H   H299      1.0  0.24683  0.95749  0.07151  1.0000
  S   S81       1.0  0.08710  0.93928  0.10238  1.0000
  H   H300      1.0  0.42105  0.92366  0.05391  1.0000
  Fe  Fe42      1.0  0.43558  0.61053  0.01261  1.0000
  S   S82       1.0  0.44496  0.63028  0.98578  1.0000
  S   S83       1.0  0.37679  0.57020  0.02392  1.0000
  C   C252      1.0  0.34539  0.72568  0.98565  1.0000
  H   H301      1.0  0.07581  0.84863  0.02851  1.0000
  C   C253      1.0  0.41125  0.85491  0.06821  1.0000
  S   S84       1.0  0.47168  0.66953  0.02246  1.0000
  C   C254      1.0  0.39443  0.85641  0.09704  1.0000
  H   H302      1.0  0.29705  0.52831  0.03351  1.0000
  H   H303      1.0  0.12741  0.66350  0.97728  1.0000
  C   C255      1.0  0.12946  0.92369  0.03984  1.0000
  H   H304      1.0  0.30226  0.56225  0.97315  1.0000
  C   C256      1.0  0.04248  0.92003  0.07371  1.0000
  C   C257      1.0  0.04318  0.91974  0.09120  1.0000
  Fe  Fe43      1.0  0.14069  0.98970  0.09121  1.0000
  H   H305      1.0  0.06915  0.93517  0.06675  1.0000
  H   H306      1.0  0.01391  0.82529  0.08414  1.0000
  C   C258      1.0  0.44365  0.80931  0.01383  1.0000
  C   C259      1.0  0.45689  0.78674  0.02209  1.0000
  C   C260      1.0  0.46843  0.76488  0.01290  1.0000
  C   C261      1.0  0.46763  0.76619  0.99542  1.0000
  C   C262      1.0  0.45641  0.79040  0.98718  1.0000
  C   C263      1.0  0.44400  0.81150  0.99634  1.0000
  C   C264      1.0  0.42237  0.82800  0.07277  1.0000
  Fe  Fe44      1.0  0.49613  0.62115  0.98702  1.0000
  H   H307      1.0  0.43528  0.82987  0.98985  1.0000
  C   C265      1.0  0.28301  0.92159  0.04296  1.0000
  C   C266      1.0  0.27023  0.92732  0.05836  1.0000
  C   C267      1.0  0.25612  0.95306  0.05955  1.0000
  C   C268      1.0  0.25436  0.97316  0.04527  1.0000
  C   C269      1.0  0.26704  0.96733  0.02988  1.0000
  C   C270      1.0  0.28136  0.94176  0.02871  1.0000
  H   H308      1.0  0.27137  0.91187  0.06946  1.0000
  H   H309      1.0  0.32526  0.85611  0.07274  1.0000
  H   H310      1.0  0.42279  0.55131  0.19930  1.0000
  H   H311      1.0  0.29099  0.93760  0.01677  1.0000
  C   C271      1.0  0.00740  0.89796  0.06523  1.0000
  C   C272      1.0  0.02005  0.77683  0.11116  1.0000
  H   H312      1.0  0.43956  0.94557  0.08348  1.0000
  C   C273      1.0  0.33424  0.55810  0.01247  1.0000
  C   C274      1.0  0.33550  0.56830  0.99552  1.0000
  C   C275      1.0  0.30107  0.55569  0.98643  1.0000
  H   H313      1.0  0.00855  0.90135  0.11355  1.0000
  C   C276      1.0  0.00628  0.81099  0.05823  1.0000
  H   H314      1.0  0.36287  0.58493  0.98924  1.0000
  H   H315      1.0  0.11424  0.64875  0.99846  1.0000
  H   H316      1.0  0.05396  0.98503  0.11480  1.0000
  C   C277      1.0  0.18066  0.64642  0.01049  1.0000
  C   C278      1.0  0.19226  0.64509  0.99425  1.0000
  C   C279      1.0  0.21916  0.67877  0.98584  1.0000
  C   C280      1.0  0.23559  0.71405  0.99366  1.0000
  C   C281      1.0  0.22423  0.71562  0.00996  1.0000
  C   C282      1.0  0.19628  0.68190  0.01824  1.0000
  H   H317      1.0  0.18042  0.61828  0.98804  1.0000
  H   H318      1.0  0.18082  0.89905  0.04402  1.0000
  H   H319      1.0  0.23640  0.74285  0.01603  1.0000
  H   H320      1.0  0.18713  0.68327  0.03075  1.0000
  C   C283      1.0  0.49472  0.52571  0.97778  1.0000
  C   C284      1.0  0.06351  0.84386  0.04090  1.0000
  C   C285      1.0  0.29826  0.53672  0.02044  1.0000
  H   H321      1.0  0.12000  0.91217  0.02714  1.0000
  H   H322      1.0  0.07897  0.82261  0.11290  1.0000
  C   C286      1.0  0.03898  0.83849  0.12244  1.0000
  C   C287      1.0  0.26514  0.53420  0.99438  1.0000
  S   S85       1.0  0.47927  0.73731  0.98340  1.0000
  H   H323      1.0  0.00685  0.80328  0.03182  1.0000
  S   S86       1.0  0.48412  0.59717  0.01343  1.0000
  H   H324      1.0  0.10282  0.58311  0.99015  1.0000
  N   N17       1.0  0.26067  0.62148  0.03538  1.0000
  C   C288      1.0  0.24758  0.61421  0.01776  1.0000
  C   C289      1.0  0.24597  0.58396  0.04442  1.0000
  C   C290      1.0  0.24271  0.64160  0.04344  1.0000
  C   C291      1.0  0.30337  0.64500  0.03552  1.0000
  C   C292      1.0  0.32214  0.68475  0.03124  1.0000
  C   C293      1.0  0.32751  0.62888  0.03880  1.0000
  C   C294      1.0  0.36244  0.70720  0.03126  1.0000
  C   C295      1.0  0.36775  0.65150  0.03856  1.0000
  C   C296      1.0  0.38516  0.69059  0.03501  1.0000
  H   H325      1.0  0.25966  0.59830  0.01136  1.0000
  H   H326      1.0  0.47822  0.74725  0.01934  1.0000
  C   C297      1.0  0.02404  0.81770  0.04266  1.0000
  H   H327      1.0  0.25291  0.56435  0.03774  1.0000
  H   H328      1.0  0.21386  0.56830  0.04554  1.0000
  H   H329      1.0  0.25786  0.58765  0.05734  1.0000
  H   H330      1.0  0.24666  0.66706  0.03607  1.0000
  H   H331      1.0  0.21076  0.62310  0.04467  1.0000
  H   H332      1.0  0.30604  0.69895  0.02775  1.0000
  H   H333      1.0  0.31615  0.59878  0.04155  1.0000
  H   H334      1.0  0.37614  0.73768  0.02834  1.0000
  H   H335      1.0  0.38559  0.63852  0.04114  1.0000
  H   H336      1.0  0.41635  0.70786  0.03510  1.0000
  H   H337      1.0  0.14798  0.89470  0.07740  1.0000
  C   C298      1.0  0.40572  0.82953  0.10150  1.0000
  C   C299      1.0  0.02014  0.00016  0.09828  1.0000
  H   H338      1.0  0.09002  0.66933  0.98662  1.0000
  H   H339      1.0  0.40369  0.81964  0.11443  1.0000
  N   N18       1.0  0.38501  0.89866  0.07585  1.0000
  H   H340      1.0  0.40272  0.92826  0.09929  1.0000
  C   C300      1.0  0.39028  0.91043  0.05784  1.0000
  C   C301      1.0  0.34348  0.88257  0.07986  1.0000
  C   C302      1.0  0.39696  0.87005  0.08024  1.0000
  Fe  Fe45      1.0  0.48463  0.68862  0.99559  1.0000
  S   S87       1.0  0.22276  0.51675  0.98230  1.0000
  H   H341      1.0  0.33712  0.87528  0.09338  1.0000
  C   C303      1.0  0.00825  0.90036  0.10006  1.0000
  H   H342      1.0  0.40649  0.72533  0.97013  1.0000
  H   H343      1.0  0.38088  0.93179  0.05486  1.0000
  C   C304      1.0  0.04422  0.59320  0.99456  1.0000
  C   C305      1.0  0.06763  0.85575  0.07059  1.0000
  H   H344      1.0  0.08231  0.87005  0.08186  1.0000
  H   H345      1.0  0.37236  0.88563  0.04978  1.0000
  H   H346      1.0  0.42847  0.79458  0.09285  1.0000
  N   N19       1.0  0.34576  0.69449  0.97642  1.0000
  H   H347      1.0  0.05864  0.59164  0.00640  1.0000
  C   C306      1.0  0.04888  0.81347  0.11528  1.0000
  C   C307      1.0  0.14652  0.91450  0.06778  1.0000
  H   H348      1.0  0.40093  0.95644  0.08205  1.0000
  C   C308      1.0  0.28255  0.63287  0.97114  1.0000
  C   C309      1.0  0.08637  0.86444  0.05474  1.0000
  H   H349      1.0  0.43319  0.81700  0.06328  1.0000
  C   C310      1.0  0.45175  0.50831  0.21484  1.0000
  H   H350      1.0  0.38542  0.53283  0.97030  1.0000
  H   H351      1.0  0.45753  0.78559  0.03562  1.0000
  H   H352      1.0  0.23614  0.50798  0.01760  1.0000
  C   C311      1.0  0.26377  0.52530  0.01148  1.0000
  H   H353      1.0  0.14824  0.85450  0.05452  1.0000
  H   H354      1.0  0.28812  0.61684  0.98073  1.0000
  H   H355      1.0  0.02784  0.75738  0.10559  1.0000
  H   H356      1.0  0.02211  0.56320  0.99183  1.0000
  C   C312      1.0  0.35452  0.67119  0.98862  1.0000
  H   H357      1.0  0.21555  0.59677  0.01692  1.0000
  H   H358      1.0  0.45524  0.96261  0.98664  1.0000
  H   H359      1.0  0.32023  0.71427  0.99430  1.0000
  H   H360      1.0  0.13140  0.92856  0.07325  1.0000
  H   H361      1.0  0.38370  0.86645  0.10689  1.0000
  H   H362      1.0  0.43726  0.58513  0.21539  1.0000
  C   C313      1.0  0.14970  0.87720  0.04575  1.0000
  H   H363      1.0  0.17681  0.93758  0.06537  1.0000
  H   H364      1.0  0.25471  0.65086  0.05620  1.0000
  H   H365      1.0  0.35604  0.64766  0.98237  1.0000
  H   H366      1.0  0.13921  0.86423  0.03335  1.0000
  C   C314      1.0  0.02811  0.82960  0.07218  1.0000
  H   H367      1.0  0.25639  0.64129  0.01046  1.0000
  H   H368      1.0  0.11113  0.93577  0.04373  1.0000
  C   C315      1.0  0.02583  0.63730  0.21402  1.0000
  H   H369      1.0  0.41421  0.86334  0.05512  1.0000
  H   H370      1.0  0.33324  0.90307  0.07639  1.0000
  H   H371      1.0  0.01992  0.98156  0.08878  1.0000
  S   S88       1.0  0.20067  0.99807  0.09411  1.0000
  N   N20       1.0  0.12728  0.89441  0.05222  1.0000
  C   C316      1.0  0.39687  0.52854  0.98242  1.0000
  H   H372      1.0  0.33278  0.65875  0.99884  1.0000
  C   C317      1.0  0.41968  0.81536  0.08938  1.0000
  S   S89       1.0  0.07687  0.66011  0.21405  1.0000
  S   S90       1.0  0.15919  0.51340  0.02115  1.0000
  H   H373      1.0  0.38316  0.68870  0.99477  1.0000
  H   H374      1.0  0.02274  0.63492  0.18710  1.0000
  H   H375      1.0  0.45692  0.79256  0.97365  1.0000
  H   H376      1.0  0.06147  0.86727  0.12540  1.0000
  H   H377      1.0  0.22731  0.67754  0.97318  1.0000
  H   H378      1.0  0.26579  0.98273  0.01876  1.0000
  C   C318      1.0  0.00632  0.62816  0.19859  1.0000
  C   C319      1.0  0.10221  0.64986  0.98590  1.0000
  C   C320      1.0  0.46475  0.97981  0.97520  1.0000
  H   H379      1.0  0.02937  0.60965  0.99720  1.0000
  C   C321      1.0  0.44359  0.56381  0.20978  1.0000
  H   H380      1.0  0.36098  0.98976  0.99370  1.0000
  H   H381      1.0  0.39345  0.54646  0.99178  1.0000
  N   N21       1.0  0.07233  0.61123  0.98058  1.0000
  H   H382      1.0  0.47322  0.57979  0.20438  1.0000
  H   H383      1.0  0.00734  0.89625  0.05174  1.0000
  C   C322      1.0  0.03944  0.00164  0.11323  1.0000
  C   C323      1.0  0.09089  0.58772  0.97819  1.0000
  H   H384      1.0  0.34324  0.74699  0.97716  1.0000
  H   H385      1.0  0.42845  0.54036  0.98058  1.0000
  C   C324      1.0  0.30847  0.67233  0.96760  1.0000
  H   H386      1.0  0.37219  0.74194  0.99315  1.0000
  H   H387      1.0  0.11525  0.60115  0.96914  1.0000
  C   C325      1.0  0.00027  0.82687  0.12572  1.0000
  Fe  Fe46      1.0  0.15110  0.93900  0.32222  1.0000
  S   S91       1.0  0.14606  0.91938  0.34929  1.0000
  S   S92       1.0  0.16459  0.91590  0.29914  1.0000
  H   H388      1.0  0.01399  0.94933  0.35279  1.0000
  S   S93       1.0  0.30936  0.50676  0.23102  1.0000
  Fe  Fe47      1.0  0.17856  0.98244  0.35486  1.0000
  H   H389      1.0  0.00707  0.94195  0.33088  1.0000
  Fe  Fe48      1.0  0.09274  0.92522  0.34941  1.0000
  S   S94       1.0  0.03685  0.88702  0.36315  1.0000
  H   H390      1.0  0.28961  0.63882  0.22422  1.0000
  S   S95       1.0  0.09523  0.93993  0.32208  1.0000
  S   S96       1.0  0.38911  0.56147  0.26586  1.0000
  Fe  Fe49      1.0  0.20364  0.73112  0.24358  1.0000
  S   S97       1.0  0.19661  0.71507  0.27085  1.0000
  S   S98       1.0  0.26071  0.77119  0.23107  1.0000
  Fe  Fe50      1.0  0.11771  0.67875  0.23635  1.0000
  S   S99       1.0  0.10426  0.65816  0.26320  1.0000
  H   H391      1.0  0.08996  0.74260  0.26009  1.0000
  Fe  Fe51      1.0  0.14317  0.72020  0.26930  1.0000
  S   S100      1.0  0.12829  0.74460  0.29138  1.0000
  Fe  Fe52      1.0  0.15907  0.65498  0.26239  1.0000
  S   S101      1.0  0.17110  0.61158  0.27562  1.0000
  S   S102      1.0  0.15302  0.74122  0.24247  1.0000
  S   S103      1.0  0.16968  0.67069  0.23511  1.0000
  Fe  Fe53      1.0  0.46846  0.82967  0.25779  1.0000
  S   S104      1.0  0.47284  0.82031  0.23063  1.0000
  S   S105      1.0  0.41774  0.82811  0.27074  1.0000
  C   C326      1.0  0.38571  0.95820  0.43057  1.0000
  H   H392      1.0  0.47017  0.61397  0.45062  1.0000
  C   C327      1.0  0.30414  0.78581  0.24214  1.0000
  C   C328      1.0  0.33937  0.80404  0.23345  1.0000
  C   C329      1.0  0.37442  0.81611  0.24204  1.0000
  C   C330      1.0  0.37438  0.81077  0.25942  1.0000
  C   C331      1.0  0.33917  0.79274  0.26810  1.0000
  C   C332      1.0  0.30416  0.77991  0.25946  1.0000
  H   H393      1.0  0.24274  0.80237  0.26124  1.0000
  H   H394      1.0  0.40151  0.83044  0.23528  1.0000
  H   H395      1.0  0.33907  0.78884  0.28156  1.0000
  H   H396      1.0  0.27729  0.76578  0.26624  1.0000
  N   N22       1.0  0.35290  0.98374  0.41126  1.0000
  C   C333      1.0  0.35454  0.88548  0.25725  1.0000
  C   C334      1.0  0.40873  0.60632  0.25515  1.0000
  C   C335      1.0  0.43818  0.63901  0.26273  1.0000
  C   C336      1.0  0.45441  0.67507  0.25446  1.0000
  C   C337      1.0  0.44214  0.67838  0.23832  1.0000
  C   C338      1.0  0.41304  0.64559  0.23068  1.0000
  C   C339      1.0  0.39599  0.60980  0.23914  1.0000
  H   H397      1.0  0.44822  0.63656  0.27511  1.0000
  H   H398      1.0  0.32381  0.86583  0.30381  1.0000
  H   H399      1.0  0.37329  0.58501  0.23317  1.0000
  C   C340      1.0  0.20095  0.53493  0.24553  1.0000
  C   C341      1.0  0.21591  0.54592  0.26162  1.0000
  C   C342      1.0  0.20666  0.56958  0.27070  1.0000
  C   C343      1.0  0.18320  0.58316  0.26362  1.0000
  C   C344      1.0  0.16904  0.57299  0.24738  1.0000
  C   C345      1.0  0.17755  0.54858  0.23844  1.0000
  H   H400      1.0  0.21790  0.57761  0.28323  1.0000
  H   H401      1.0  0.15076  0.58318  0.24186  1.0000
  H   H402      1.0  0.31738  0.99668  0.39461  1.0000
  H   H403      1.0  0.41233  0.90750  0.26669  1.0000
  H   H404      1.0  0.31161  0.63229  0.46274  1.0000
  H   H405      1.0  0.49537  0.57239  0.23370  1.0000
  H   H406      1.0  0.30377  0.94746  0.39591  1.0000
  C   C346      1.0  0.04793  0.79225  0.29907  1.0000
  C   C347      1.0  0.15309  0.86785  0.29716  1.0000
  C   C348      1.0  0.14370  0.84288  0.31105  1.0000
  C   C349      1.0  0.13611  0.80519  0.30903  1.0000
  C   C350      1.0  0.13762  0.79210  0.29312  1.0000
  C   C351      1.0  0.14622  0.81684  0.27917  1.0000
  C   C352      1.0  0.15432  0.85468  0.28123  1.0000
  H   H407      1.0  0.14267  0.85274  0.32337  1.0000
  H   H408      1.0  0.12913  0.78613  0.31987  1.0000
  H   H409      1.0  0.14671  0.80700  0.26680  1.0000
  H   H410      1.0  0.16133  0.87385  0.27042  1.0000
  N   N23       1.0  0.02991  0.72359  0.26353  1.0000
  C   C353      1.0  0.00897  0.00120  0.31059  1.0000
  C   C354      1.0  0.49719  0.99462  0.45286  1.0000
  C   C355      1.0  0.00440  0.62845  0.22880  1.0000
  H   H411      1.0  0.29165  0.70726  0.26447  1.0000
  H   H412      1.0  0.05865  0.70647  0.24583  1.0000
  H   H413      1.0  0.49490  0.51330  0.23356  1.0000
  C   C356      1.0  0.32686  0.71077  0.23512  1.0000
  C   C357      1.0  0.38202  0.89515  0.26987  1.0000
  H   H414      1.0  0.34422  0.73534  0.24328  1.0000
  H   H415      1.0  0.25888  0.69709  0.24730  1.0000
  H   H416      1.0  0.23519  0.84298  0.25927  1.0000
  C   C358      1.0  0.45978  0.60132  0.46331  1.0000
  H   H417      1.0  0.45548  0.57507  0.24209  1.0000
  H   H418      1.0  0.23863  0.66419  0.45401  1.0000
  C   C359      1.0  0.06309  0.73216  0.25257  1.0000
  H   H419      1.0  0.06275  0.85216  0.26579  1.0000
  C   C360      1.0  0.35078  0.89642  0.44479  1.0000
  C   C361      1.0  0.27309  0.64757  0.23235  1.0000
  S   S106      1.0  0.12431  0.98625  0.35713  1.0000
  H   H420      1.0  0.25613  0.88942  0.28094  1.0000
  H   H421      1.0  0.22015  0.78903  0.29765  1.0000
  H   H422      1.0  0.29557  0.86015  0.25074  1.0000
  H   H423      1.0  0.01643  0.66477  0.26711  1.0000
  C   C362      1.0  0.25147  0.86611  0.29011  1.0000
  H   H424      1.0  0.26235  0.78778  0.29100  1.0000
  H   H425      1.0  0.25857  0.65927  0.22401  1.0000
  H   H426      1.0  0.04685  0.79436  0.25064  1.0000
  H   H427      1.0  0.25224  0.65982  0.26218  1.0000
  H   H428      1.0  0.47703  0.70014  0.26040  1.0000
  H   H429      1.0  0.01909  0.63463  0.24073  1.0000
  C   C363      1.0  0.37042  0.88792  0.28655  1.0000
  C   C364      1.0  0.31521  0.86759  0.26121  1.0000
  H   H430      1.0  0.24943  0.62160  0.23862  1.0000
  H   H431      1.0  0.44269  0.56983  0.46153  1.0000
  H   H432      1.0  0.26478  0.81774  0.30771  1.0000
  S   S107      1.0  0.48343  0.78552  0.26704  1.0000
  C   C365      1.0  0.03940  0.75896  0.29069  1.0000
  C   C366      1.0  0.38525  0.93008  0.44142  1.0000
  H   H433      1.0  0.06418  0.85172  0.29667  1.0000
  C   C367      1.0  0.30225  0.85842  0.27810  1.0000
  N   N24       1.0  0.29873  0.67596  0.24471  1.0000
  H   H434      1.0  0.37924  0.68082  0.46043  1.0000
  H   H435      1.0  0.22084  0.85206  0.29432  1.0000
  H   H436      1.0  0.26964  0.87990  0.30124  1.0000
  C   C368      1.0  0.31946  0.66206  0.25583  1.0000
  C   C369      1.0  0.34784  0.68719  0.26721  1.0000
  C   C370      1.0  0.31154  0.62351  0.25612  1.0000
  C   C371      1.0  0.36750  0.67467  0.27796  1.0000
  C   C372      1.0  0.33098  0.61122  0.26713  1.0000
  C   C373      1.0  0.35894  0.63671  0.27797  1.0000
  S   S108      1.0  0.46418  0.72227  0.22684  1.0000
  H   H437      1.0  0.37352  0.96575  0.39062  1.0000
  H   H438      1.0  0.04416  0.98746  0.33862  1.0000
  Fe  Fe54      1.0  0.13070  0.00084  0.32977  1.0000
  H   H439      1.0  0.06849  0.75443  0.24277  1.0000
  C   C374      1.0  0.25185  0.80701  0.29527  1.0000
  H   H440      1.0  0.04826  0.69645  0.28238  1.0000
  C   C375      1.0  0.33120  0.87034  0.29068  1.0000
  H   H441      1.0  0.28920  0.91237  0.42107  1.0000
  H   H442      1.0  0.35519  0.71683  0.26791  1.0000
  H   H443      1.0  0.29062  0.60227  0.24794  1.0000
  H   H444      1.0  0.38971  0.69466  0.28623  1.0000
  H   H445      1.0  0.32500  0.58190  0.26702  1.0000
  H   H446      1.0  0.37448  0.62708  0.28617  1.0000
  N   N25       1.0  0.26077  0.83838  0.28272  1.0000
  H   H447      1.0  0.39202  0.89533  0.29629  1.0000
  C   C376      1.0  0.23476  0.82097  0.26817  1.0000
  H   H448      1.0  0.23428  0.53600  0.26716  1.0000
  H   H449      1.0  0.40350  0.64800  0.21818  1.0000
  H   H450      1.0  0.35060  0.87487  0.45333  1.0000
  H   H451      1.0  0.20419  0.80253  0.27208  1.0000
  H   H452      1.0  0.46061  0.53489  0.24766  1.0000
  C   C377      1.0  0.35150  0.95331  0.42262  1.0000
  C   C378      1.0  0.31673  0.91860  0.42636  1.0000
  H   H453      1.0  0.01542  0.52994  0.44303  1.0000
  C   C379      1.0  0.27436  0.68551  0.25508  1.0000
  H   H454      1.0  0.24680  0.60553  0.45561  1.0000
  H   H455      1.0  0.31224  0.72090  0.22601  1.0000
  Fe  Fe55      1.0  0.33280  0.51158  0.25706  1.0000
  H   H456      1.0  0.36371  0.89062  0.24426  1.0000
  H   H457      1.0  0.28979  0.86446  0.44001  1.0000
  C   C380      1.0  0.05620  0.82564  0.29009  1.0000
  C   C381      1.0  0.02257  0.69016  0.27450  1.0000
  H   H458      1.0  0.41309  0.98413  0.42863  1.0000
  C   C382      1.0  0.31507  0.97367  0.40342  1.0000
  H   H459      1.0  0.03476  0.73468  0.29849  1.0000
  C   C383      1.0  0.31660  0.89068  0.43728  1.0000
  H   H460      1.0  0.29312  0.96966  0.41291  1.0000
  H   H461      1.0  0.02064  0.86758  0.32815  1.0000
  C   C384      1.0  0.03847  0.75814  0.27289  1.0000
  H   H462      1.0  0.41177  0.93461  0.44738  1.0000
  C   C385      1.0  0.01401  0.96361  0.34061  1.0000
  H   H463      1.0  0.04950  0.79264  0.31263  1.0000
  C   C386      1.0  0.04664  0.79262  0.26415  1.0000
  C   C387      1.0  0.05555  0.82582  0.27267  1.0000
  H   H464      1.0  0.34756  0.70541  0.22811  1.0000
  C   C388      1.0  0.38083  0.99209  0.39750  1.0000
  H   H465      1.0  0.33960  0.80883  0.22005  1.0000
  H   H466      1.0  0.16586  0.54017  0.22599  1.0000
  H   H467      1.0  0.39037  0.53030  0.23415  1.0000
  H   H468      1.0  0.02823  0.98957  0.31068  1.0000
  Fe  Fe56      1.0  0.49187  0.77903  0.23994  1.0000
  C   C389      1.0  0.46423  0.55498  0.23704  1.0000
  S   S109      1.0  0.18745  0.00192  0.32774  1.0000
  N   N26       1.0  0.44039  0.53442  0.22236  1.0000
  C   C390      1.0  0.39976  0.51188  0.22804  1.0000
  H   H469      1.0  0.99902  0.99087  0.36660  1.0000
  H   H470      1.0  0.99951  0.73422  0.24326  1.0000
  C   C391      1.0  0.35915  0.68766  0.46626  1.0000
  C   C392      1.0  0.00006  0.51235  0.45385  1.0000
  Fe  Fe57      1.0  0.07997  0.60361  0.49546  1.0000
  S   S110      1.0  0.07073  0.58204  0.52238  1.0000
  H   H471      1.0  0.10553  0.87277  0.53001  1.0000
  Fe  Fe58      1.0  0.15676  0.67582  0.50333  1.0000
  S   S111      1.0  0.15262  0.65951  0.53042  1.0000
  S   S112      1.0  0.20830  0.72875  0.49212  1.0000
  Fe  Fe59      1.0  0.13421  0.60047  0.52188  1.0000
  S   S113      1.0  0.16653  0.57360  0.53457  1.0000
  Fe  Fe60      1.0  0.09010  0.64349  0.52852  1.0000
  S   S114      1.0  0.07029  0.66360  0.55078  1.0000
  S   S115      1.0  0.14201  0.61779  0.49475  1.0000
  S   S116      1.0  0.09540  0.66397  0.50167  1.0000
  S   S117      1.0  0.06866  0.90222  0.60393  1.0000
  Fe  Fe61      1.0  0.42795  0.83944  0.51683  1.0000
  S   S118      1.0  0.43719  0.83649  0.48944  1.0000
  S   S119      1.0  0.36970  0.81094  0.53001  1.0000
  S   S120      1.0  0.32470  0.51898  0.52608  1.0000
  C   C393      1.0  0.32000  0.66006  0.46761  1.0000
  S   S121      1.0  0.46583  0.81539  0.52500  1.0000
  H   H472      1.0  0.47271  0.53813  0.70686  1.0000
  Fe  Fe62      1.0  0.38386  0.55430  0.51512  1.0000
  S   S122      1.0  0.42401  0.61164  0.52635  1.0000
  S   S123      1.0  0.36293  0.54720  0.48864  1.0000
  C   C394      1.0  0.45963  0.72327  0.49649  1.0000
  C   C395      1.0  0.46725  0.72383  0.51363  1.0000
  C   C396      1.0  0.45678  0.68947  0.52258  1.0000
  C   C397      1.0  0.43704  0.65423  0.51466  1.0000
  C   C398      1.0  0.42865  0.65366  0.49759  1.0000
  C   C399      1.0  0.44075  0.68812  0.48845  1.0000
  H   H473      1.0  0.07734  0.98292  0.55497  1.0000
  C   C400      1.0  0.37105  0.98691  0.70144  1.0000
  H   H474      1.0  0.41371  0.62686  0.49132  1.0000
  H   H475      1.0  0.25468  0.58892  0.47587  1.0000
  C   C401      1.0  0.08446  0.94623  0.59294  1.0000
  C   C402      1.0  0.10871  0.98081  0.60086  1.0000
  C   C403      1.0  0.08581  0.98237  0.56782  1.0000
  C   C404      1.0  0.07320  0.94723  0.57637  1.0000
  C   C405      1.0  0.36457  0.67021  0.70695  1.0000
  C   C406      1.0  0.29304  0.66878  0.47487  1.0000
  H   H476      1.0  0.05562  0.92097  0.56998  1.0000
  C   C407      1.0  0.25301  0.75163  0.50276  1.0000
  C   C408      1.0  0.25609  0.74275  0.51955  1.0000
  C   C409      1.0  0.29182  0.76196  0.52780  1.0000
  C   C410      1.0  0.32521  0.78897  0.51918  1.0000
  C   C411      1.0  0.32230  0.79764  0.50233  1.0000
  C   C412      1.0  0.28616  0.77948  0.49423  1.0000
  H   H477      1.0  0.23092  0.72146  0.52626  1.0000
  H   H478      1.0  0.29373  0.75551  0.54091  1.0000
  H   H479      1.0  0.34775  0.81881  0.49563  1.0000
  H   H480      1.0  0.28399  0.78669  0.48125  1.0000
  C   C413      1.0  0.18908  0.55477  0.52230  1.0000
  C   C414      1.0  0.22262  0.55543  0.52833  1.0000
  S   S124      1.0  0.39568  0.50510  0.51529  1.0000
  C   C415      1.0  0.00352  0.72959  0.55053  1.0000
  C   C416      1.0  0.19340  0.52502  0.49709  1.0000
  C   C417      1.0  0.17435  0.53928  0.50668  1.0000
  H   H481      1.0  0.23374  0.56684  0.54053  1.0000
  S   S125      1.0  0.04564  0.57644  0.47188  1.0000
  H   H482      1.0  0.20901  0.61257  0.49575  1.0000
  H   H483      1.0  0.06310  0.95131  0.52781  1.0000
  H   H484      1.0  0.11771  0.98027  0.61365  1.0000
  H   H485      1.0  0.46073  0.71431  0.57653  1.0000
  C   C418      1.0  0.02785  0.69379  0.53550  1.0000
  C   C419      1.0  0.04455  0.68899  0.55022  1.0000
  C   C420      1.0  0.04085  0.70481  0.56505  1.0000
  H   H486      1.0  0.33461  0.72518  0.53744  1.0000
  C   C421      1.0  0.47496  0.58634  0.49060  1.0000
  H   H487      1.0  0.03036  0.68166  0.52402  1.0000
  H   H488      1.0  0.05397  0.70148  0.57646  1.0000
  C   C422      1.0  0.02065  0.72522  0.56520  1.0000
  C   C423      1.0  0.08130  0.87787  0.52927  1.0000
  H   H489      1.0  0.36993  0.97202  0.69023  1.0000
  H   H490      1.0  0.02644  0.00099  0.57248  1.0000
  H   H491      1.0  0.31625  0.70431  0.51762  1.0000
  H   H492      1.0  0.44883  0.95091  0.48887  1.0000
  H   H493      1.0  0.24342  0.66055  0.50009  1.0000
  H   H494      1.0  0.35737  0.63967  0.51908  1.0000
  Fe  Fe63      1.0  0.48802  0.89589  0.49203  1.0000
  C   C424      1.0  0.38465  0.66125  0.55101  1.0000
  H   H495      1.0  0.01381  0.95404  0.53908  1.0000
  N   N27       1.0  0.49176  0.61171  0.47553  1.0000
  H   H496      1.0  0.14815  0.53813  0.50205  1.0000
  C   C425      1.0  0.41407  0.66996  0.56272  1.0000
  H   H497      1.0  0.43572  0.68764  0.47512  1.0000
  N   N28       1.0  0.34598  0.67986  0.53168  1.0000
  H   H498      1.0  0.42316  0.99529  0.48341  1.0000
  C   C426      1.0  0.24209  0.54187  0.51859  1.0000
  C   C427      1.0  0.32813  0.63803  0.70901  1.0000
  C   C428      1.0  0.08770  0.91515  0.52914  1.0000
  C   C429      1.0  0.34075  0.71269  0.52647  1.0000
  Fe  Fe64      1.0  0.01171  0.85251  0.59568  1.0000
  H   H499      1.0  0.39886  0.75195  0.54483  1.0000
  H   H500      1.0  0.27547  0.97094  0.65969  1.0000
  H   H501      1.0  0.28388  0.64311  0.53049  1.0000
  H   H502      1.0  0.18180  0.86778  0.57603  1.0000
  H   H503      1.0  0.11414  0.85317  0.57246  1.0000
  C   C430      1.0  0.35461  0.66547  0.51643  1.0000
  H   H504      1.0  0.11699  0.93904  0.52980  1.0000
  S   S126      1.0  0.47583  0.90077  0.51906  1.0000
  H   H505      1.0  0.45000  0.76579  0.56471  1.0000
  C   C431      1.0  0.04372  0.84719  0.52842  1.0000
  S   S127      1.0  0.25095  0.50927  0.49027  1.0000
  C   C432      1.0  0.40176  0.72799  0.54944  1.0000
  H   H506      1.0  0.25418  0.91575  0.67892  1.0000
  H   H507      1.0  0.30281  0.65834  0.55107  1.0000
  C   C433      1.0  0.43746  0.70750  0.56770  1.0000
  H   H508      1.0  0.26826  0.54323  0.52324  1.0000
  C   C434      1.0  0.26561  0.94415  0.68383  1.0000
  H   H509      1.0  0.46433  0.69031  0.53565  1.0000
  H   H510      1.0  0.30842  0.62200  0.54113  1.0000
  H   H511      1.0  0.36832  0.63193  0.54711  1.0000
  H   H512      1.0  0.38236  0.68770  0.51071  1.0000
  C   C435      1.0  0.43139  0.73645  0.56103  1.0000
  H   H513      1.0  0.35776  0.76201  0.48429  1.0000
  N   N29       1.0  0.16924  0.77856  0.53680  1.0000
  C   C436      1.0  0.17599  0.75369  0.54881  1.0000
  C   C437      1.0  0.14274  0.75387  0.52359  1.0000
  C   C438      1.0  0.20642  0.80580  0.52849  1.0000
  C   C439      1.0  0.15391  0.79952  0.54604  1.0000
  C   C440      1.0  0.11513  0.79182  0.54436  1.0000
  C   C441      1.0  0.17748  0.82741  0.55779  1.0000
  C   C442      1.0  0.10124  0.81113  0.55379  1.0000
  C   C443      1.0  0.16334  0.84674  0.56706  1.0000
  C   C444      1.0  0.12526  0.83858  0.56507  1.0000
  H   H514      1.0  0.14851  0.73216  0.55505  1.0000
  H   H515      1.0  0.18801  0.73772  0.54246  1.0000
  H   H516      1.0  0.19676  0.77022  0.55882  1.0000
  H   H517      1.0  0.11545  0.73011  0.52898  1.0000
  H   H518      1.0  0.15581  0.73984  0.51642  1.0000
  H   H519      1.0  0.13556  0.77063  0.51435  1.0000
  H   H520      1.0  0.20326  0.82711  0.52041  1.0000
  H   H521      1.0  0.23017  0.82156  0.53753  1.0000
  H   H522      1.0  0.21691  0.79087  0.52033  1.0000
  H   H523      1.0  0.09467  0.77047  0.53608  1.0000
  H   H524      1.0  0.20687  0.83400  0.56015  1.0000
  H   H525      1.0  0.07135  0.80428  0.55260  1.0000
  C   C445      1.0  0.05652  0.92186  0.52818  1.0000
  H   H526      1.0  0.25676  0.62372  0.50146  1.0000
  H   H527      1.0  0.40285  0.74573  0.47093  1.0000
  H   H528      1.0  0.36687  0.73583  0.51997  1.0000
  C   C446      1.0  0.49402  0.53283  0.71297  1.0000
  N   N30       1.0  0.25126  0.64083  0.47627  1.0000
  C   C447      1.0  0.23990  0.63438  0.49416  1.0000
  C   C448      1.0  0.37741  0.68995  0.54405  1.0000
  H   H529      1.0  0.41950  0.64758  0.56753  1.0000
  C   C449      1.0  0.28325  0.98505  0.70753  1.0000
  H   H530      1.0  0.33176  0.65766  0.50676  1.0000
  C   C450      1.0  0.22751  0.52660  0.50292  1.0000
  C   C451      1.0  0.30877  0.64953  0.53889  1.0000
  Fe  Fe65      1.0  0.30432  0.50823  0.49959  1.0000
  H   H531      1.0  0.38078  0.67469  0.69554  1.0000
  S   S128      1.0  0.47494  0.76592  0.48462  1.0000
  H   H532      1.0  0.03863  0.81810  0.52852  1.0000
  H   H533      1.0  0.01846  0.73762  0.57664  1.0000
  H   H534      1.0  0.18171  0.51285  0.48505  1.0000
  C   C452      1.0  0.45819  0.96987  0.47793  1.0000
  S   S129      1.0  0.33552  0.91547  0.71655  1.0000
  C   C453      1.0  0.27830  0.97602  0.67296  1.0000
  C   C454      1.0  0.01777  0.89124  0.52774  1.0000
  H   H535      1.0  0.45460  0.59283  0.49718  1.0000
  C   C455      1.0  0.30787  0.70624  0.48093  1.0000
  H   H536      1.0  0.45829  0.55566  0.48734  1.0000
  Fe  Fe66      1.0  0.47829  0.81636  0.49781  1.0000
  C   C456      1.0  0.01326  0.97567  0.60539  1.0000
  C   C457      1.0  0.24009  0.60301  0.46922  1.0000
  H   H537      1.0  0.04022  0.98675  0.59875  1.0000
  C   C458      1.0  0.26835  0.94870  0.70108  1.0000
  C   C459      1.0  0.35658  0.96591  0.71656  1.0000
  H   H538      1.0  0.31603  0.61726  0.69921  1.0000
  C   C460      1.0  0.44380  0.99509  0.47484  1.0000
  C   C461      1.0  0.01042  0.52758  0.46992  1.0000
  H   H539      1.0  0.23135  0.68196  0.47312  1.0000
  H   H540      1.0  0.48259  0.75083  0.51987  1.0000
  H   H541      1.0  0.02390  0.93525  0.61943  1.0000
  C   C462      1.0  0.37260  0.72426  0.47222  1.0000
  C   C463      1.0  0.01230  0.85354  0.52766  1.0000
  H   H542      1.0  0.25972  0.92409  0.70948  1.0000
  C   C464      1.0  0.00731  0.71389  0.53569  1.0000
  H   H543      1.0  0.28905  0.71482  0.48657  1.0000
  C   C465      1.0  0.34709  0.73344  0.47967  1.0000
  H   H544      1.0  0.01369  0.94632  0.50901  1.0000
  C   C466      1.0  0.00417  0.94620  0.61725  1.0000
  H   H545      1.0  0.20845  0.58276  0.47047  1.0000
  H   H546      1.0  0.43941  0.61063  0.46759  1.0000
  H   H547      1.0  0.49760  0.58880  0.49959  1.0000
  C   C467      1.0  0.22881  0.65616  0.46723  1.0000
  H   H548      1.0  0.19733  0.63493  0.46701  1.0000
  C   C468      1.0  0.48530  0.96989  0.46704  1.0000
  Fe  Fe67      1.0  0.04094  0.83267  0.82227  1.0000
  S   S130      1.0  0.06334  0.84100  0.84870  1.0000
  S   S131      1.0  0.06871  0.82495  0.79907  1.0000
  Fe  Fe68      1.0  0.05206  0.89046  0.84857  1.0000
  S   S132      1.0  0.09248  0.94708  0.86042  1.0000
  S   S133      1.0  0.03413  0.88482  0.82174  1.0000
  Fe  Fe69      1.0  0.26918  0.84687  0.77230  1.0000
  Fe  Fe70      1.0  0.15607  0.52360  0.76178  1.0000
  S   S134      1.0  0.24144  0.85678  0.79494  1.0000
  Fe  Fe71      1.0  0.33286  0.82778  0.76410  1.0000
  H   H549      1.0  0.10187  0.76140  0.77064  1.0000
  S   S135      1.0  0.37472  0.81184  0.77643  1.0000
  H   H550      1.0  0.23843  0.89466  0.86562  1.0000
  S   S136      1.0  0.26671  0.52702  0.73231  1.0000
  C   C469      1.0  0.10574  0.74246  0.77998  1.0000
  H   H551      1.0  0.19014  0.91298  0.87358  1.0000
  S   S137      1.0  0.33254  0.88345  0.76574  1.0000
  S   S138      1.0  0.27181  0.79254  0.77316  1.0000
  Fe  Fe72      1.0  0.47801  0.65375  0.76108  1.0000
  H   H552      1.0  0.07656  0.71840  0.78338  1.0000
  S   S139      1.0  0.42644  0.59954  0.77132  1.0000
  H   H553      1.0  0.26586  0.59078  0.75243  1.0000
  H   H554      1.0  0.34430  0.57792  0.72185  1.0000
  S   S140      1.0  0.15847  0.57463  0.77386  1.0000
  C   C470      1.0  0.38185  0.58149  0.76071  1.0000
  C   C471      1.0  0.34726  0.55730  0.76931  1.0000
  H   H555      1.0  0.11156  0.65094  0.77015  1.0000
  C   C472      1.0  0.35790  0.98533  0.73097  1.0000
  C   C473      1.0  0.07799  0.63207  0.95025  1.0000
  H   H556      1.0  0.27957  0.60601  0.72462  1.0000
  H   H557      1.0  0.34813  0.55103  0.78252  1.0000
  H   H558      1.0  0.27980  0.68125  0.76774  1.0000
  H   H559      1.0  0.33230  0.62589  0.76476  1.0000
  C   C474      1.0  0.38028  0.69659  0.71964  1.0000
  H   H560      1.0  0.23219  0.92449  0.81461  1.0000
  H   H561      1.0  0.18363  0.77729  0.78181  1.0000
  C   C475      1.0  0.17655  0.61810  0.76232  1.0000
  C   C476      1.0  0.19663  0.65257  0.77076  1.0000
  C   C477      1.0  0.20879  0.68771  0.76224  1.0000
  C   C478      1.0  0.48693  0.52863  0.94782  1.0000
  H   H562      1.0  0.20226  0.65210  0.78403  1.0000
  H   H563      1.0  0.22360  0.71383  0.76902  1.0000
  C   C479      1.0  0.40167  0.79785  0.76413  1.0000
  S   S141      1.0  0.48357  0.77205  0.73475  1.0000
  H   H564      1.0  0.21952  0.96538  0.79928  1.0000
  H   H565      1.0  0.42522  0.52020  0.72685  1.0000
  C   C480      1.0  0.44023  0.76633  0.76252  1.0000
  C   C481      1.0  0.41651  0.77588  0.77163  1.0000
  C   C482      1.0  0.47366  0.91654  0.94917  1.0000
  H   H566      1.0  0.43149  0.98924  0.93698  1.0000
  H   H567      1.0  0.01731  0.94200  0.84473  1.0000
  H   H568      1.0  0.40983  0.76648  0.78459  1.0000
  C   C483      1.0  0.18103  0.65418  0.73670  1.0000
  H   H569      1.0  0.35372  0.67609  0.76843  1.0000
  H   H570      1.0  0.14064  0.63245  0.81963  1.0000
  C   C484      1.0  0.19269  0.84581  0.79570  1.0000
  C   C485      1.0  0.17429  0.83852  0.81132  1.0000
  C   C486      1.0  0.13636  0.83211  0.81258  1.0000
  C   C487      1.0  0.11635  0.83266  0.79815  1.0000
  C   C488      1.0  0.13446  0.83921  0.78249  1.0000
  C   C489      1.0  0.17251  0.84585  0.78125  1.0000
  H   H571      1.0  0.18953  0.83799  0.82254  1.0000
  H   H572      1.0  0.12260  0.82664  0.82470  1.0000
  H   H573      1.0  0.11913  0.83966  0.77127  1.0000
  H   H574      1.0  0.18650  0.85179  0.76916  1.0000
  H   H575      1.0  0.28591  0.98844  0.72098  1.0000
  C   C490      1.0  0.19928  0.91600  0.86064  1.0000
  C   C491      1.0  0.22232  0.92315  0.82726  1.0000
  H   H576      1.0  0.08949  0.96549  0.82504  1.0000
  C   C492      1.0  0.26311  0.66964  0.94578  1.0000
  S   S142      1.0  0.21200  0.73213  0.73460  1.0000
  H   H577      1.0  0.39910  0.82682  0.74147  1.0000
  S   S143      1.0  0.39009  0.93535  0.96360  1.0000
  C   C493      1.0  0.18723  0.98740  0.82212  1.0000
  H   H578      1.0  0.16956  0.78188  0.76096  1.0000
  H   H579      1.0  0.44217  0.81116  0.72551  1.0000
  H   H580      1.0  0.10890  0.64355  0.95072  1.0000
  H   H581      1.0  0.48600  0.95644  0.91041  1.0000
  H   H582      1.0  0.17454  0.65468  0.72353  1.0000
  C   C494      1.0  0.23868  0.63085  0.94937  1.0000
  C   C495      1.0  0.02223  0.62027  0.93350  1.0000
  C   C496      1.0  0.46510  0.92597  0.93339  1.0000
  H   H583      1.0  0.48637  0.54421  0.93664  1.0000
  H   H584      1.0  0.25527  0.68404  0.93611  1.0000
  C   C497      1.0  0.49445  0.54620  0.96338  1.0000
  H   H585      1.0  0.25885  0.90097  0.83602  1.0000
  C   C498      1.0  0.01412  0.59952  0.96267  1.0000
  H   H586      1.0  0.11900  0.93109  0.80929  1.0000
  Fe  Fe73      1.0  0.31211  0.87343  0.73894  1.0000
  H   H587      1.0  0.17318  0.95589  0.79193  1.0000
  H   H588      1.0  0.18937  0.75127  0.76545  1.0000
  C   C499      1.0  0.49481  0.94975  0.92228  1.0000
  H   H589      1.0  0.18011  0.91662  0.79785  1.0000
  N   N31       1.0  0.17618  0.94730  0.81865  1.0000
  C   C500      1.0  0.18339  0.92977  0.84846  1.0000
  H   H590      1.0  0.46967  0.59852  0.74181  1.0000
  H   H591      1.0  0.17695  0.99002  0.83462  1.0000
  N   N32       1.0  0.13073  0.72814  0.77346  1.0000
  C   C501      1.0  0.43679  0.52229  0.73974  1.0000
  C   C502      1.0  0.34496  0.57243  0.73515  1.0000
  H   H592      1.0  0.08487  0.68619  0.75829  1.0000
  C   C503      1.0  0.41028  0.80974  0.74735  1.0000
  N   N33       1.0  0.30209  0.65226  0.75312  1.0000
  C   C504      1.0  0.29622  0.68526  0.75600  1.0000
  C   C505      1.0  0.26353  0.61700  0.75380  1.0000
  C   C506      1.0  0.32262  0.65818  0.73706  1.0000
  C   C507      1.0  0.23806  0.90946  0.83956  1.0000
  C   C508      1.0  0.16993  0.76107  0.77034  1.0000
  C   C509      1.0  0.32567  0.64922  0.76698  1.0000
  H   H593      1.0  0.31048  0.64294  0.77923  1.0000
  H   H594      1.0  0.11805  0.75980  0.79132  1.0000
  H   H595      1.0  0.27974  0.68930  0.74550  1.0000
  H   H596      1.0  0.32387  0.71267  0.75723  1.0000
  C   C510      1.0  0.45151  0.99494  0.94722  1.0000
  H   H597      1.0  0.24863  0.61344  0.76597  1.0000
  H   H598      1.0  0.43514  0.91573  0.93001  1.0000
  C   C511      1.0  0.16940  0.61896  0.74517  1.0000
  H   H599      1.0  0.37318  0.71202  0.74394  1.0000
  S   S144      1.0  0.16863  0.52083  0.73484  1.0000
  H   H600      1.0  0.16094  0.69930  0.82666  1.0000
  H   H601      1.0  0.45046  0.89909  0.95790  1.0000
  C   C512      1.0  0.13348  0.92343  0.81948  1.0000
  H   H602      1.0  0.48451  0.52717  0.76462  1.0000
  C   C513      1.0  0.20054  0.68868  0.74523  1.0000
  H   H603      1.0  0.47516  0.58705  0.72110  1.0000
  C   C514      1.0  0.11481  0.71074  0.75703  1.0000
  C   C515      1.0  0.13300  0.70134  0.78592  1.0000
  C   C516      1.0  0.12161  0.66279  0.78234  1.0000
  H   H604      1.0  0.45139  0.74945  0.76846  1.0000
  C   C517      1.0  0.06196  0.63501  0.93496  1.0000
  C   C518      1.0  0.10859  0.99067  0.84914  1.0000
  C   C519      1.0  0.12412  0.63833  0.79448  1.0000
  H   H605      1.0  0.16241  0.93738  0.85258  1.0000
  H   H606      1.0  0.12408  0.89263  0.81834  1.0000
  H   H607      1.0  0.04424  0.99528  0.86533  1.0000
  S   S145      1.0  0.48400  0.67508  0.73446  1.0000
  C   C520      1.0  0.14717  0.71372  0.80229  1.0000
  C   C521      1.0  0.13822  0.65144  0.81039  1.0000
  Fe  Fe74      1.0  0.25558  0.78814  0.74611  1.0000
  C   C522      1.0  0.43475  0.80091  0.73835  1.0000
  C   C523      1.0  0.45015  0.77952  0.74594  1.0000
  H   H608      1.0  0.06511  0.51642  0.72758  1.0000
  C   C524      1.0  0.14971  0.68906  0.81430  1.0000
  C   C525      1.0  0.38049  0.58933  0.74363  1.0000
  H   H609      1.0  0.15676  0.74276  0.80588  1.0000
  C   C526      1.0  0.18792  0.94626  0.80120  1.0000
  C   C527      1.0  0.48984  0.55469  0.75866  1.0000
  C   C528      1.0  0.22647  0.90573  0.85619  1.0000
  C   C529      1.0  0.19401  0.93328  0.83133  1.0000
  C   C530      1.0  0.31037  0.54841  0.74371  1.0000
  H   H610      1.0  0.11371  0.73172  0.74795  1.0000
  H   H611      1.0  0.40682  0.60764  0.73683  1.0000
  H   H612      1.0  0.13336  0.70091  0.75107  1.0000
  H   H613      1.0  0.15380  0.59248  0.73856  1.0000
  H   H614      1.0  0.34683  0.96948  0.74266  1.0000
  H   H615      1.0  0.11614  0.60928  0.79135  1.0000
  S   S146      1.0  0.24866  0.84038  0.74561  1.0000
  C   C531      1.0  0.29728  0.69025  0.95486  1.0000
  N   N34       1.0  0.47873  0.55028  0.74068  1.0000
  H   H616      1.0  0.31481  0.72051  0.95191  1.0000
  H   H617      1.0  0.41960  0.53064  0.74774  1.0000
  C   C532      1.0  0.05457  0.61430  0.96461  1.0000
  S   S147      1.0  0.31682  0.82008  0.73699  1.0000
  C   C533      1.0  0.31152  0.54121  0.76089  1.0000
  H   H618      1.0  0.21208  0.61490  0.94240  1.0000
  H   H619      1.0  0.47288  0.56444  0.76597  1.0000
  C   C534      1.0  0.24824  0.61263  0.96209  1.0000
  H   H620      1.0  0.12149  0.92635  0.83142  1.0000
  C   C535      1.0  0.00577  0.95814  0.83742  1.0000
  H   H621      1.0  0.37678  0.68915  0.95582  1.0000
  H   H622      1.0  0.08036  0.64857  0.92414  1.0000
  C   C536      1.0  0.35968  0.69080  0.73445  1.0000
  H   H623      1.0  0.17455  0.99918  0.81279  1.0000
  H   H624      1.0  0.01641  0.52324  0.74361  1.0000
  H   H625      1.0  0.28502  0.52256  0.76757  1.0000
  H   H626      1.0  0.24393  0.61767  0.74389  1.0000
  C   C537      1.0  0.10371  0.99171  0.83181  1.0000
  S   S148      1.0  0.49394  0.71025  0.77195  1.0000
  C   C538      1.0  0.00786  0.50681  0.73230  1.0000
  S   S149      1.0  0.19841  0.50670  0.77189  1.0000
  H   H627      1.0  0.00976  0.62228  0.92161  1.0000
  C   C539      1.0  0.48527  0.58786  0.73418  1.0000
  Fe  Fe75      1.0  0.00055  0.80462  0.85610  1.0000
  H   H628      1.0  0.40874  0.72160  0.71807  1.0000
  H   H629      1.0  0.02769  0.97553  0.82774  1.0000
  H   H630      1.0  0.37699  0.73394  0.95584  1.0000
  H   H631      1.0  0.49506  0.84203  0.78060  1.0000
  C   C540      1.0  0.37769  0.71146  0.96399  1.0000
  C   C541      1.0  0.30731  0.63191  0.72381  1.0000
  C   C542      1.0  0.43875  0.97235  0.96202  1.0000
  H   H632      1.0  0.22899  0.58245  0.96489  1.0000
  H   H633      1.0  0.38103  0.00423  0.96412  1.0000
  Fe  Fe76      1.0  0.92524  0.16537  0.09870  1.0000
  S   S150      1.0  0.90254  0.15613  0.07231  1.0000
  S   S151      1.0  0.90270  0.18019  0.12162  1.0000
  C   C543      1.0  0.78115  0.06076  0.13325  1.0000
  H   H634      1.0  0.89253  0.40867  0.20016  1.0000
  Fe  Fe77      1.0  0.96455  0.19632  0.06482  1.0000
  C   C544      1.0  0.97927  0.38457  0.07505  1.0000
  Fe  Fe78      1.0  0.91831  0.10972  0.07199  1.0000
  S   S152      1.0  0.88520  0.05328  0.05898  1.0000
  H   H635      1.0  0.95770  0.45629  0.19837  1.0000
  S   S153      1.0  0.93577  0.11546  0.09898  1.0000
  S   S154      1.0  0.55841  0.40100  0.14921  1.0000
  Fe  Fe79      1.0  0.82858  0.48750  0.16591  1.0000
  H   H636      1.0  0.61826  0.34125  0.16982  1.0000
  S   S155      1.0  0.83755  0.43973  0.15706  1.0000
  C   C545      1.0  0.86713  0.01031  0.07087  1.0000
  H   H637      1.0  0.97063  0.30694  0.10989  1.0000
  Fe  Fe80      1.0  0.71054  0.16923  0.15344  1.0000
  S   S156      1.0  0.73232  0.17607  0.17999  1.0000
  S   S157      1.0  0.73346  0.15533  0.13035  1.0000
  Fe  Fe81      1.0  0.64104  0.17717  0.16301  1.0000
  S   S158      1.0  0.65664  0.18316  0.19017  1.0000
  S   S159      1.0  0.59320  0.18444  0.15110  1.0000
  Fe  Fe82      1.0  0.71700  0.22280  0.18102  1.0000
  C   C546      1.0  0.71097  0.36909  0.16042  1.0000
  Fe  Fe83      1.0  0.66998  0.13552  0.18688  1.0000
  H   H638      1.0  0.68896  0.08407  0.17385  1.0000
  S   S160      1.0  0.70065  0.21948  0.15396  1.0000
  S   S161      1.0  0.64896  0.12604  0.16026  1.0000
  H   H639      1.0  0.57105  0.40942  0.18500  1.0000
  C   C547      1.0  0.71015  0.08443  0.16483  1.0000
  C   C548      1.0  0.65702  0.29455  0.19171  1.0000
  H   H640      1.0  0.64745  0.27299  0.15831  1.0000
  H   H641      1.0  0.62388  0.03423  0.18174  1.0000
  C   C549      1.0  0.81069  0.39444  0.16719  1.0000
  C   C550      1.0  0.80681  0.36175  0.15961  1.0000
  C   C551      1.0  0.78606  0.32550  0.16762  1.0000
  C   C552      1.0  0.77004  0.32201  0.18347  1.0000
  C   C553      1.0  0.77365  0.35462  0.19095  1.0000
  C   C554      1.0  0.79356  0.39062  0.18279  1.0000
  H   H642      1.0  0.81978  0.36442  0.14750  1.0000
  H   H643      1.0  0.78346  0.30047  0.16178  1.0000
  H   H644      1.0  0.60392  0.29159  0.16941  1.0000
  H   H645      1.0  0.79646  0.41543  0.18882  1.0000
  C   C555      1.0  0.52652  0.11667  0.98616  1.0000
  C   C556      1.0  0.53019  0.23354  0.16361  1.0000
  C   C557      1.0  0.55120  0.22054  0.15462  1.0000
  C   C558      1.0  0.56963  0.20291  0.16297  1.0000
  C   C559      1.0  0.56729  0.19875  0.18043  1.0000
  N   N35       1.0  0.65849  0.32675  0.18151  1.0000
  H   H646      1.0  0.70583  0.36989  0.19558  1.0000
  H   H647      1.0  0.55302  0.22393  0.14112  1.0000
  H   H648      1.0  0.58101  0.18478  0.18698  1.0000
  C   C560      1.0  0.60047  0.41836  0.16153  1.0000
  C   C561      1.0  0.63659  0.43286  0.15376  1.0000
  C   C562      1.0  0.67068  0.44913  0.16333  1.0000
  C   C563      1.0  0.66884  0.45193  0.18065  1.0000
  C   C564      1.0  0.63272  0.43673  0.18843  1.0000
  C   C565      1.0  0.59865  0.41990  0.17892  1.0000
  H   H649      1.0  0.63812  0.43144  0.14032  1.0000
  H   H650      1.0  0.54267  0.20655  0.20283  1.0000
  H   H651      1.0  0.72027  0.39463  0.16748  1.0000
  H   H652      1.0  0.60027  0.31145  0.18849  1.0000
  C   C566      1.0  0.99334  0.49054  0.97627  1.0000
  H   H653      1.0  0.76146  0.35208  0.20323  1.0000
  C   C567      1.0  0.85584  0.17400  0.12358  1.0000
  C   C568      1.0  0.82805  0.15731  0.11105  1.0000
  C   C569      1.0  0.79072  0.15193  0.11331  1.0000
  C   C570      1.0  0.78090  0.16319  0.12807  1.0000
  C   C571      1.0  0.80880  0.18018  0.14055  1.0000
  C   C572      1.0  0.84618  0.18567  0.13827  1.0000
  H   H654      1.0  0.83508  0.14804  0.09973  1.0000
  H   H655      1.0  0.76922  0.13874  0.10362  1.0000
  H   H656      1.0  0.80159  0.18908  0.15193  1.0000
  H   H657      1.0  0.86757  0.19861  0.14802  1.0000
  H   H658      1.0  0.89988  0.21873  0.09027  1.0000
  C   C573      1.0  0.72190  0.34198  0.13588  1.0000
  H   H659      1.0  0.86608  0.03469  0.09429  1.0000
  C   C574      1.0  0.75364  0.05670  0.14500  1.0000
  H   H660      1.0  0.68421  0.28152  0.13305  1.0000
  C   C575      1.0  0.67094  0.30143  0.15531  1.0000
  C   C576      1.0  0.87986  0.42041  0.20824  1.0000
  C   C577      1.0  0.73125  0.37346  0.14564  1.0000
  H   H661      1.0  0.69353  0.01189  0.16704  1.0000
  C   C578      1.0  0.96245  0.49802  0.97559  1.0000
  H   H662      1.0  0.89489  0.49131  0.17955  1.0000
  H   H663      1.0  0.72788  0.08908  0.19694  1.0000
  C   C579      1.0  0.61854  0.31739  0.17715  1.0000
  C   C580      1.0  0.94303  0.31216  0.06112  1.0000
  H   H664      1.0  0.94909  0.49918  0.98707  1.0000
  H   H665      1.0  0.96020  0.34263  0.03735  1.0000
  Fe  Fe84      1.0  0.99491  0.15751  0.08931  1.0000
  C   C581      1.0  0.93188  0.36799  0.98182  1.0000
  H   H666      1.0  0.94413  0.36377  0.99335  1.0000
  H   H667      1.0  0.77206  0.04754  0.12118  1.0000
  H   H668      1.0  0.94527  0.04258  0.08759  1.0000
  H   H669      1.0  0.72806  0.11430  0.15995  1.0000
  H   H670      1.0  0.97425  0.49561  0.18360  1.0000
  H   H671      1.0  0.69312  0.06709  0.15410  1.0000
  H   H672      1.0  0.87352  0.33808  0.99098  1.0000
  C   C582      1.0  0.82039  0.08265  0.13678  1.0000
  H   H673      1.0  0.65895  0.35514  0.20410  1.0000
  S   S162      1.0  0.97595  0.23934  0.04337  1.0000
  H   H674      1.0  0.95450  0.04774  0.06572  1.0000
  S   S163      1.0  0.71082  0.47648  0.19288  1.0000
  C   C583      1.0  0.61680  0.01955  0.19382  1.0000
  C   C584      1.0  0.62797  0.04061  0.20845  1.0000
  C   C585      1.0  0.50317  0.00975  0.97360  1.0000
  C   C586      1.0  0.95995  0.34513  0.05081  1.0000
  H   H675      1.0  0.96371  0.35589  0.09883  1.0000
  H   H676      1.0  0.76879  0.08239  0.19539  1.0000
  S   S164      1.0  0.49904  0.33755  0.18846  1.0000
  N   N36       1.0  0.73490  0.07055  0.17275  1.0000
  H   H677      1.0  0.93070  0.28524  0.05483  1.0000
  H   H678      1.0  0.86297  0.11850  0.15448  1.0000
  S   S165      1.0  0.74806  0.27820  0.19491  1.0000
  C   C587      1.0  0.76472  0.07481  0.16067  1.0000
  C   C588      1.0  0.75113  0.09237  0.18828  1.0000
  H   H679      1.0  0.51118  0.10447  0.16509  1.0000
  H   H680      1.0  0.67445  0.38543  0.18593  1.0000
  H   H681      1.0  0.72356  0.03982  0.14159  1.0000
  S   S166      1.0  0.65735  0.09128  0.20806  1.0000
  C   C589      1.0  0.94812  0.47295  0.19024  1.0000
  N   N37       1.0  0.92909  0.48952  0.20017  1.0000
  H   H682      1.0  0.84174  0.08671  0.12748  1.0000
  H   H683      1.0  0.64287  0.29093  0.20405  1.0000
  H   H684      1.0  0.68660  0.29909  0.19404  1.0000
  S   S167      1.0  0.78173  0.49638  0.15469  1.0000
  H   H685      1.0  0.76905  0.12364  0.18542  1.0000
  H   H686      1.0  0.68877  0.02561  0.18744  1.0000
  H   H687      1.0  0.63106  0.43874  0.20183  1.0000
  S   S168      1.0  0.97830  0.14879  0.06227  1.0000
  S   S169      1.0  0.98636  0.20843  0.09125  1.0000
  H   H688      1.0  0.51645  0.24728  0.15708  1.0000
  C   C590      1.0  0.67534  0.36084  0.19221  1.0000
  H   H689      1.0  0.98391  0.28537  0.09388  1.0000
  C   C591      1.0  0.68051  0.33263  0.16588  1.0000
  C   C592      1.0  0.54545  0.21098  0.18939  1.0000
  H   H690      1.0  0.73838  0.34540  0.12467  1.0000
  C   C593      1.0  0.69161  0.30608  0.14065  1.0000
  H   H691      1.0  0.75519  0.40130  0.14199  1.0000
  H   H692      1.0  0.87340  0.27819  0.09285  1.0000
  H   H693      1.0  0.64019  0.26654  0.18562  1.0000
  H   H694      1.0  0.92843  0.45407  0.18034  1.0000
  N   N38       1.0  0.92808  0.28040  0.09026  1.0000
  C   C594      1.0  0.95923  0.28248  0.10136  1.0000
  C   C595      1.0  0.89698  0.27893  0.10076  1.0000
  C   C596      1.0  0.91149  0.24378  0.08136  1.0000
  C   C597      1.0  0.94397  0.31455  0.07887  1.0000
  H   H695      1.0  0.93375  0.24238  0.07362  1.0000
  C   C598      1.0  0.96203  0.35182  0.08549  1.0000
  H   H696      1.0  0.81645  0.11226  0.17530  1.0000
  H   H697      1.0  0.72816  0.01753  0.18293  1.0000
  C   C599      1.0  0.80507  0.09687  0.16391  1.0000
  S   S170      1.0  0.81390  0.49156  0.19236  1.0000
  H   H698      1.0  0.94891  0.25633  0.10954  1.0000
  C   C600      1.0  0.97848  0.38121  0.05774  1.0000
  H   H699      1.0  0.88694  0.23946  0.07314  1.0000
  C   C601      1.0  0.71035  0.02963  0.17773  1.0000
  H   H700      1.0  0.88378  0.25291  0.10919  1.0000
  H   H701      1.0  0.90765  0.30388  0.10899  1.0000
  C   C602      1.0  0.52646  0.22803  0.18098  1.0000
  C   C603      1.0  0.83230  0.10053  0.15208  1.0000
  H   H702      1.0  0.99607  0.03112  0.05320  1.0000
  H   H703      1.0  0.99314  0.40658  0.04969  1.0000
  H   H704      1.0  0.52307  0.01548  0.98389  1.0000
  C   C604      1.0  0.89465  0.46047  0.20955  1.0000
  Fe  Fe85      1.0  0.50371  0.35366  0.16123  1.0000
  C   C605      1.0  0.86036  0.00897  0.08805  1.0000
  H   H705      1.0  0.69827  0.45999  0.15724  1.0000
  H   H706      1.0  0.52637  0.08958  0.98361  1.0000
  C   C606      1.0  0.96796  0.04863  0.07814  1.0000
  H   H707      1.0  0.55535  0.14061  0.98219  1.0000
  C   C607      1.0  0.89219  0.35361  0.98045  1.0000
  H   H708      1.0  0.52481  0.11817  0.99994  1.0000
  H   H709      1.0  0.98974  0.06304  0.10833  1.0000
  N   N39       1.0  0.98199  0.02068  0.07958  1.0000
  H   H710      1.0  0.51999  0.17945  0.97902  1.0000
  H   H711      1.0  0.83577  0.36340  0.21575  1.0000
  H   H712      1.0  0.99199  0.07853  0.07957  1.0000
  H   H713      1.0  0.50362  0.11417  0.13498  1.0000
  C   C608      1.0  0.95595  0.38809  0.96836  1.0000
  H   H714      1.0  0.98693  0.39969  0.96953  1.0000
  H   H715      1.0  0.99406  0.41275  0.08037  1.0000
  H   H716      1.0  0.99857  0.29564  0.01677  1.0000
  Fe  Fe86      1.0  0.58715  0.44569  0.40866  1.0000
  S   S171      1.0  0.60375  0.45308  0.43565  1.0000
  S   S172      1.0  0.55247  0.38748  0.39710  1.0000
  H   H717      1.0  0.62593  0.03686  0.23541  1.0000
  C   C609      1.0  0.75596  0.45617  0.43655  1.0000
  H   H718      1.0  0.60051  0.25502  0.35139  1.0000
  N   N40       1.0  0.59483  0.28078  0.37360  1.0000
  C   C610      1.0  0.69948  0.34290  0.45135  1.0000
  Fe  Fe87      1.0  0.82358  0.38912  0.41296  1.0000
  S   S173      1.0  0.81444  0.37468  0.44030  1.0000
  S   S174      1.0  0.80434  0.42725  0.39957  1.0000
  Fe  Fe88      1.0  0.85559  0.33490  0.40765  1.0000
  S   S175      1.0  0.84790  0.31599  0.43491  1.0000
  S   S176      1.0  0.87042  0.31035  0.38535  1.0000
  Fe  Fe89      1.0  0.79050  0.31390  0.43292  1.0000
  S   S177      1.0  0.73403  0.27220  0.44567  1.0000
  Fe  Fe90      1.0  0.87270  0.37887  0.44005  1.0000
  C   C611      1.0  0.84117  0.44517  0.22886  1.0000
  S   S178      1.0  0.79594  0.32800  0.40551  1.0000
  S   S179      1.0  0.88404  0.39809  0.41290  1.0000
  Fe  Fe91      1.0  0.96319  0.15150  0.33027  1.0000
  N   N41       1.0  0.65200  0.35340  0.43415  1.0000
  S   S180      1.0  0.90925  0.10042  0.32027  1.0000
  H   H719      1.0  0.75702  0.45676  0.45005  1.0000
  S   S181      1.0  0.98117  0.23917  0.37784  1.0000
  Fe  Fe92      1.0  0.52590  0.15040  0.41275  1.0000
  S   S182      1.0  0.58549  0.17091  0.40207  1.0000
  S   S183      1.0  0.51437  0.15609  0.43952  1.0000
  C   C612      1.0  0.90305  0.29262  0.38345  1.0000
  C   C613      1.0  0.90755  0.28053  0.36772  1.0000
  C   C614      1.0  0.93182  0.26478  0.36568  1.0000
  C   C615      1.0  0.95162  0.26053  0.37944  1.0000
  C   C616      1.0  0.94725  0.27276  0.39515  1.0000
  C   C617      1.0  0.92328  0.28890  0.39716  1.0000
  H   H720      1.0  0.89205  0.28331  0.35705  1.0000
  H   H721      1.0  0.93517  0.25600  0.35347  1.0000
  H   H722      1.0  0.96255  0.26977  0.40586  1.0000
  H   H723      1.0  0.92014  0.29809  0.40932  1.0000
  C   C618      1.0  0.69331  0.24646  0.43292  1.0000
  C   C619      1.0  0.65656  0.23637  0.43902  1.0000
  C   C620      1.0  0.62333  0.21405  0.42947  1.0000
  C   C621      1.0  0.62661  0.20074  0.41398  1.0000
  C   C622      1.0  0.66338  0.21102  0.40785  1.0000
  C   C623      1.0  0.69669  0.23416  0.41721  1.0000
  H   H724      1.0  0.65379  0.24562  0.45124  1.0000
  H   H725      1.0  0.59526  0.20669  0.43426  1.0000
  H   H726      1.0  0.66616  0.20091  0.39584  1.0000
  H   H727      1.0  0.72493  0.24155  0.41248  1.0000
  S   S184      1.0  0.57093  0.49193  0.40781  1.0000
  H   H728      1.0  0.55290  0.23066  0.36054  1.0000
  H   H729      1.0  0.51430  0.30891  0.38800  1.0000
  C   C624      1.0  0.73578  0.47132  0.42773  1.0000
  C   C625      1.0  0.73554  0.47148  0.41022  1.0000
  C   C626      1.0  0.75639  0.45757  0.40164  1.0000
  C   C627      1.0  0.77645  0.44228  0.41053  1.0000
  C   C628      1.0  0.77527  0.44073  0.42800  1.0000
  C   C629      1.0  0.67164  0.35411  0.41839  1.0000
  H   H730      1.0  0.69612  0.32056  0.44321  1.0000
  H   H731      1.0  0.75738  0.45911  0.38811  1.0000
  H   H732      1.0  0.79033  0.42888  0.43493  1.0000
  H   H733      1.0  0.89737  0.01528  0.36801  1.0000
  C   C630      1.0  0.53579  0.34506  0.40935  1.0000
  C   C631      1.0  0.63685  0.38025  0.43162  1.0000
  S   S185      1.0  0.71190  0.49037  0.43902  1.0000
  H   H734      1.0  0.87608  0.45951  0.46467  1.0000
  C   C632      1.0  0.86189  0.47653  0.46095  1.0000
  H   H735      1.0  0.81541  0.15579  0.35143  1.0000
  C   C633      1.0  0.82771  0.40619  0.22745  1.0000
  C   C634      1.0  0.90375  0.05281  0.34698  1.0000
  C   C635      1.0  0.89191  0.05553  0.33069  1.0000
  Fe  Fe93      1.0  0.59230  0.50235  0.43443  1.0000
  H   H736      1.0  0.92433  0.07822  0.35327  1.0000
  H   H737      1.0  0.65620  0.14387  0.46106  1.0000
  C   C636      1.0  0.84528  0.20006  0.39514  1.0000
  C   C637      1.0  0.53934  0.34583  0.42677  1.0000
  C   C638      1.0  0.50667  0.27617  0.42836  1.0000
  H   H738      1.0  0.88193  0.17635  0.39741  1.0000
  C   C639      1.0  0.69709  0.30507  0.38559  1.0000
  H   H739      1.0  0.64732  0.35927  0.36673  1.0000
  C   C640      1.0  0.50345  0.27538  0.41092  1.0000
  C   C641      1.0  0.71836  0.34387  0.38134  1.0000
  H   H740      1.0  0.59046  0.22549  0.37007  1.0000
  H   H741      1.0  0.85474  0.21434  0.40698  1.0000
  H   H742      1.0  0.71666  0.39309  0.37150  1.0000
  C   C642      1.0  0.69975  0.36275  0.37466  1.0000
  H   H743      1.0  0.62570  0.16158  0.45325  1.0000
  H   H744      1.0  0.88293  0.50189  0.22137  1.0000
  H   H745      1.0  0.50921  0.46759  0.22107  1.0000
  C   C643      1.0  0.57570  0.26762  0.39013  1.0000
  H   H746      1.0  0.54373  0.25159  0.38881  1.0000
  H   H747      1.0  0.72061  0.48365  0.40327  1.0000
  H   H748      1.0  0.59193  0.31389  0.35243  1.0000
  C   C644      1.0  0.65713  0.28489  0.38308  1.0000
  H   H749      1.0  0.65316  0.35015  0.40726  1.0000
  C   C645      1.0  0.51787  0.30974  0.40145  1.0000
  H   H750      1.0  0.58376  0.24800  0.39690  1.0000
  H   H751      1.0  0.58309  0.29222  0.39824  1.0000
  H   H752      1.0  0.60409  0.31236  0.44918  1.0000
  H   H753      1.0  0.60361  0.05035  0.44015  1.0000
  H   H754      1.0  0.64189  0.25486  0.38664  1.0000
  H   H755      1.0  0.85597  0.02385  0.31005  1.0000
  H   H756      1.0  0.64320  0.09266  0.43105  1.0000
  H   H757      1.0  0.83149  0.45586  0.45762  1.0000
  H   H758      1.0  0.67089  0.40832  0.45905  1.0000
  H   H759      1.0  0.61868  0.37890  0.44233  1.0000
  H   H760      1.0  0.67939  0.33119  0.41809  1.0000
  S   S186      1.0  0.97413  0.21208  0.32851  1.0000
  C   C646      1.0  0.86521  0.02199  0.32267  1.0000
  H   H761      1.0  0.61836  0.37374  0.42026  1.0000
  C   C647      1.0  0.65976  0.34279  0.37198  1.0000
  S   S187      1.0  0.90814  0.40575  0.46347  1.0000
  C   C648      1.0  0.88875  0.48198  0.43374  1.0000
  H   H762      1.0  0.60073  0.11350  0.42100  1.0000
  H   H763      1.0  0.90189  0.46523  0.43901  1.0000
  H   H764      1.0  0.94441  0.04812  0.30745  1.0000
  C   C649      1.0  0.98547  0.03786  0.29482  1.0000
  H   H765      1.0  0.69877  0.38197  0.41657  1.0000
  N   N42       1.0  0.60670  0.10293  0.44731  1.0000
  C   C650      1.0  0.96962  0.47467  0.45165  1.0000
  H   H766      1.0  0.80935  0.22474  0.38940  1.0000
  H   H767      1.0  0.54691  0.28534  0.36306  1.0000
  H   H768      1.0  0.52674  0.31222  0.44977  1.0000
  H   H769      1.0  0.55289  0.37279  0.43294  1.0000
  H   H770      1.0  0.58291  0.32770  0.37255  1.0000
  H   H771      1.0  0.71178  0.29055  0.39080  1.0000
  C   C651      1.0  0.63723  0.30297  0.37602  1.0000
  H   H772      1.0  0.66072  0.41026  0.42985  1.0000
  H   H773      1.0  0.96210  0.46326  0.43922  1.0000
  C   C652      1.0  0.58438  0.24669  0.36346  1.0000
  S   S188      1.0  0.64746  0.48453  0.39941  1.0000
  H   H774      1.0  0.78982  0.19521  0.36175  1.0000
  C   C653      1.0  0.52462  0.31150  0.43626  1.0000
  C   C654      1.0  0.57870  0.30307  0.36502  1.0000
  H   H775      1.0  0.80185  0.38539  0.23407  1.0000
  C   C655      1.0  0.67901  0.36300  0.44847  1.0000
  N   N43       1.0  0.86683  0.13804  0.36682  1.0000
  C   C656      1.0  0.89086  0.15885  0.35204  1.0000
  C   C657      1.0  0.89173  0.13158  0.37898  1.0000
  C   C658      1.0  0.83572  0.09989  0.36158  1.0000
  C   C659      1.0  0.85010  0.16046  0.37358  1.0000
  C   C660      1.0  0.86069  0.17798  0.38943  1.0000
  C   C661      1.0  0.82375  0.16701  0.36383  1.0000
  H   H776      1.0  0.74942  0.35934  0.38319  1.0000
  C   C662      1.0  0.80890  0.18952  0.36960  1.0000
  H   H777      1.0  0.91464  0.18763  0.35551  1.0000
  H   H778      1.0  0.90413  0.14309  0.34658  1.0000
  H   H779      1.0  0.87406  0.16310  0.34183  1.0000
  H   H780      1.0  0.87566  0.11673  0.39062  1.0000
  H   H781      1.0  0.91793  0.15901  0.38230  1.0000
  H   H782      1.0  0.90271  0.11350  0.37373  1.0000
  H   H783      1.0  0.81844  0.10180  0.35096  1.0000
  H   H784      1.0  0.84771  0.08193  0.35709  1.0000
  H   H785      1.0  0.81567  0.08404  0.37214  1.0000
  H   H786      1.0  0.97361  0.01223  0.35689  1.0000
  H   H787      1.0  0.55870  0.07397  0.43049  1.0000
  C   C663      1.0  0.62551  0.08066  0.44264  1.0000
  H   H788      1.0  0.59636  0.30658  0.42712  1.0000
  C   C664      1.0  0.61861  0.31446  0.43707  1.0000
  N   N44       1.0  0.88229  0.50377  0.44676  1.0000
  H   H789      1.0  0.62740  0.29221  0.43753  1.0000
  H   H790      1.0  0.51547  0.42392  0.46094  1.0000
  H   H791      1.0  0.57119  0.12244  0.43428  1.0000
  H   H792      1.0  0.64549  0.08105  0.45261  1.0000
  C   C665      1.0  0.81966  0.20602  0.38522  1.0000
  H   H793      1.0  0.94347  0.01299  0.33298  1.0000
  H   H794      1.0  0.65660  0.15594  0.43914  1.0000
  C   C666      1.0  0.61774  0.02082  0.22403  1.0000
  C   C667      1.0  0.58329  0.10315  0.43272  1.0000
  C   C668      1.0  0.68478  0.39118  0.46023  1.0000
  C   C669      1.0  0.88846  0.01703  0.35531  1.0000
  C   C670      1.0  0.96220  0.01485  0.32294  1.0000
  C   C671      1.0  0.63761  0.14272  0.45031  1.0000
  H   H795      1.0  0.51995  0.38390  0.45475  1.0000
  Fe  Fe94      1.0  0.99647  0.21695  0.35488  1.0000
  H   H796      1.0  0.86109  0.46101  0.42781  1.0000
  C   C672      1.0  0.96231  0.03481  0.30830  1.0000
  C   C673      1.0  0.72489  0.35115  0.46482  1.0000
  C   C674      1.0  0.51708  0.50224  0.45955  1.0000
  S   S189      1.0  0.98158  0.15533  0.35705  1.0000
  Fe  Fe95      1.0  0.66320  0.49505  0.42644  1.0000
  H   H797      1.0  0.82569  0.45474  0.23660  1.0000
  H   H798      1.0  0.51406  0.40765  0.42463  1.0000
  H   H799      1.0  0.50827  0.44335  0.43478  1.0000
  H   H800      1.0  0.90886  0.50104  0.42375  1.0000
  H   H801      1.0  0.96678  0.50160  0.22145  1.0000
  H   H802      1.0  0.98560  0.05351  0.28353  1.0000
  C   C675      1.0  0.94885  0.45209  0.46552  1.0000
  C   C676      1.0  0.58197  0.08736  0.46242  1.0000
  H   H803      1.0  0.56056  0.12787  0.46105  1.0000
  C   C677      1.0  0.87412  0.47198  0.22009  1.0000
  H   H804      1.0  0.69696  0.00597  0.25344  1.0000
  H   H805      1.0  0.74050  0.33558  0.46654  1.0000
  C   C678      1.0  0.84705  0.39386  0.21719  1.0000
  S   S190      1.0  0.55240  0.17223  0.65898  1.0000
  Fe  Fe96      1.0  0.64652  0.48617  0.66605  1.0000
  H   H806      1.0  0.87511  0.46499  0.69834  1.0000
  S   S191      1.0  0.60218  0.43274  0.65322  1.0000
  S   S192      1.0  0.82829  0.00942  0.56915  1.0000
  Fe  Fe97      1.0  0.82276  0.27479  0.66126  1.0000
  S   S193      1.0  0.81184  0.25280  0.68809  1.0000
  S   S194      1.0  0.83256  0.24998  0.63776  1.0000
  Fe  Fe98      1.0  0.81953  0.34694  0.66946  1.0000
  S   S195      1.0  0.80866  0.33056  0.69656  1.0000
  S   S196      1.0  0.82248  0.39997  0.65747  1.0000
  Fe  Fe99      1.0  0.85454  0.31394  0.69457  1.0000
  H   H807      1.0  0.68368  0.32548  0.68937  1.0000
  Fe  Fe100     1.0  0.76716  0.27168  0.68779  1.0000
  S   S197      1.0  0.70859  0.24293  0.70040  1.0000
  S   S198      1.0  0.86856  0.33476  0.66781  1.0000
  S   S199      1.0  0.77503  0.28919  0.66069  1.0000
  Fe  Fe101     1.0  0.80183  0.05335  0.60580  1.0000
  S   S200      1.0  0.81202  0.07833  0.57968  1.0000
  S   S201      1.0  0.78365  0.07550  0.62772  1.0000
  Fe  Fe102     1.0  0.86244  0.06806  0.57955  1.0000
  S   S202      1.0  0.91880  0.10875  0.56673  1.0000
  S   S203      1.0  0.85525  0.04794  0.60638  1.0000
  C   C679      1.0  0.96143  0.12102  0.57810  1.0000
  C   C680      1.0  0.96862  0.03302  0.58704  1.0000
  C   C681      1.0  0.96042  0.11446  0.59541  1.0000
  H   H808      1.0  0.83688  0.36776  0.62919  1.0000
  H   H809      1.0  0.93338  0.10188  0.60204  1.0000
  C   C682      1.0  0.94286  0.18855  0.61057  1.0000
  C   C683      1.0  0.81673  0.20094  0.63498  1.0000
  C   C684      1.0  0.79960  0.17364  0.64795  1.0000
  C   C685      1.0  0.78917  0.13523  0.64544  1.0000
  C   C686      1.0  0.79599  0.12382  0.63002  1.0000
  C   C687      1.0  0.81266  0.15101  0.61696  1.0000
  C   C688      1.0  0.82276  0.18935  0.61942  1.0000
  H   H810      1.0  0.79473  0.18217  0.65997  1.0000
  H   H811      1.0  0.77617  0.11435  0.65560  1.0000
  H   H812      1.0  0.81788  0.14258  0.60500  1.0000
  H   H813      1.0  0.83597  0.21030  0.60931  1.0000
  C   C689      1.0  0.96768  0.36576  0.70109  1.0000
  C   C690      1.0  0.72281  0.32437  0.63530  1.0000
  C   C691      1.0  0.67270  0.40342  0.68323  1.0000
  H   H814      1.0  0.95229  0.35305  0.68968  1.0000
  C   C692      1.0  0.80300  0.42384  0.66844  1.0000
  C   C693      1.0  0.79792  0.41922  0.68580  1.0000
  C   C694      1.0  0.78433  0.44010  0.69438  1.0000
  C   C695      1.0  0.77470  0.46496  0.68565  1.0000
  C   C696      1.0  0.77899  0.46902  0.66824  1.0000
  C   C697      1.0  0.79352  0.44882  0.65969  1.0000
  H   H815      1.0  0.80519  0.40022  0.69270  1.0000
  C   C698      1.0  0.83426  0.09168  0.53399  1.0000
  H   H816      1.0  0.79753  0.45268  0.64627  1.0000
  C   C699      1.0  0.53565  0.08923  0.48176  1.0000
  C   C700      1.0  0.53566  0.32149  0.66720  1.0000
  C   C701      1.0  0.55917  0.35541  0.65803  1.0000
  C   C702      1.0  0.57372  0.39104  0.66541  1.0000
  C   C703      1.0  0.56431  0.39266  0.68203  1.0000
  C   C704      1.0  0.53948  0.35871  0.69102  1.0000
  H   H817      1.0  0.90941  0.09950  0.53078  1.0000
  H   H818      1.0  0.56617  0.35406  0.64515  1.0000
  H   H819      1.0  0.57520  0.42008  0.68780  1.0000
  C   C705      1.0  0.59623  0.19490  0.67024  1.0000
  C   C706      1.0  0.59750  0.20578  0.68678  1.0000
  C   C707      1.0  0.63236  0.22127  0.69579  1.0000
  C   C708      1.0  0.66636  0.22683  0.68822  1.0000
  C   C709      1.0  0.66542  0.21725  0.67148  1.0000
  C   C710      1.0  0.63032  0.20089  0.66260  1.0000
  H   H820      1.0  0.57150  0.20117  0.69284  1.0000
  H   H821      1.0  0.89981  0.10890  0.63236  1.0000
  H   H822      1.0  0.69137  0.22097  0.66562  1.0000
  H   H823      1.0  0.62940  0.19222  0.64986  1.0000
  H   H824      1.0  0.59870  0.29332  0.62487  1.0000
  H   H825      1.0  0.51352  0.04615  0.50149  1.0000
  H   H826      1.0  0.73643  0.05836  0.59792  1.0000
  C   C711      1.0  0.94200  0.12856  0.50902  1.0000
  H   H827      1.0  0.68321  0.22949  0.62869  1.0000
  H   H828      1.0  0.91390  0.18053  0.60650  1.0000
  H   H829      1.0  0.77257  0.04178  0.51727  1.0000
  C   C712      1.0  0.63780  0.00616  0.59190  1.0000
  C   C713      1.0  0.94144  0.13834  0.49219  1.0000
  H   H830      1.0  0.97730  0.05642  0.57740  1.0000
  C   C714      1.0  0.53332  0.05829  0.49101  1.0000
  H   H831      1.0  0.71497  0.36907  0.67801  1.0000
  H   H832      1.0  0.78105  0.43686  0.70785  1.0000
  H   H833      1.0  0.92522  0.22079  0.64609  1.0000
  H   H834      1.0  0.63980  0.35913  0.70894  1.0000
  C   C715      1.0  0.60727  0.28537  0.65098  1.0000
  H   H835      1.0  0.62148  0.31367  0.69993  1.0000
  Fe  Fe103     1.0  0.77657  0.01732  0.57162  1.0000
  H   H836      1.0  0.63397  0.36413  0.62595  1.0000
  N   N45       1.0  0.80452  0.32775  0.60984  1.0000
  C   C716      1.0  0.83589  0.34359  0.62245  1.0000
  C   C717      1.0  0.80818  0.29825  0.60062  1.0000
  C   C718      1.0  0.81052  0.35872  0.59759  1.0000
  C   C719      1.0  0.76674  0.31273  0.61836  1.0000
  C   C720      1.0  0.73868  0.27309  0.61924  1.0000
  C   C721      1.0  0.75764  0.33793  0.62666  1.0000
  C   C722      1.0  0.55643  0.10675  0.71102  1.0000
  C   C723      1.0  0.57923  0.05604  0.47226  1.0000
  N   N46       1.0  0.51482  0.09448  0.71231  1.0000
  H   H837      1.0  0.83197  0.32136  0.63207  1.0000
  H   H838      1.0  0.86487  0.35441  0.61671  1.0000
  H   H839      1.0  0.77799  0.36825  0.62705  1.0000
  H   H840      1.0  0.80680  0.27536  0.60926  1.0000
  H   H841      1.0  0.83654  0.31050  0.59411  1.0000
  H   H842      1.0  0.78522  0.28491  0.59096  1.0000
  H   H843      1.0  0.81342  0.38438  0.60374  1.0000
  H   H844      1.0  0.83756  0.36897  0.59022  1.0000
  H   H845      1.0  0.78596  0.34869  0.58862  1.0000
  H   H846      1.0  0.74328  0.25152  0.61378  1.0000
  H   H847      1.0  0.63287  0.22830  0.70878  1.0000
  C   C724      1.0  0.67468  0.05138  0.61338  1.0000
  H   H848      1.0  0.96458  0.04429  0.59892  1.0000
  H   H849      1.0  0.63047  0.13497  0.68275  1.0000
  N   N47       1.0  0.99801  0.02077  0.58898  1.0000
  C   C725      1.0  0.52498  0.32302  0.68360  1.0000
  H   H850      1.0  0.96499  0.20646  0.58547  1.0000
  H   H851      1.0  0.91449  0.40084  0.69430  1.0000
  C   C726      1.0  0.62337  0.30313  0.66607  1.0000
  H   H852      1.0  0.94381  0.14084  0.65665  1.0000
  C   C727      1.0  0.70386  0.25987  0.62787  1.0000
  N   N48       1.0  0.83481  0.06992  0.51946  1.0000
  S   S204      1.0  0.75760  0.49041  0.69700  1.0000
  C   C728      1.0  0.61126  0.30726  0.63654  1.0000
  H   H853      1.0  0.71461  0.42117  0.48233  1.0000
  H   H854      1.0  0.66130  0.02665  0.56652  1.0000
  C   C729      1.0  0.90295  0.19211  0.64174  1.0000
  C   C730      1.0  0.61584  0.12810  0.69475  1.0000
  H   H855      1.0  0.62040  0.28484  0.67679  1.0000
  C   C731      1.0  0.69603  0.28541  0.63593  1.0000
  N   N49       1.0  0.67466  0.02410  0.60134  1.0000
  H   H856      1.0  0.70887  0.06957  0.58346  1.0000
  C   C732      1.0  0.70926  0.04549  0.59048  1.0000
  H   H857      1.0  0.79791  0.08488  0.50493  1.0000
  C   C733      1.0  0.79914  0.05917  0.50958  1.0000
  H   H858      1.0  0.59418  0.04093  0.46912  1.0000
  H   H859      1.0  0.66073  0.39600  0.65189  1.0000
  H   H860      1.0  0.94432  0.44958  0.49242  1.0000
  C   C734      1.0  0.90625  0.12584  0.48401  1.0000
  H   H861      1.0  0.59171  0.25439  0.65047  1.0000
  H   H862      1.0  0.86453  0.11423  0.64397  1.0000
  C   C735      1.0  0.69226  0.35628  0.68789  1.0000
  H   H863      1.0  0.89158  0.19687  0.62971  1.0000
  H   H864      1.0  0.70730  0.00656  0.61753  1.0000
  C   C736      1.0  0.83298  0.03398  0.52567  1.0000
  H   H865      1.0  0.83823  0.12008  0.52993  1.0000
  H   H866      1.0  0.67045  0.07381  0.60681  1.0000
  C   C737      1.0  0.63125  0.34704  0.63715  1.0000
  H   H867      1.0  0.92478  0.44192  0.68081  1.0000
  H   H868      1.0  0.66838  0.14704  0.70878  1.0000
  C   C738      1.0  0.87140  0.10356  0.49262  1.0000
  N   N50       1.0  0.65902  0.36170  0.68350  1.0000
  H   H869      1.0  0.87397  0.13038  0.62280  1.0000
  C   C739      1.0  0.88822  0.12847  0.63455  1.0000
  H   H870      1.0  0.51759  0.10113  0.48512  1.0000
  C   C740      1.0  0.64275  0.34357  0.66730  1.0000
  H   H871      1.0  0.87706  0.41087  0.68821  1.0000
  H   H872      1.0  0.53145  0.36011  0.70374  1.0000
  H   H873      1.0  0.95382  0.18815  0.66235  1.0000
  C   C741      1.0  0.55529  0.04196  0.48636  1.0000
  C   C742      1.0  0.95081  0.18309  0.62752  1.0000
  C   C743      1.0  0.90739  0.10628  0.51773  1.0000
  H   H874      1.0  0.64910  0.40939  0.67959  1.0000
  C   C744      1.0  0.95993  0.46698  0.48161  1.0000
  H   H875      1.0  0.96940  0.13837  0.51541  1.0000
  H   H876      1.0  0.85731  0.09674  0.54325  1.0000
  H   H877      1.0  0.84527  0.09494  0.48550  1.0000
  H   H878      1.0  0.65146  0.03699  0.62292  1.0000
  H   H879      1.0  0.96835  0.15569  0.48547  1.0000
  H   H880      1.0  0.71709  0.34413  0.64193  1.0000
  H   H881      1.0  0.56162  0.11093  0.68353  1.0000
  C   C745      1.0  0.64670  0.36512  0.65226  1.0000
  H   H882      1.0  0.51769  0.49813  0.48650  1.0000
  C   C746      1.0  0.99482  0.12573  0.60434  1.0000
  N   N51       1.0  0.91925  0.16637  0.64006  1.0000
  H   H883      1.0  0.75024  0.38566  0.48634  1.0000
  H   H884      1.0  0.69737  0.41963  0.67450  1.0000
  C   C747      1.0  0.87097  0.09318  0.50983  1.0000
  C   C748      1.0  0.73032  0.37924  0.47597  1.0000
  C   C749      1.0  0.62947  0.34382  0.69695  1.0000
  H   H885      1.0  0.86180  0.49110  0.47248  1.0000
  H   H886      1.0  0.70251  0.06609  0.62041  1.0000
  H   H887      1.0  0.87844  0.18022  0.65080  1.0000
  C   C750      1.0  0.97200  0.20388  0.59844  1.0000
  C   C751      1.0  0.57603  0.11429  0.69543  1.0000
  H   H888      1.0  0.66955  0.27481  0.64301  1.0000
  H   H889      1.0  0.90720  0.14754  0.66599  1.0000
  S   S205      1.0  0.66095  0.48857  0.69329  1.0000
  H   H890      1.0  0.80650  0.07609  0.54099  1.0000
  C   C752      1.0  0.93180  0.16056  0.65697  1.0000
  H   H891      1.0  0.79670  0.04123  0.49881  1.0000
  C   C753      1.0  0.98623  0.46393  0.70332  1.0000
  C   C754      1.0  0.90805  0.42450  0.69191  1.0000
  H   H892      1.0  0.52533  0.29432  0.66142  1.0000
  C   C755      1.0  0.90549  0.47786  0.70287  1.0000
  N   N52       1.0  0.91631  0.44821  0.70693  1.0000
  H   H893      1.0  0.83458  0.01735  0.51516  1.0000
  H   H894      1.0  0.70598  0.37014  0.69986  1.0000
  S   S206      1.0  0.73642  0.00801  0.54954  1.0000
  C   C756      1.0  0.71014  0.39904  0.47374  1.0000
  H   H895      1.0  0.97996  0.44720  0.69224  1.0000
  C   C757      1.0  0.50120  0.49794  0.47558  1.0000
  C   C758      1.0  0.55988  0.10389  0.46779  1.0000
  H   H896      1.0  0.71159  0.02635  0.58137  1.0000
  H   H897      1.0  0.85692  0.03936  0.53447  1.0000
  H   H898      1.0  0.55228  0.01693  0.49323  1.0000
  H   H899      1.0  0.77195  0.48836  0.66142  1.0000
  H   H900      1.0  0.51172  0.12261  0.68941  1.0000
  H   H901      1.0  0.99390  0.12148  0.61779  1.0000
  C   C759      1.0  0.63726  0.13480  0.70942  1.0000
  C   C760      1.0  0.95730  0.46688  0.71228  1.0000
  H   H902      1.0  0.60260  0.34418  0.69335  1.0000
  H   H903      1.0  0.94017  0.00906  0.58304  1.0000
  C   C761      1.0  0.98988  0.19450  0.63157  1.0000
  H   H904      1.0  0.92452  0.49813  0.69289  1.0000
  C   C762      1.0  0.63593  0.01041  0.57422  1.0000
  H   H905      1.0  0.68349  0.41621  0.69570  1.0000
  H   H906      1.0  0.90601  0.13358  0.47089  1.0000
  H   H907      1.0  0.80556  0.01515  0.53260  1.0000
  C   C763      1.0  0.99707  0.13833  0.56973  1.0000
  C   C764      1.0  0.94714  0.36029  0.71589  1.0000
  H   H908      1.0  0.90770  0.49496  0.71390  1.0000
  H   H909      1.0  0.86037  0.40575  0.71667  1.0000
  S   S207      1.0  0.89607  0.33228  0.71671  1.0000
  H   H910      1.0  0.99811  0.14363  0.55634  1.0000
  H   H911      1.0  0.99889  0.19120  0.64402  1.0000
  Fe  Fe104     1.0  0.49985  0.17316  0.66859  1.0000
  Fe  Fe105     1.0  0.59057  0.11136  0.93544  1.0000
  S   S208      1.0  0.57036  0.10211  0.90871  1.0000
  H   H912      1.0  0.96112  0.41033  0.94369  1.0000
  Fe  Fe106     1.0  0.66088  0.18930  0.92722  1.0000
  S   S209      1.0  0.64676  0.18556  0.89987  1.0000
  S   S210      1.0  0.70772  0.24122  0.94002  1.0000
  Fe  Fe107     1.0  0.58588  0.16407  0.90848  1.0000
  S   S211      1.0  0.55264  0.18935  0.89538  1.0000
  Fe  Fe108     1.0  0.63310  0.12416  0.90252  1.0000
  S   S212      1.0  0.64785  0.09685  0.88136  1.0000
  S   S213      1.0  0.60080  0.17139  0.93570  1.0000
  S   S214      1.0  0.65250  0.12977  0.92934  1.0000
  C   C765      1.0  0.99091  0.04864  0.81512  1.0000
  C   C766      1.0  0.99656  0.12645  0.85330  1.0000
  C   C767      1.0  0.69769  0.35424  0.88861  1.0000
  S   S215      1.0  0.87874  0.07714  0.82707  1.0000
  Fe  Fe109     1.0  0.53415  0.40388  0.90954  1.0000
  S   S216      1.0  0.59194  0.43995  0.89677  1.0000
  S   S217      1.0  0.52678  0.38370  0.93631  1.0000
  H   H913      1.0  0.86035  0.10959  0.88392  1.0000
  C   C768      1.0  0.94055  0.39400  0.95346  1.0000
  C   C769      1.0  0.62177  0.35325  0.91081  1.0000
  Fe  Fe110     1.0  0.82506  0.45424  0.90996  1.0000
  S   S218      1.0  0.80231  0.39656  0.89832  1.0000
  S   S219      1.0  0.81413  0.46285  0.93640  1.0000
  H   H914      1.0  0.69361  0.41051  0.90675  1.0000
  H   H915      1.0  0.60614  0.02438  0.93517  1.0000
  C   C770      1.0  0.63579  0.45551  0.90763  1.0000
  C   C771      1.0  0.63693  0.45281  0.92509  1.0000
  C   C772      1.0  0.70735  0.48787  0.92439  1.0000
  H   H916      1.0  0.74937  0.17369  0.87368  1.0000
  C   C773      1.0  0.50375  0.12334  0.95904  1.0000
  S   S220      1.0  0.88847  0.49777  0.91037  1.0000
  H   H917      1.0  0.61042  0.43877  0.93220  1.0000
  C   C774      1.0  0.71020  0.02646  0.88066  1.0000
  C   C775      1.0  0.85294  0.34817  0.92970  1.0000
  H   H918      1.0  0.73281  0.50261  0.89979  1.0000
  C   C776      1.0  0.92384  0.09554  0.83737  1.0000
  C   C777      1.0  0.95724  0.12450  0.82941  1.0000
  H   H919      1.0  0.89126  0.43884  0.73174  1.0000
  C   C778      1.0  0.96313  0.09783  0.86134  1.0000
  C   C779      1.0  0.92700  0.08206  0.85333  1.0000
  H   H920      1.0  0.95505  0.13504  0.81705  1.0000
  H   H921      1.0  0.96521  0.08757  0.87377  1.0000
  H   H922      1.0  0.90167  0.05961  0.85956  1.0000
  C   C780      1.0  0.73129  0.28424  0.92812  1.0000
  C   C781      1.0  0.73677  0.28412  0.91090  1.0000
  C   C782      1.0  0.75833  0.31882  0.90190  1.0000
  C   C783      1.0  0.77343  0.35385  0.90992  1.0000
  C   C784      1.0  0.76685  0.35400  0.92704  1.0000
  C   C785      1.0  0.74649  0.31926  0.93618  1.0000
  H   H923      1.0  0.72551  0.25727  0.90462  1.0000
  H   H924      1.0  0.76350  0.31847  0.88868  1.0000
  H   H925      1.0  0.77805  0.38073  0.93335  1.0000
  H   H926      1.0  0.74234  0.31945  0.94952  1.0000
  C   C786      1.0  0.53549  0.21405  0.90720  1.0000
  C   C787      1.0  0.66471  0.33377  0.89911  1.0000
  H   H927      1.0  0.57257  0.47123  0.92600  1.0000
  H   H928      1.0  0.72983  0.35283  0.86752  1.0000
  C   C788      1.0  0.84004  0.09388  0.87363  1.0000
  C   C789      1.0  0.67227  0.07010  0.88160  1.0000
  C   C790      1.0  0.67889  0.05793  0.86632  1.0000
  C   C791      1.0  0.70623  0.48871  0.90690  1.0000
  C   C792      1.0  0.51243  0.22492  0.93329  1.0000
  C   C793      1.0  0.70328  0.03834  0.89596  1.0000
  C   C794      1.0  0.68465  0.06025  0.89645  1.0000
  H   H929      1.0  0.66927  0.06526  0.85477  1.0000
  H   H930      1.0  0.53367  0.18541  0.93056  1.0000
  H   H931      1.0  0.71286  0.03094  0.90750  1.0000
  H   H932      1.0  0.68035  0.06986  0.90828  1.0000
  H   H933      1.0  0.50590  0.21816  0.94646  1.0000
  H   H934      1.0  0.93317  0.43547  0.92610  1.0000
  H   H935      1.0  0.71972  0.38343  0.89079  1.0000
  C   C795      1.0  0.69779  0.03629  0.86582  1.0000
  C   C796      1.0  0.80295  0.12812  0.87588  1.0000
  C   C797      1.0  0.57887  0.11218  0.72572  1.0000
  C   C798      1.0  0.70390  0.33690  0.87503  1.0000
  N   N53       1.0  0.65734  0.35086  0.91376  1.0000
  H   H936      1.0  0.64921  0.33990  0.94049  1.0000
  C   C799      1.0  0.67264  0.46970  0.93346  1.0000
  C   C800      1.0  0.96943  0.48918  0.72688  1.0000
  H   H937      1.0  0.50771  0.28129  0.90188  1.0000
  H   H938      1.0  0.87756  0.14523  0.85002  1.0000
  H   H939      1.0  0.85621  0.08580  0.86492  1.0000
  C   C801      1.0  0.86414  0.40857  0.93996  1.0000
  H   H940      1.0  0.77202  0.12123  0.91643  1.0000
  H   H941      1.0  0.95191  0.37303  0.74211  1.0000
  H   H942      1.0  0.86515  0.32901  0.92786  1.0000
  C   C802      1.0  0.99359  0.13951  0.83723  1.0000
  C   C803      1.0  0.63827  0.29540  0.89490  1.0000
  H   H943      1.0  0.78821  0.15732  0.85607  1.0000
  C   C804      1.0  0.68934  0.39000  0.91727  1.0000
  H   H944      1.0  0.84001  0.39374  0.94906  1.0000
  H   H945      1.0  0.62453  0.37088  0.89932  1.0000
  C   C805      1.0  0.65182  0.32651  0.92897  1.0000
  H   H946      1.0  0.85182  0.41482  0.92850  1.0000
  H   H947      1.0  0.81576  0.06653  0.87881  1.0000
  N   N54       1.0  0.88270  0.38566  0.93616  1.0000
  C   C806      1.0  0.67768  0.29896  0.87147  1.0000
  H   H948      1.0  0.51736  0.11915  0.73639  1.0000
  H   H949      1.0  0.61544  0.36652  0.92144  1.0000
  H   H950      1.0  0.57765  0.47001  0.94815  1.0000
  C   C807      1.0  0.96763  0.37688  0.73063  1.0000
  H   H951      1.0  0.90089  0.01117  0.83135  1.0000
  H   H952      1.0  0.49953  0.04200  0.93414  1.0000
  H   H953      1.0  0.53702  0.01439  0.90110  1.0000
  H   H954      1.0  0.85084  0.16999  0.85002  1.0000
  C   C808      1.0  0.78554  0.14901  0.86917  1.0000
  H   H955      1.0  0.84104  0.35148  0.91745  1.0000
  C   C809      1.0  0.92983  0.01584  0.82959  1.0000
  C   C810      1.0  0.91099  0.40617  0.92246  1.0000
  C   C811      1.0  0.51593  0.03237  0.95883  1.0000
  H   H956      1.0  0.81739  0.08628  0.84239  1.0000
  H   H957      1.0  0.67341  0.46884  0.94700  1.0000
  H   H958      1.0  0.80906  0.10212  0.89951  1.0000
  C   C812      1.0  0.59117  0.02744  0.92389  1.0000
  H   H959      1.0  0.88528  0.43645  0.94541  1.0000
  C   C813      1.0  0.52820  0.20640  0.92435  1.0000
  H   H960      1.0  0.79082  0.11082  0.84275  1.0000
  C   C814      1.0  0.95338  0.04176  0.81723  1.0000
  H   H961      1.0  0.53171  0.14982  0.95638  1.0000
  C   C815      1.0  0.56994  0.48390  0.93770  1.0000
  C   C816      1.0  0.77631  0.12939  0.90324  1.0000
  H   H962      1.0  0.67657  0.32124  0.93073  1.0000
  H   H963      1.0  0.62511  0.29809  0.92841  1.0000
  H   H964      1.0  0.59582  0.32460  0.90918  1.0000
  C   C817      1.0  0.79769  0.11859  0.89330  1.0000
  C   C818      1.0  0.67052  0.47303  0.89857  1.0000
  H   H965      1.0  0.74153  0.15655  0.90381  1.0000
  S   S221      1.0  0.80781  0.49537  0.89896  1.0000
  H   H966      1.0  0.77531  0.06834  0.85554  1.0000
  H   H967      1.0  0.71706  0.39019  0.91960  1.0000
  H   H968      1.0  0.82765  0.33288  0.93821  1.0000
  H   H969      1.0  0.94918  0.49294  0.73428  1.0000
  H   H970      1.0  0.62442  0.24870  0.87862  1.0000
  H   H971      1.0  0.61237  0.27807  0.90215  1.0000
  H   H972      1.0  0.92574  0.39024  0.91876  1.0000
  C   C819      1.0  0.75915  0.14935  0.89618  1.0000
  H   H973      1.0  0.89673  0.40994  0.91100  1.0000
  H   H974      1.0  0.68292  0.28544  0.86110  1.0000
  H   H975      1.0  0.61402  0.04891  0.91538  1.0000
  C   C820      1.0  0.89109  0.42280  0.72067  1.0000
  S   S222      1.0  0.56392  0.07092  0.95786  1.0000
  H   H976      1.0  0.87811  0.17068  0.86825  1.0000
  C   C821      1.0  0.64484  0.27830  0.88135  1.0000
  H   H977      1.0  0.68346  0.40184  0.92855  1.0000
  C   C822      1.0  0.76364  0.15901  0.87917  1.0000
  H   H978      1.0  0.57339  0.03986  0.92806  1.0000
  Fe  Fe111     1.0  0.82804  0.01999  0.83538  1.0000
  N   N55       1.0  0.82552  0.11740  0.86492  1.0000
  C   C823      1.0  0.80117  0.09485  0.85081  1.0000
  C   C824      1.0  0.85944  0.15240  0.85802  1.0000
  H   H979      1.0  0.70239  0.02692  0.85397  1.0000
  S   S223      1.0  0.76678  0.00807  0.83252  1.0000
  C   C825      1.0  0.96582  0.50199  0.94536  1.0000
  C   C826      1.0  0.90016  0.37970  0.95164  1.0000
  H   H980      1.0  0.90049  0.40215  0.72501  1.0000
  C   C827      1.0  0.87646  0.35935  0.96562  1.0000
  C   C828      1.0  0.50970  0.12098  0.72312  1.0000
  C   C829      1.0  0.52802  0.24117  0.89916  1.0000
  H   H981      1.0  0.53374  0.24727  0.88590  1.0000
  H   H982      1.0  0.98392  0.28271  0.75235  1.0000
  H   H983      1.0  0.53893  0.47499  0.93918  1.0000
  H   H984      1.0  0.56586  0.10614  0.73800  1.0000
  H   H985      1.0  0.63558  0.13157  0.73625  1.0000
  C   C830      1.0  0.61875  0.12640  0.72487  1.0000
  H   H986      1.0  0.94258  0.05694  0.80945  1.0000
  C   C831      1.0  0.50484  0.25196  0.92524  1.0000
  H   H987      1.0  0.66980  0.47496  0.88504  1.0000
  C   C832      1.0  0.51332  0.26051  0.90820  1.0000
  H   H988      1.0  0.57913  0.01950  0.89121  1.0000
  H   H989      1.0  0.84555  0.34796  0.96522  1.0000
  H   H990      1.0  0.50696  0.09936  0.95436  1.0000
  C   C833      1.0  0.99662  0.49438  0.94604  1.0000
  C   C834      1.0  0.94856  0.50368  0.96014  1.0000
  H   H991      1.0  0.52788  0.15120  0.71862  1.0000
  H   H992      1.0  0.50363  0.05375  0.73275  1.0000
  H   H993      1.0  0.99875  0.32184  0.77786  1.0000
  Fe  Fe112     1.0  0.52182  0.65859  0.02094  1.0000
  S   S224      1.0  0.53736  0.68191  0.99448  1.0000
  S   S225      1.0  0.56131  0.67677  0.04380  1.0000
  H   H994      1.0  0.69777  0.52241  0.10912  1.0000
  Fe  Fe113     1.0  0.81931  0.84666  0.09052  1.0000
  S   S226      1.0  0.83265  0.84161  0.06393  1.0000
  S   S227      1.0  0.81635  0.89669  0.10065  1.0000
  Fe  Fe114     1.0  0.81230  0.77026  0.10122  1.0000
  S   S228      1.0  0.82553  0.75931  0.07545  1.0000
  S   S229      1.0  0.79842  0.73165  0.12426  1.0000
  Fe  Fe115     1.0  0.87164  0.82157  0.07514  1.0000
  S   S230      1.0  0.93060  0.84386  0.06350  1.0000
  Fe  Fe116     1.0  0.78522  0.78038  0.06667  1.0000
  S   S231      1.0  0.74461  0.75285  0.04483  1.0000
  S   S232      1.0  0.86156  0.83079  0.10166  1.0000
  S   S233      1.0  0.76865  0.78685  0.09251  1.0000
  Fe  Fe117     1.0  0.82565  0.55915  0.15462  1.0000
  S   S234      1.0  0.81048  0.56847  0.18039  1.0000
  S   S235      1.0  0.83166  0.59357  0.13069  1.0000
  H   H995      1.0  0.66511  0.84008  0.06714  1.0000
  Fe  Fe118     1.0  0.85604  0.55444  0.18943  1.0000
  H   H996      1.0  0.92841  0.74489  0.14662  1.0000
  S   S236      1.0  0.87424  0.54969  0.16352  1.0000
  C   C835      1.0  0.66023  0.53256  0.16729  1.0000
  H   H997      1.0  0.95981  0.73661  0.11055  1.0000
  H   H998      1.0  0.58439  0.76267  0.03210  1.0000
  C   C836      1.0  0.59719  0.97920  0.19483  1.0000
  H   H999      1.0  0.59848  0.79659  0.05873  1.0000
  H   H1000     1.0  0.58956  0.96314  0.18346  1.0000
  C   C837      1.0  0.92190  0.80515  0.13295  1.0000
  N   N56       1.0  0.69684  0.56305  0.15972  1.0000
  H   H1001     1.0  0.63696  0.51830  0.09891  1.0000
  H   H1002     1.0  0.90891  0.71618  0.12844  1.0000
  H   H1003     1.0  0.95121  0.60439  0.18590  1.0000
  C   C838      1.0  0.80780  0.69338  0.12576  1.0000
  C   C839      1.0  0.80337  0.67453  0.14132  1.0000
  C   C840      1.0  0.81110  0.64420  0.14314  1.0000
  C   C841      1.0  0.82320  0.63247  0.12932  1.0000
  C   C842      1.0  0.82821  0.65174  0.11380  1.0000
  C   C843      1.0  0.82051  0.68211  0.11201  1.0000
  H   H1004     1.0  0.79472  0.68405  0.15208  1.0000
  H   H1005     1.0  0.80792  0.63009  0.15523  1.0000
  H   H1006     1.0  0.83779  0.64284  0.10310  1.0000
  H   H1007     1.0  0.82425  0.69660  0.09999  1.0000
  C   C844      1.0  0.61234  0.69866  0.04369  1.0000
  C   C845      1.0  0.63276  0.69992  0.02940  1.0000
  C   C846      1.0  0.67332  0.71707  0.02994  1.0000
  C   C847      1.0  0.69383  0.73325  0.04470  1.0000
  C   C848      1.0  0.67346  0.73223  0.05898  1.0000
  C   C849      1.0  0.63287  0.71478  0.05847  1.0000
  H   H1008     1.0  0.61728  0.68756  0.01796  1.0000
  H   H1009     1.0  0.68885  0.71768  0.01884  1.0000
  H   H1010     1.0  0.68875  0.74439  0.07045  1.0000
  H   H1011     1.0  0.61722  0.71396  0.06956  1.0000
  H   H1012     1.0  0.70529  0.52389  0.14486  1.0000
  C   C850      1.0  0.97275  0.87655  0.07417  1.0000
  C   C851      1.0  0.73103  0.58314  0.18740  1.0000
  C   C852      1.0  0.97306  0.87918  0.09157  1.0000
  H   H1013     1.0  0.93271  0.83217  0.12537  1.0000
  H   H1014     1.0  0.94643  0.86379  0.09850  1.0000
  C   C853      1.0  0.61406  0.78252  0.03555  1.0000
  C   C854      1.0  0.85916  0.97668  0.06286  1.0000
  C   C855      1.0  0.84480  0.94192  0.07199  1.0000
  C   C856      1.0  0.83711  0.94035  0.08910  1.0000
  C   C857      1.0  0.84493  0.97395  0.09709  1.0000
  C   C858      1.0  0.91747  0.51100  0.18834  1.0000
  H   H1015     1.0  0.83915  0.91635  0.06573  1.0000
  H   H1016     1.0  0.83893  0.97290  0.11032  1.0000
  H   H1017     1.0  0.88138  0.73274  0.13895  1.0000
  H   H1018     1.0  0.71884  0.64157  0.15890  1.0000
  N   N57       1.0  0.70272  0.64307  0.07515  1.0000
  C   C859      1.0  0.66479  0.63600  0.06847  1.0000
  C   C860      1.0  0.71802  0.67676  0.08600  1.0000
  C   C861      1.0  0.72914  0.65278  0.06064  1.0000
  C   C862      1.0  0.70047  0.60998  0.08480  1.0000
  C   C863      1.0  0.73458  0.61144  0.09119  1.0000
  C   C864      1.0  0.66501  0.57559  0.08808  1.0000
  C   C865      1.0  0.73348  0.58026  0.09993  1.0000
  C   C866      1.0  0.66424  0.54452  0.09680  1.0000
  C   C867      1.0  0.69841  0.54675  0.10260  1.0000
  H   H1019     1.0  0.65174  0.61119  0.06003  1.0000
  H   H1020     1.0  0.64401  0.63120  0.07866  1.0000
  H   H1021     1.0  0.66760  0.66085  0.06084  1.0000
  H   H1022     1.0  0.69915  0.67083  0.09711  1.0000
  H   H1023     1.0  0.72005  0.70218  0.07910  1.0000
  H   H1024     1.0  0.74753  0.68551  0.09078  1.0000
  H   H1025     1.0  0.72020  0.62747  0.05273  1.0000
  H   H1026     1.0  0.72954  0.67593  0.05247  1.0000
  H   H1027     1.0  0.75964  0.66356  0.06449  1.0000
  H   H1028     1.0  0.76249  0.63667  0.08931  1.0000
  H   H1029     1.0  0.63745  0.57175  0.08390  1.0000
  H   H1030     1.0  0.90773  0.74438  0.10177  1.0000
  C   C868      1.0  0.90834  0.76885  0.10808  1.0000
  H   H1031     1.0  0.92723  0.97468  0.08827  1.0000
  H   H1032     1.0  0.76005  0.58188  0.10449  1.0000
  C   C869      1.0  0.98120  0.76517  0.11410  1.0000
  H   H1033     1.0  0.87773  0.76160  0.10957  1.0000
  H   H1034     1.0  0.67057  0.55472  0.13528  1.0000
  H   H1035     1.0  0.89043  0.79428  0.13494  1.0000
  H   H1036     1.0  0.92240  0.79418  0.09933  1.0000
  N   N58       1.0  0.92873  0.77678  0.12441  1.0000
  C   C870      1.0  0.91125  0.74118  0.13501  1.0000
  H   H1037     1.0  0.98492  0.53867  0.20530  1.0000
  C   C871      1.0  0.95827  0.51680  0.21193  1.0000
  H   H1038     1.0  0.86447  0.97766  0.04956  1.0000
  H   H1039     1.0  0.95657  0.95929  0.07790  1.0000
  H   H1040     1.0  0.66781  0.58990  0.14718  1.0000
  H   H1041     1.0  0.71327  0.60025  0.13774  1.0000
  H   H1042     1.0  0.75413  0.68792  0.18009  1.0000
  C   C872      1.0  0.62211  0.80151  0.05059  1.0000
  N   N59       1.0  0.73216  0.85805  0.05055  1.0000
  C   C873      1.0  0.73930  0.84329  0.06664  1.0000
  C   C874      1.0  0.76171  0.86150  0.03843  1.0000
  C   C875      1.0  0.73835  0.89708  0.05301  1.0000
  C   C876      1.0  0.69189  0.83234  0.04508  1.0000
  C   C877      1.0  0.66037  0.82620  0.05530  1.0000
  C   C878      1.0  0.68263  0.81239  0.02980  1.0000
  C   C879      1.0  0.64422  0.78813  0.02515  1.0000
  H   H1043     1.0  0.73431  0.81377  0.06530  1.0000
  H   H1044     1.0  0.76948  0.86156  0.07106  1.0000
  H   H1045     1.0  0.72047  0.84249  0.07692  1.0000
  H   H1046     1.0  0.75994  0.83333  0.03661  1.0000
  H   H1047     1.0  0.79161  0.88115  0.04286  1.0000
  H   H1048     1.0  0.75863  0.87325  0.02607  1.0000
  H   H1049     1.0  0.73162  0.90859  0.04138  1.0000
  H   H1050     1.0  0.72018  0.89778  0.06324  1.0000
  H   H1051     1.0  0.76882  0.91754  0.05654  1.0000
  H   H1052     1.0  0.70442  0.81435  0.02134  1.0000
  H   H1053     1.0  0.63769  0.77257  0.01361  1.0000
  H   H1054     1.0  0.64174  0.54425  0.17144  1.0000
  H   H1055     1.0  0.93576  0.81184  0.14551  1.0000
  C   C880      1.0  0.96579  0.61081  0.19788  1.0000
  C   C881      1.0  0.72707  0.63135  0.16999  1.0000
  C   C882      1.0  0.75170  0.61055  0.19937  1.0000
  H   H1056     1.0  0.90539  0.52661  0.19489  1.0000
  C   C883      1.0  0.74755  0.65853  0.18212  1.0000
  C   C884      1.0  0.97010  0.78982  0.12153  1.0000
  C   C885      1.0  0.75998  0.64819  0.19673  1.0000
  C   C886      1.0  0.94819  0.98183  0.07783  1.0000
  C   C887      1.0  0.58727  0.95943  0.21041  1.0000
  H   H1057     1.0  0.72641  0.53114  0.16507  1.0000
  H   H1058     1.0  0.74865  0.56795  0.14922  1.0000
  C   C888      1.0  0.72030  0.54588  0.15450  1.0000
  C   C889      1.0  0.94441  0.60266  0.21262  1.0000
  C   C890      1.0  0.68681  0.57787  0.14432  1.0000
  C   C891      1.0  0.71841  0.59272  0.17223  1.0000
  H   H1059     1.0  0.72516  0.55428  0.19014  1.0000
  S   S237      1.0  0.56553  0.90877  0.21096  1.0000
  S   S238      1.0  0.89348  0.58127  0.21234  1.0000
  H   H1060     1.0  0.97534  0.79205  0.05943  1.0000
  H   H1061     1.0  0.94228  0.53280  0.18075  1.0000
  H   H1062     1.0  0.93244  0.97942  0.06590  1.0000
  H   H1063     1.0  0.76141  0.60244  0.21074  1.0000
  H   H1064     1.0  0.99484  0.84760  0.13147  1.0000
  H   H1065     1.0  0.77607  0.66938  0.20604  1.0000
  H   H1066     1.0  0.99370  0.58482  0.97270  1.0000
  H   H1067     1.0  0.66531  0.51850  0.17845  1.0000
  H   H1068     1.0  0.64307  0.50930  0.15838  1.0000
  H   H1069     1.0  0.50093  0.53913  0.98981  1.0000
  Fe  Fe119     1.0  0.77005  0.50475  0.18104  1.0000
  Fe  Fe120     1.0  0.75990  0.82745  0.31960  1.0000
  S   S239      1.0  0.74837  0.84033  0.34544  1.0000
  S   S240      1.0  0.72200  0.81295  0.29651  1.0000
  Fe  Fe121     1.0  0.83341  0.82762  0.33045  1.0000
  S   S241      1.0  0.82723  0.83977  0.35695  1.0000
  S   S242      1.0  0.88211  0.82000  0.32105  1.0000
  Fe  Fe122     1.0  0.76444  0.79629  0.35425  1.0000
  S   S243      1.0  0.73452  0.75488  0.37619  1.0000
  Fe  Fe123     1.0  0.81235  0.88261  0.34575  1.0000
  S   S244      1.0  0.84304  0.93951  0.35854  1.0000
  S   S245      1.0  0.77172  0.78070  0.32845  1.0000
  S   S246      1.0  0.82264  0.87318  0.31925  1.0000
  Fe  Fe124     1.0  0.63343  0.53212  0.40086  1.0000
  S   S247      1.0  0.65390  0.54567  0.42750  1.0000
  S   S248      1.0  0.65110  0.57270  0.37803  1.0000
  C   C892      1.0  0.63876  0.94978  0.27078  1.0000
  Fe  Fe125     1.0  0.54492  0.83370  0.26635  1.0000
  S   S249      1.0  0.55516  0.82375  0.23981  1.0000
  S   S250      1.0  0.58393  0.84771  0.28908  1.0000
  H   H1070     1.0  0.69432  0.85101  0.31817  1.0000
  Fe  Fe126     1.0  0.53546  0.86603  0.23266  1.0000
  C   C893      1.0  0.92043  0.53388  0.45274  1.0000
  H   H1071     1.0  0.62539  0.75412  0.30995  1.0000
  H   H1072     1.0  0.62669  0.88426  0.25817  1.0000
  H   H1073     1.0  0.94754  0.53327  0.21876  1.0000
  C   C894      1.0  0.70396  0.91313  0.26850  1.0000
  C   C895      1.0  0.92525  0.84000  0.33270  1.0000
  C   C896      1.0  0.92551  0.84752  0.34967  1.0000
  C   C897      1.0  0.95983  0.86153  0.35895  1.0000
  H   H1074     1.0  0.88505  0.73047  0.37549  1.0000
  H   H1075     1.0  0.89419  0.76964  0.36130  1.0000
  C   C898      1.0  0.95968  0.84727  0.32499  1.0000
  H   H1076     1.0  0.89925  0.84200  0.35574  1.0000
  H   H1077     1.0  0.95982  0.86686  0.37214  1.0000
  H   H1078     1.0  0.61721  0.65431  0.38163  1.0000
  H   H1079     1.0  0.95962  0.84133  0.31187  1.0000
  C   C899      1.0  0.86191  0.98351  0.34731  1.0000
  H   H1080     1.0  0.56834  0.59419  0.33653  1.0000
  C   C900      1.0  0.94684  0.94426  0.34339  1.0000
  H   H1081     1.0  0.83008  0.96026  0.32462  1.0000
  C   C901      1.0  0.71302  0.70435  0.37646  1.0000
  C   C902      1.0  0.69976  0.68397  0.39178  1.0000
  C   C903      1.0  0.68125  0.64369  0.39254  1.0000
  C   C904      1.0  0.67574  0.62340  0.37792  1.0000
  C   C905      1.0  0.68929  0.64382  0.36262  1.0000
  C   C906      1.0  0.70789  0.68410  0.36186  1.0000
  H   H1082     1.0  0.70351  0.69941  0.40313  1.0000
  H   H1083     1.0  0.67087  0.62833  0.40438  1.0000
  H   H1084     1.0  0.68495  0.62832  0.35124  1.0000
  H   H1085     1.0  0.71749  0.69930  0.34996  1.0000
  C   C907      1.0  0.68336  0.82225  0.29479  1.0000
  C   C908      1.0  0.65960  0.81023  0.28056  1.0000
  C   C909      1.0  0.62869  0.81748  0.27869  1.0000
  C   C910      1.0  0.62154  0.83693  0.29105  1.0000
  C   C911      1.0  0.64514  0.84868  0.30534  1.0000
  C   C912      1.0  0.67597  0.84135  0.30723  1.0000
  H   H1086     1.0  0.66522  0.79538  0.27091  1.0000
  H   H1087     1.0  0.61053  0.80817  0.26768  1.0000
  H   H1088     1.0  0.63977  0.86390  0.31490  1.0000
  H   H1089     1.0  0.58890  0.96566  0.23706  1.0000
  H   H1090     1.0  0.85093  0.75554  0.39304  1.0000
  H   H1091     1.0  0.93745  0.52136  0.45835  1.0000
  C   C913      1.0  0.75756  0.94407  0.28779  1.0000
  H   H1092     1.0  0.65824  0.90543  0.24020  1.0000
  H   H1093     1.0  0.74837  0.63449  0.40490  1.0000
  H   H1094     1.0  0.62740  0.92684  0.28075  1.0000
  H   H1095     1.0  0.68241  0.73191  0.32671  1.0000
  H   H1096     1.0  0.98726  0.68548  0.24604  1.0000
  C   C914      1.0  0.85408  0.52626  0.42313  1.0000
  H   H1097     1.0  0.68384  0.77710  0.32685  1.0000
  C   C915      1.0  0.78866  0.68120  0.38892  1.0000
  C   C916      1.0  0.80789  0.69263  0.37317  1.0000
  C   C917      1.0  0.87326  0.73909  0.36454  1.0000
  C   C918      1.0  0.75637  0.61444  0.38160  1.0000
  C   C919      1.0  0.68194  0.97801  0.24717  1.0000
  H   H1098     1.0  0.73563  0.58474  0.38461  1.0000
  H   H1099     1.0  0.81366  0.66956  0.34971  1.0000
  H   H1100     1.0  0.76947  0.99879  0.29638  1.0000
  N   N60       1.0  0.83427  0.73319  0.36823  1.0000
  H   H1101     1.0  0.65941  0.97866  0.23900  1.0000
  H   H1102     1.0  0.62487  0.77996  0.33536  1.0000
  H   H1103     1.0  0.81798  0.72642  0.34199  1.0000
  C   C920      1.0  0.83872  0.76060  0.38127  1.0000
  H   H1104     1.0  0.50773  0.57281  0.46511  1.0000
  N   N61       1.0  0.66500  0.94515  0.25931  1.0000
  C   C921      1.0  0.81923  0.74319  0.35298  1.0000
  H   H1105     1.0  0.85871  0.79078  0.37715  1.0000
  H   H1106     1.0  0.78061  0.94378  0.29506  1.0000
  H   H1107     1.0  0.81058  0.75893  0.38407  1.0000
  C   C922      1.0  0.77477  0.62464  0.36610  1.0000
  H   H1108     1.0  0.91771  0.55134  0.46256  1.0000
  C   C923      1.0  0.73422  0.91341  0.27772  1.0000
  H   H1109     1.0  0.94578  0.92801  0.35508  1.0000
  C   C924      1.0  0.67170  0.74868  0.33337  1.0000
  H   H1110     1.0  0.58321  0.59366  0.36664  1.0000
  H   H1111     1.0  0.94740  0.60479  0.23956  1.0000
  H   H1112     1.0  0.79166  0.70149  0.39814  1.0000
  H   H1113     1.0  0.87317  0.72258  0.35365  1.0000
  H   H1114     1.0  0.62986  0.76107  0.35499  1.0000
  C   C925      1.0  0.75112  0.97493  0.28854  1.0000
  H   H1115     1.0  0.61332  0.94813  0.26405  1.0000
  H   H1116     1.0  0.65311  0.97766  0.27708  1.0000
  H   H1117     1.0  0.73929  0.88935  0.27724  1.0000
  H   H1118     1.0  0.51819  0.67296  0.45310  1.0000
  C   C926      1.0  0.69640  0.94406  0.26905  1.0000
  C   C927      1.0  0.82289  0.55420  0.44616  1.0000
  C   C928      1.0  0.96385  0.61144  0.22808  1.0000
  C   C929      1.0  0.81652  0.55671  0.42911  1.0000
  C   C930      1.0  0.61530  0.72546  0.31606  1.0000
  H   H1119     1.0  0.68438  0.75374  0.34617  1.0000
  H   H1120     1.0  0.86476  0.51564  0.41351  1.0000
  H   H1121     1.0  0.81012  0.56453  0.45504  1.0000
  H   H1122     1.0  0.58318  0.70985  0.31534  1.0000
  C   C931      1.0  0.72112  0.97510  0.27928  1.0000
  C   C932      1.0  0.86004  0.52207  0.44049  1.0000
  H   H1123     1.0  0.93800  0.92410  0.33286  1.0000
  H   H1124     1.0  0.68667  0.88807  0.26123  1.0000
  H   H1125     1.0  0.58447  0.73726  0.34402  1.0000
  H   H1126     1.0  0.62688  0.71116  0.30816  1.0000
  H   H1127     1.0  0.99722  0.68131  0.28281  1.0000
  C   C933      1.0  0.84475  0.53765  0.45181  1.0000
  C   C934      1.0  0.85059  0.98598  0.33088  1.0000
  H   H1128     1.0  0.61736  0.91156  0.24266  1.0000
  H   H1129     1.0  0.92428  0.95262  0.34467  1.0000
  H   H1130     1.0  0.83790  0.77371  0.34909  1.0000
  H   H1131     1.0  0.53336  0.62044  0.45644  1.0000
  H   H1132     1.0  0.76856  0.60262  0.35716  1.0000
  H   H1133     1.0  0.78962  0.73834  0.35518  1.0000
  C   C935      1.0  0.76358  0.64260  0.39302  1.0000
  N   N62       1.0  0.62895  0.72860  0.33366  1.0000
  C   C936      1.0  0.61643  0.75259  0.34243  1.0000
  S   S251      1.0  0.52937  0.87887  0.25920  1.0000
  C   C937      1.0  0.83244  0.54316  0.41762  1.0000
  C   C938      1.0  0.61453  0.69119  0.34259  1.0000
  C   C939      1.0  0.59439  0.65567  0.33437  1.0000
  C   C940      1.0  0.62232  0.68961  0.35990  1.0000
  C   C941      1.0  0.58299  0.62096  0.34305  1.0000
  C   C942      1.0  0.61026  0.65473  0.36848  1.0000
  C   C943      1.0  0.59104  0.62051  0.36005  1.0000
  C   C944      1.0  0.64097  0.91004  0.24970  1.0000
  H   H1134     1.0  0.51800  0.99459  0.44436  1.0000
  H   H1135     1.0  0.79851  0.56842  0.42483  1.0000
  C   C945      1.0  0.98592  0.99784  0.32464  1.0000
  C   C946      1.0  0.80034  0.66307  0.36194  1.0000
  H   H1136     1.0  0.70320  0.97640  0.23886  1.0000
  C   C947      1.0  0.99426  0.86227  0.33416  1.0000
  H   H1137     1.0  0.58764  0.65391  0.32119  1.0000
  H   H1138     1.0  0.63902  0.71539  0.36687  1.0000
  H   H1139     1.0  0.96981  0.70652  0.26067  1.0000
  H   H1140     1.0  0.93789  0.55384  0.44235  1.0000
  S   S252      1.0  0.56362  0.50759  0.45782  1.0000
  H   H1141     1.0  0.82692  0.54458  0.40437  1.0000
  H   H1142     1.0  0.71734  0.99973  0.28023  1.0000
  C   C948      1.0  0.59687  0.98047  0.22502  1.0000
  N   N63       1.0  0.98591  0.97772  0.34048  1.0000
  C   C949      1.0  0.99433  0.86917  0.35120  1.0000
  C   C950      1.0  0.99515  0.71202  0.25294  1.0000
  H   H1143     1.0  0.54624  0.74071  0.45910  1.0000
  H   H1144     1.0  0.84933  0.53697  0.46513  1.0000
  C   C951      1.0  0.52225  0.68093  0.46605  1.0000
  C   C952      1.0  0.99593  0.00402  0.35464  1.0000
  H   H1145     1.0  0.50772  0.50583  0.43311  1.0000
  Fe  Fe127     1.0  0.71352  0.56670  0.65870  1.0000
  S   S253      1.0  0.73378  0.57475  0.68545  1.0000
  S   S254      1.0  0.73674  0.61061  0.63729  1.0000
  H   H1146     1.0  0.66484  0.63643  0.66437  1.0000
  Fe  Fe128     1.0  0.67059  0.54874  0.69183  1.0000
  C   C953      1.0  0.93229  0.63832  0.58702  1.0000
  H   H1147     1.0  0.78855  0.59073  0.61567  1.0000
  S   S255      1.0  0.65087  0.54411  0.66512  1.0000
  Fe  Fe129     1.0  0.93721  0.78075  0.60647  1.0000
  S   S256      1.0  0.91135  0.77214  0.58064  1.0000
  S   S257      1.0  0.91222  0.74085  0.62916  1.0000
  H   H1148     1.0  0.67477  0.67768  0.65182  1.0000
  C   C954      1.0  0.56652  0.96860  0.57439  1.0000
  Fe  Fe130     1.0  0.93523  0.83602  0.58024  1.0000
  S   S258      1.0  0.91131  0.87073  0.56725  1.0000
  H   H1149     1.0  0.60123  0.97890  0.61385  1.0000
  H   H1150     1.0  0.94412  0.84782  0.54030  1.0000
  S   S259      1.0  0.95637  0.84362  0.60674  1.0000
  H   H1151     1.0  0.96208  0.92420  0.50929  1.0000
  H   H1152     1.0  0.97576  0.70507  0.60366  1.0000
  S   S260      1.0  0.53027  0.87533  0.49815  1.0000
  S   S261      1.0  0.55475  0.89241  0.54771  1.0000
  C   C955      1.0  0.51918  0.66666  0.49585  1.0000
  C   C956      1.0  0.88568  0.62712  0.60864  1.0000
  H   H1153     1.0  0.65653  0.97920  0.62056  1.0000
  H   H1154     1.0  0.96264  0.92840  0.54126  1.0000
  S   S262      1.0  0.82594  0.94145  0.60716  1.0000
  Fe  Fe131     1.0  0.97040  0.78521  0.57207  1.0000
  H   H1155     1.0  0.84127  0.64046  0.59944  1.0000
  C   C957      1.0  0.91002  0.68341  0.58908  1.0000
  C   C958      1.0  0.60571  0.92242  0.54745  1.0000
  C   C959      1.0  0.62511  0.94595  0.53358  1.0000
  C   C960      1.0  0.66520  0.97167  0.53437  1.0000
  C   C961      1.0  0.96961  0.93040  0.62613  1.0000
  C   C962      1.0  0.66716  0.94975  0.56268  1.0000
  C   C963      1.0  0.62698  0.92439  0.56197  1.0000
  H   H1156     1.0  0.60906  0.94481  0.52237  1.0000
  H   H1157     1.0  0.68313  0.95076  0.57388  1.0000
  H   H1158     1.0  0.61216  0.90637  0.57277  1.0000
  C   C964      1.0  0.88913  0.89120  0.57885  1.0000
  C   C965      1.0  0.88319  0.91969  0.57117  1.0000
  C   C966      1.0  0.86431  0.93564  0.57978  1.0000
  C   C967      1.0  0.85068  0.92280  0.59607  1.0000
  C   C968      1.0  0.85680  0.89442  0.60377  1.0000
  C   C969      1.0  0.87629  0.87891  0.59526  1.0000
  H   H1159     1.0  0.89277  0.92912  0.55844  1.0000
  H   H1160     1.0  0.85964  0.95730  0.57370  1.0000
  H   H1161     1.0  0.84630  0.88431  0.61635  1.0000
  H   H1162     1.0  0.88064  0.85691  0.60127  1.0000
  H   H1163     1.0  0.90006  0.69848  0.59739  1.0000
  H   H1164     1.0  0.99113  0.91298  0.55298  1.0000
  C   C970      1.0  0.78559  0.64680  0.63535  1.0000
  C   C971      1.0  0.81337  0.65018  0.64708  1.0000
  C   C972      1.0  0.85214  0.67904  0.64494  1.0000
  C   C973      1.0  0.86342  0.70452  0.63104  1.0000
  C   C974      1.0  0.83566  0.70104  0.61927  1.0000
  C   C975      1.0  0.79686  0.67231  0.62146  1.0000
  H   H1165     1.0  0.80507  0.63052  0.65776  1.0000
  H   H1166     1.0  0.87351  0.68164  0.65411  1.0000
  H   H1167     1.0  0.84395  0.72076  0.60862  1.0000
  H   H1168     1.0  0.77545  0.66985  0.61234  1.0000
  C   C976      1.0  0.59139  0.64349  0.71424  1.0000
  C   C977      1.0  0.59749  0.63080  0.69897  1.0000
  C   C978      1.0  0.61586  0.60861  0.69851  1.0000
  N   N64       1.0  0.91904  0.65691  0.59892  1.0000
  C   C979      1.0  0.52070  0.60352  0.46821  1.0000
  H   H1169     1.0  0.58771  0.63801  0.68744  1.0000
  H   H1170     1.0  0.61966  0.59839  0.68675  1.0000
  H   H1171     1.0  0.53960  0.95294  0.56756  1.0000
  C   C980      1.0  0.84786  0.62221  0.60734  1.0000
  S   S263      1.0  0.70732  0.50830  0.65721  1.0000
  H   H1172     1.0  0.98405  0.82825  0.52735  1.0000
  H   H1173     1.0  0.54134  0.71549  0.51170  1.0000
  C   C981      1.0  0.98854  0.92483  0.54057  1.0000
  Fe  Fe132     1.0  0.81803  0.98955  0.59604  1.0000
  H   H1174     1.0  0.59997  0.99418  0.55215  1.0000
  H   H1175     1.0  0.93581  0.70595  0.58217  1.0000
  S   S264      1.0  0.97748  0.75467  0.55009  1.0000
  S   S265      1.0  0.65227  0.57164  0.71357  1.0000
  H   H1176     1.0  0.70729  0.63705  0.68550  1.0000
  C   C982      1.0  0.95134  0.68053  0.61039  1.0000
  C   C983      1.0  0.67908  0.99420  0.61081  1.0000
  H   H1177     1.0  0.94050  0.84482  0.51774  1.0000
  C   C984      1.0  0.68637  0.97382  0.54893  1.0000
  H   H1178     1.0  0.96374  0.66416  0.61671  1.0000
  C   C985      1.0  0.98789  0.99020  0.60197  1.0000
  H   H1179     1.0  0.76917  0.79394  0.63339  1.0000
  H   H1180     1.0  0.67745  0.97210  0.60228  1.0000
  C   C986      1.0  0.60221  0.98320  0.60042  1.0000
  C   C987      1.0  0.94407  0.94408  0.62318  1.0000
  C   C988      1.0  0.54376  0.51569  0.71002  1.0000
  C   C989      1.0  0.81707  0.59362  0.61667  1.0000
  S   S266      1.0  0.99170  0.84801  0.56924  1.0000
  H   H1181     1.0  0.95659  0.65977  0.57907  1.0000
  C   C990      1.0  0.89037  0.60132  0.61965  1.0000
  H   H1182     1.0  0.96247  0.90723  0.63517  1.0000
  Fe  Fe133     1.0  0.51485  0.87627  0.52498  1.0000
  C   C991      1.0  0.56720  0.96450  0.59173  1.0000
  H   H1183     1.0  0.90850  0.61956  0.57845  1.0000
  C   C992      1.0  0.60068  0.99194  0.56570  1.0000
  H   H1184     1.0  0.54501  0.61041  0.47705  1.0000
  H   H1185     1.0  0.55760  0.76232  0.48823  1.0000
  C   C993      1.0  0.53899  0.71989  0.46931  1.0000
  N   N65       1.0  0.72032  0.68605  0.66926  1.0000
  C   C994      1.0  0.73188  0.66057  0.67833  1.0000
  C   C995      1.0  0.70565  0.70197  0.68188  1.0000
  C   C996      1.0  0.68834  0.66198  0.65776  1.0000
  C   C997      1.0  0.75220  0.71766  0.65955  1.0000
  C   C998      1.0  0.74559  0.74438  0.65014  1.0000
  C   C999      1.0  0.79017  0.72284  0.65897  1.0000
  C   C1000     1.0  0.77496  0.77408  0.64062  1.0000
  C   C1001     1.0  0.81935  0.75277  0.64946  1.0000
  C   C1002     1.0  0.81173  0.77817  0.64024  1.0000
  H   H1186     1.0  0.75513  0.67642  0.68761  1.0000
  C   C1003     1.0  0.85946  0.57321  0.62911  1.0000
  H   H1187     1.0  0.74197  0.64657  0.66947  1.0000
  H   H1188     1.0  0.72937  0.72177  0.69022  1.0000
  C   C1004     1.0  0.94666  0.86412  0.52841  1.0000
  H   H1189     1.0  0.68300  0.67904  0.69002  1.0000
  C   C1005     1.0  0.53645  0.70574  0.49893  1.0000
  C   C1006     1.0  0.82292  0.56951  0.62767  1.0000
  H   H1190     1.0  0.69893  0.65140  0.64751  1.0000
  H   H1191     1.0  0.71750  0.74227  0.64996  1.0000
  H   H1192     1.0  0.79808  0.70390  0.66552  1.0000
  H   H1193     1.0  0.51049  0.51980  0.68955  1.0000
  H   H1194     1.0  0.84800  0.75593  0.64904  1.0000
  H   H1195     1.0  0.83436  0.80094  0.63271  1.0000
  H   H1196     1.0  0.91808  0.60289  0.62111  1.0000
  H   H1197     1.0  0.92281  0.87094  0.52870  1.0000
  H   H1198     1.0  0.54049  0.94607  0.59839  1.0000
  C   C1007     1.0  0.54579  0.73223  0.48572  1.0000
  H   H1199     1.0  0.97521  0.97982  0.56944  1.0000
  S   S267      1.0  0.56899  0.67216  0.71407  1.0000
  H   H1200     1.0  0.51176  0.64779  0.50675  1.0000
  H   H1201     1.0  0.88761  0.66825  0.57939  1.0000
  H   H1202     1.0  0.86385  0.55433  0.63770  1.0000
  H   H1203     1.0  0.69227  0.71802  0.67609  1.0000
  H   H1204     1.0  0.94156  0.69260  0.62033  1.0000
  H   H1205     1.0  0.99418  0.71716  0.52427  1.0000
  H   H1206     1.0  0.94280  0.62042  0.59351  1.0000
  H   H1207     1.0  0.98492  0.90035  0.50000  1.0000
  H   H1208     1.0  0.79907  0.54812  0.63517  1.0000
  H   H1209     1.0  0.91695  0.93142  0.62996  1.0000
  C   C1008     1.0  0.62890  0.59942  0.71333  1.0000
  S   S268      1.0  0.99503  0.79033  0.59785  1.0000
  C   C1009     1.0  0.51067  0.65295  0.47925  1.0000
  S   S269      1.0  0.50656  0.94104  0.47101  1.0000
  C   C1010     1.0  0.95277  0.97340  0.61124  1.0000
  S   S270      1.0  0.76319  0.99259  0.59785  1.0000
  C   C1011     1.0  0.98655  0.91839  0.51060  1.0000
  C   C1012     1.0  0.51537  0.52220  0.70294  1.0000
  H   H1210     1.0  0.67977  0.99010  0.52365  1.0000
  H   H1211     1.0  0.99827  0.51590  0.49625  1.0000
  H   H1212     1.0  0.93115  0.98188  0.60940  1.0000
  Fe  Fe134     1.0  0.72227  0.51410  0.68445  1.0000
  H   H1213     1.0  0.56119  0.50861  0.70219  1.0000
  N   N66       1.0  0.98526  0.89918  0.52690  1.0000
  C   C1013     1.0  0.99060  0.50451  0.48383  1.0000
  C   C1014     1.0  0.56339  0.54725  0.89503  1.0000
  Fe  Fe135     1.0  0.80323  0.94135  0.85090  1.0000
  S   S271      1.0  0.81508  0.96422  0.82445  1.0000
  S   S272      1.0  0.82431  0.90236  0.86191  1.0000
  Fe  Fe136     1.0  0.75287  0.94962  0.82426  1.0000
  S   S273      1.0  0.71888  0.92375  0.80052  1.0000
  C   C1015     1.0  0.94356  0.99657  0.83993  1.0000
  S   S274      1.0  0.73992  0.92347  0.85029  1.0000
  C   C1016     1.0  0.84603  0.87813  0.77740  1.0000
  H   H1214     1.0  0.57391  0.51573  0.73245  1.0000
  S   S275      1.0  0.97856  0.79278  0.82957  1.0000
  Fe  Fe137     1.0  0.87036  0.54047  0.90176  1.0000
  S   S276      1.0  0.89688  0.58141  0.87937  1.0000
  S   S277      1.0  0.86314  0.55548  0.92781  1.0000
  Fe  Fe138     1.0  0.97407  0.84617  0.83134  1.0000
  H   H1215     1.0  0.69692  0.78884  0.81739  1.0000
  S   S278      1.0  0.92853  0.85746  0.81958  1.0000
  C   C1017     1.0  0.56888  0.86717  0.79283  1.0000
  H   H1216     1.0  0.85790  0.67592  0.84692  1.0000
  H   H1217     1.0  0.57279  0.94437  0.90632  1.0000
  Fe  Fe139     1.0  0.55537  0.72260  0.77116  1.0000
  H   H1218     1.0  0.92375  0.97723  0.84934  1.0000
  S   S279      1.0  0.59156  0.74837  0.79443  1.0000
  C   C1018     1.0  0.75644  0.85833  0.82480  1.0000
  H   H1219     1.0  0.59948  0.64335  0.74091  1.0000
  H   H1220     1.0  0.74260  0.79265  0.83868  1.0000
  S   S280      1.0  0.53860  0.66331  0.76282  1.0000
  C   C1019     1.0  0.81581  0.88607  0.77772  1.0000
  H   H1221     1.0  0.73484  0.84673  0.83513  1.0000
  H   H1222     1.0  0.80000  0.64608  0.91967  1.0000
  C   C1020     1.0  0.92093  0.63214  0.87954  1.0000
  C   C1021     1.0  0.92914  0.65203  0.89445  1.0000
  C   C1022     1.0  0.94798  0.69232  0.89399  1.0000
  C   C1023     1.0  0.95888  0.71315  0.87868  1.0000
  C   C1024     1.0  0.95082  0.69326  0.86378  1.0000
  C   C1025     1.0  0.93192  0.65295  0.86424  1.0000
  H   H1223     1.0  0.92128  0.63646  0.90632  1.0000
  H   H1224     1.0  0.61425  0.99096  0.90281  1.0000
  C   C1026     1.0  0.59062  0.97300  0.91185  1.0000
  H   H1225     1.0  0.92576  0.63782  0.85265  1.0000
  C   C1027     1.0  0.85503  0.89167  0.85037  1.0000
  C   C1028     1.0  0.86747  0.90707  0.83426  1.0000
  C   C1029     1.0  0.89094  0.89721  0.82517  1.0000
  C   C1030     1.0  0.90205  0.87168  0.83204  1.0000
  C   C1031     1.0  0.89033  0.85678  0.84830  1.0000
  C   C1032     1.0  0.86676  0.86667  0.85740  1.0000
  H   H1226     1.0  0.85908  0.92659  0.82871  1.0000
  H   H1227     1.0  0.90032  0.90927  0.81270  1.0000
  H   H1228     1.0  0.89871  0.83701  0.85370  1.0000
  H   H1229     1.0  0.85731  0.85465  0.86989  1.0000
  C   C1033     1.0  0.62586  0.79751  0.79590  1.0000
  C   C1034     1.0  0.63883  0.81293  0.81178  1.0000
  C   C1035     1.0  0.66716  0.85161  0.81342  1.0000
  C   C1036     1.0  0.68291  0.87513  0.79915  1.0000
  C   C1037     1.0  0.66973  0.85979  0.78328  1.0000
  C   C1038     1.0  0.64129  0.82114  0.78164  1.0000
  H   H1230     1.0  0.62684  0.79482  0.82287  1.0000
  H   H1231     1.0  0.67663  0.86324  0.82571  1.0000
  H   H1232     1.0  0.68184  0.87783  0.77218  1.0000
  H   H1233     1.0  0.63181  0.80946  0.76936  1.0000
  H   H1234     1.0  0.78485  0.87846  0.83037  1.0000
  C   C1039     1.0  0.76538  0.80422  0.82882  1.0000
  H   H1235     1.0  0.63246  0.60485  0.74013  1.0000
  H   H1236     1.0  0.52078  0.57675  0.76032  1.0000
  H   H1237     1.0  0.79342  0.82167  0.83538  1.0000
  N   N67       1.0  0.75853  0.82761  0.81594  1.0000
  C   C1040     1.0  0.53432  0.96475  0.92676  1.0000
  H   H1238     1.0  0.71217  0.81876  0.79898  1.0000
  C   C1041     1.0  0.81988  0.83688  0.80206  1.0000
  H   H1239     1.0  0.96741  0.59062  0.94608  1.0000
  H   H1240     1.0  0.74808  0.87550  0.81644  1.0000
  H   H1241     1.0  0.53781  0.53411  0.75035  1.0000
  H   H1242     1.0  0.74635  0.57584  0.90201  1.0000
  Fe  Fe140     1.0  0.54583  0.68819  0.73664  1.0000
  C   C1042     1.0  0.59355  0.53899  0.95466  1.0000
  H   H1243     1.0  0.81454  0.57712  0.88392  1.0000
  H   H1244     1.0  0.72119  0.77954  0.80092  1.0000
  C   C1043     1.0  0.78884  0.84466  0.80285  1.0000
  H   H1245     1.0  0.81434  0.90531  0.76833  1.0000
  H   H1246     1.0  0.86816  0.89126  0.76784  1.0000
  N   N68       1.0  0.80694  0.61702  0.89889  1.0000
  C   C1044     1.0  0.80953  0.62509  0.91703  1.0000
  C   C1045     1.0  0.76594  0.60079  0.89380  1.0000
  C   C1046     1.0  0.81829  0.58752  0.89691  1.0000
  C   C1047     1.0  0.83174  0.65112  0.88819  1.0000
  C   C1048     1.0  0.83300  0.64773  0.87060  1.0000
  C   C1049     1.0  0.85522  0.68821  0.89472  1.0000
  C   C1050     1.0  0.85639  0.67937  0.86024  1.0000
  C   C1051     1.0  0.87840  0.71965  0.88421  1.0000
  C   C1052     1.0  0.87902  0.71526  0.86703  1.0000
  H   H1247     1.0  0.83955  0.63610  0.92178  1.0000
  H   H1248     1.0  0.79087  0.59869  0.92471  1.0000
  H   H1249     1.0  0.75669  0.62263  0.89441  1.0000
  H   H1250     1.0  0.76084  0.59022  0.88080  1.0000
  H   H1251     1.0  0.80097  0.56199  0.90518  1.0000
  H   H1252     1.0  0.84925  0.59902  0.90013  1.0000
  H   H1253     1.0  0.56374  0.53170  0.95827  1.0000
  H   H1254     1.0  0.85702  0.69369  0.90791  1.0000
  H   H1255     1.0  0.61063  0.90927  0.83682  1.0000
  C   C1053     1.0  0.57691  0.53188  0.90756  1.0000
  H   H1256     1.0  0.82388  0.81881  0.81119  1.0000
  C   C1054     1.0  0.78750  0.86953  0.79019  1.0000
  H   H1257     1.0  0.76457  0.87654  0.78985  1.0000
  S   S281      1.0  0.56693  0.74849  0.74509  1.0000
  C   C1055     1.0  0.63473  0.53658  0.93370  1.0000
  C   C1056     1.0  0.72064  0.80263  0.80799  1.0000
  C   C1057     1.0  0.84795  0.85348  0.78949  1.0000
  H   H1258     1.0  0.76524  0.77918  0.82327  1.0000
  H   H1259     1.0  0.87192  0.84785  0.78944  1.0000
  H   H1260     1.0  0.89826  0.73951  0.85908  1.0000
  H   H1261     1.0  0.51655  0.60953  0.73435  1.0000
  H   H1262     1.0  0.52680  0.79474  0.76536  1.0000
  H   H1263     1.0  0.95417  0.70752  0.90556  1.0000
  C   C1058     1.0  0.55083  0.51963  0.72715  1.0000
  C   C1059     1.0  0.58032  0.54325  0.92444  1.0000
  N   N69       1.0  0.55237  0.85012  0.77648  1.0000
  C   C1060     1.0  0.57015  0.57157  0.92788  1.0000
  C   C1061     1.0  0.55402  0.99968  0.89927  1.0000
  C   C1062     1.0  0.62265  0.61198  0.72859  1.0000
  H   H1264     1.0  0.95897  0.70892  0.85192  1.0000
  N   N70       1.0  0.56670  0.99067  0.91554  1.0000
  H   H1265     1.0  0.98198  0.94083  0.86891  1.0000
  H   H1266     1.0  0.60495  0.85987  0.76472  1.0000
  H   H1267     1.0  0.54247  0.58625  0.88914  1.0000
  C   C1063     1.0  0.59894  0.89782  0.82466  1.0000
  H   H1268     1.0  0.89738  0.74745  0.88943  1.0000
  Fe  Fe141     1.0  0.75846  0.98328  0.85870  1.0000
  H   H1269     1.0  0.56006  0.80170  0.78206  1.0000
  H   H1270     1.0  0.57146  0.58201  0.94030  1.0000
  H   H1271     1.0  0.61301  0.57036  0.95580  1.0000
  H   H1272     1.0  0.51849  0.92364  0.96633  1.0000
  H   H1273     1.0  0.51494  0.83376  0.80669  1.0000
  C   C1064     1.0  0.54519  0.85521  0.80735  1.0000
  H   H1274     1.0  0.81657  0.62040  0.86475  1.0000
  S   S282      1.0  0.98135  0.76377  0.87884  1.0000
  C   C1065     1.0  0.55670  0.58677  0.91523  1.0000
  C   C1066     1.0  0.54194  0.95426  0.94291  1.0000
  C   C1067     1.0  0.58069  0.86565  0.76249  1.0000
  H   H1275     1.0  0.64656  0.52461  0.94335  1.0000
  H   H1276     1.0  0.54840  0.60778  0.91826  1.0000
  C   C1068     1.0  0.52989  0.53054  0.73729  1.0000
  H   H1277     1.0  0.50868  0.84696  0.75923  1.0000
  H   H1278     1.0  0.62887  0.90602  0.78476  1.0000
  H   H1279     1.0  0.56715  0.85203  0.75042  1.0000
  C   C1069     1.0  0.60379  0.63367  0.72908  1.0000
  S   S283      1.0  0.91045  0.51401  0.95989  1.0000
  N   N71       1.0  0.59434  0.52619  0.93750  1.0000
  S   S284      1.0  0.73413  0.99925  0.88080  1.0000
  H   H1280     1.0  0.58445  0.51076  0.90392  1.0000
  C   C1070     1.0  0.56011  0.87032  0.82300  1.0000
  H   H1281     1.0  0.53655  0.97349  0.89195  1.0000
  C   C1071     1.0  0.55322  0.57458  0.89886  1.0000
  H   H1282     1.0  0.54152  0.86043  0.83393  1.0000
  C   C1072     1.0  0.62291  0.91041  0.81066  1.0000
  C   C1073     1.0  0.60834  0.89540  0.79494  1.0000
  H   H1283     1.0  0.94247  0.93338  0.85587  1.0000
  C   C1074     1.0  0.52015  0.85718  0.77197  1.0000
  H   H1284     1.0  0.63716  0.52537  0.92150  1.0000
  H   H1285     1.0  0.59257  0.89698  0.76054  1.0000
  C   C1075     1.0  0.96962  0.95604  0.86145  1.0000
  H   H1286     1.0  0.65327  0.93150  0.81201  1.0000
  H   H1287     1.0  0.60320  0.52484  0.96423  1.0000
  H   H1288     1.0  0.56057  0.53766  0.88229  1.0000
  H   H1289     1.0  0.65390  0.56819  0.93310  1.0000
  Fe  Fe142     1.0  0.80180  0.50756  0.92551  1.0000
  C   C1076     1.0  0.51199  0.93060  0.95392  1.0000
  S   S285      1.0  0.50505  0.59423  0.96410  1.0000
  H   H1290     1.0  0.52967  0.88823  0.77212  1.0000
  Fe  Fe143     1.0  0.87640  0.50934  0.93627  1.0000
  H   H1291     1.0  0.57121  0.96485  0.94727  1.0000
  H   H1292     1.0  0.51256  0.79338  0.78648  1.0000
  C   C1077     1.0  0.53730  0.80828  0.77769  1.0000
  S   S286      1.0  0.99149  0.85535  0.85826  1.0000
  H   H1293     1.0  0.97949  0.93693  0.83069  1.0000
  H   H1294     1.0  0.60487  0.96917  0.92323  1.0000
  S   S287      1.0  0.82057  0.99824  0.86189  1.0000
  N   N72       1.0  0.99685  0.98187  0.84832  1.0000
  Fe  Fe144     1.0  0.50415  0.73249  0.74542  1.0000
  S   S288      1.0  0.75147  0.51225  0.93517  1.0000
  H   H1295     1.0  0.96222  0.97208  0.87038  1.0000
  C   C1078     1.0  0.50082  0.53765  0.73046  1.0000
  H   H1296     1.0  0.95582  0.50707  0.93342  1.0000
  C   C1079     1.0  0.98153  0.00244  0.83795  1.0000
  C   C1080     1.0  0.99843  0.60261  0.94732  1.0000
