data_image0
_chemical_formula_structural       SHSCH2SH3CSH2CHSH2CFeHSCHC2SH3CH2SC6H2C2H2C2H2C4HCNH2C2H2CH2C4HC3Fe2CH3CFeCHCH4NHCH3CH2FeC2HC2SC3H3C2H4SH3CH3CHCHNH2C2H3SHSCSC2FeCH2C3HFeSCSFeSH2CFeHSH5CSFeHCHCHSCHSC5FeH5C2N2CH3CHCH3CH2CHCH3C7HCHSC2H2NH2CNCH2CH2FeCHCHC3HC5H3C2HCSCFeC4H4CH7Fe2CHSH5C2HSNHSFeSHFeSCSFeSH2CH3SH3C5HC2HC2H4CH2CH2SH2CSC2H4Fe3CHNH3C3FeCH2CH2SH2CH2SCHCHC2H2C2HC3H4C2SH4C2NCHSH2S2HCHCH3CH2CSHCNH2SFeHC2HCS2CHFeC3HCHC2SHC4FeHCHCH2SCH2C4H3C2H2C2H2CHSC2HSHNH2C2SCFeSFeSCS2H2C2HFeC3H3FeSC5H4C2H4CSH2C4HNC7HCH2S2CH3SHC2H3CHCH5SH3NHFeH2FeSCHS2FeS2FeS2FeSFeS3FeS2FeSHFeSFeS3C2FeS3CNHCHCSH4FeH2C6H4CH2CHC2HC4H2CH2CH2C2HCH3CHC2H3CNC7HCNH13CHCHC6H2C3SC2HNH2C3H2CH4C3H6SCSH2CHCHCH4CHC3HCH3CH2CH3FeHC3H2NCH2CHCH2CH2CH2C2H3CHCH3SH5NH3FeS2H2SFeHSCHSCSC2Fe2SCH3SC5H7SFeHC2H2CHC2SH2C2H3CH2NC2H3CHCNCSH3C3HCHCNHCNHC2SH4C2H5C2HCH3C2FeHCHSC2HCSCHCH3C5H4SHFeSFeSCFeS2FeSFeS6C6H3C2H3SCHC7SH3C3H2SH2CH3CSCH2SCHCH4CH2C2H2FeH2CNH3CHCSCH4CH2NFeHC2FeHCHC2FeHFeH2CSCHCH2CH2CSHCH2CH3CHCSC4NH3CNCH6CHCH2SC2H2CH2C2H3C2HC2H3C2H8C3HCHCHSCH2CHFeHCSHCSFeS2FeHFeSHS2FeSHFeS2FeHFeSHS2H2C2HCHCSCHCHC6H4C5SH3NHC6HCH3CHCSH2CHSHFeCH2CHCHCHCH2FeC4H2C3H2FeH2SHSH2CH2CHCH2NHNC5HC2NH2SC3H2CHSC2HC2FeHSH3CH2FeHC2HSH2S2H3SCHCFeSHS3FeSFeSC3HC2HC3SHNC4HSHCHNCSHCHFeCH3FeCH3CHCNC4HCHCH4C3H5CFeCH2SCHCHC2HCNHFeSCNC3H2C2H3FeH2CHCHCH3CH2C2HC6H2CHCH2CHCH4CH3CH3CHCH2CH8C2SHCFeHSH2CFeCSHCHC2SFeCH3NH2S2HCH4NC3HC3H2SC3HCH2CH5CH2C2HCHSC2H2CSCFeHCFeHC2HC2HFeH2CHSNCHCHCNHC2H2CHCSHC3HC3FeS2FeS2FeSFeS4HFeS2FeS2FeSFeS3C6H2CHC2H3CH2CH3C3H2C4HC3HC6H5C5H3CNCH2CHCH2CHC3H3C2H3CNH2CH2CHNC2H4C2HCH2C3H8C3NC2HC2HCHCH8CHSH2CH2C2H4C3NC5H2C2H2CHCH3CH4C4H3C2H5CH2SHSHSCHCH3CSCHC2HNCSCH2CHSHFeC2HFeC2HC3HCH2CH4C2HCHFeHNH5CHCHC2HC2HCH2C2HC5HC2HCHC2H2
_chemical_formula_sum              "S192 H864 C720 Fe96 N48"
_cell_length_a       42.206
_cell_length_b       42.2555
_cell_length_c       42.3048
_cell_angle_alpha    89.9457
_cell_angle_beta     90.1796
_cell_angle_gamma    89.7501

_space_group_name_H-M_alt    "P 1"
_space_group_IT_number       1

loop_
  _space_group_symop_operation_xyz
  'x, y, z'

loop_
  _atom_site_type_symbol
  _atom_site_label
  _atom_site_symmetry_multiplicity
  _atom_site_fract_x
  _atom_site_fract_y
  _atom_site_fract_z
  _atom_site_occupancy
  S   S1        1.0  0.38209  0.07502  0.11948  1.0000
  H   H1        1.0  0.36771  0.13743  0.08897  1.0000
  S   S2        1.0  0.05865  0.37075  0.07931  1.0000
  C   C1        1.0  0.01963  0.25470  0.33876  1.0000
  H   H2        1.0  0.03566  0.22684  0.29921  1.0000
  H   H3        1.0  0.29165  0.02173  0.04839  1.0000
  S   S3        1.0  0.44553  0.38108  0.05911  1.0000
  H   H4        1.0  0.09894  0.39568  0.13677  1.0000
  H   H5        1.0  0.10565  0.39792  0.22641  1.0000
  H   H6        1.0  0.04976  0.02110  0.20341  1.0000
  C   C2        1.0  0.18755  0.02889  0.33872  1.0000
  S   S4        1.0  0.38195  0.31289  0.03929  1.0000
  H   H7        1.0  0.31283  0.03684  0.31928  1.0000
  H   H8        1.0  0.46037  0.49805  0.03787  1.0000
  C   C3        1.0  0.39995  0.12229  0.03572  1.0000
  H   H9        1.0  0.27695  0.05873  0.31496  1.0000
  S   S5        1.0  0.03156  0.29066  0.32129  1.0000
  H   H10       1.0  0.47093  0.22819  0.10665  1.0000
  H   H11       1.0  0.08822  0.36133  0.21360  1.0000
  C   C4        1.0  0.48615  0.37199  0.06191  1.0000
  Fe  Fe1       1.0  0.41454  0.35271  0.02629  1.0000
  H   H12       1.0  0.34219  0.13208  0.05543  1.0000
  S   S6        1.0  0.31339  0.01356  0.14569  1.0000
  C   C5        1.0  0.48433  0.04761  0.19672  1.0000
  H   H13       1.0  0.37927  0.21487  0.06619  1.0000
  C   C6        1.0  0.23128  0.34923  0.02383  1.0000
  C   C7        1.0  0.46880  0.03726  0.10396  1.0000
  S   S7        1.0  0.03666  0.06139  0.25712  1.0000
  H   H14       1.0  0.23123  0.36774  0.04148  1.0000
  H   H15       1.0  0.48069  0.05009  0.17077  1.0000
  H   H16       1.0  0.01297  0.41603  0.10218  1.0000
  C   C8        1.0  0.45408  0.21302  0.09474  1.0000
  H   H17       1.0  0.48784  0.07219  0.20546  1.0000
  H   H18       1.0  0.36411  0.19280  0.02054  1.0000
  S   S8        1.0  0.04454  0.38124  0.32182  1.0000
  C   C9        1.0  0.05587  0.41207  0.07496  1.0000
  C   C10       1.0  0.07905  0.42869  0.05834  1.0000
  C   C11       1.0  0.07763  0.46183  0.05646  1.0000
  C   C12       1.0  0.05294  0.47857  0.07098  1.0000
  C   C13       1.0  0.02972  0.46191  0.08759  1.0000
  C   C14       1.0  0.03109  0.42875  0.08944  1.0000
  H   H19       1.0  0.09855  0.41608  0.04756  1.0000
  H   H20       1.0  0.09576  0.47453  0.04367  1.0000
  C   C15       1.0  0.42382  0.22420  0.08758  1.0000
  C   C16       1.0  0.11523  0.18876  0.33245  1.0000
  H   H21       1.0  0.06816  0.44218  0.23546  1.0000
  H   H22       1.0  0.37343  0.05094  0.27489  1.0000
  C   C17       1.0  0.28663  0.03506  0.32144  1.0000
  C   C18       1.0  0.06734  0.50348  0.18440  1.0000
  H   H23       1.0  0.17107  0.03286  0.31936  1.0000
  H   H24       1.0  0.40651  0.03951  0.21475  1.0000
  C   C19       1.0  0.47579  0.09369  0.11035  1.0000
  C   C20       1.0  0.44294  0.09723  0.11475  1.0000
  C   C21       1.0  0.42299  0.07088  0.11293  1.0000
  C   C22       1.0  0.43599  0.04104  0.10678  1.0000
  H   H25       1.0  0.43302  0.12029  0.11994  1.0000
  C   C23       1.0  0.07237  0.48752  0.15609  1.0000
  N   N1        1.0  0.07828  0.40164  0.18344  1.0000
  H   H26       1.0  0.48709  0.17454  0.09003  1.0000
  H   H27       1.0  0.45101  0.14067  0.06150  1.0000
  C   C24       1.0  0.41077  0.17395  0.06145  1.0000
  C   C25       1.0  0.44205  0.16350  0.06868  1.0000
  H   H28       1.0  0.48111  0.01897  0.25533  1.0000
  H   H29       1.0  0.13579  0.14218  0.33154  1.0000
  C   C26       1.0  0.07047  0.45375  0.21282  1.0000
  H   H30       1.0  0.40738  0.10821  0.05676  1.0000
  H   H31       1.0  0.43992  0.02876  0.26061  1.0000
  C   C27       1.0  0.06650  0.48665  0.21270  1.0000
  C   C28       1.0  0.47957  0.48021  0.03447  1.0000
  C   C29       1.0  0.42787  0.04937  0.20312  1.0000
  C   C30       1.0  0.26021  0.33625  0.01368  1.0000
  H   H32       1.0  0.10907  0.36556  0.16374  1.0000
  C   C31       1.0  0.10446  0.39148  0.16220  1.0000
  C   C32       1.0  0.49012  0.24902  0.03544  1.0000
  C   C33       1.0  0.50660  0.39511  0.07375  1.0000
  Fe  Fe2       1.0  0.36034  0.02662  0.12407  1.0000
  Fe  Fe3       1.0  0.07034  0.34667  0.03308  1.0000
  C   C34       1.0  0.35987  0.14835  0.06621  1.0000
  H   H33       1.0  0.42923  0.07488  0.20947  1.0000
  H   H34       1.0  0.44001  0.43475  0.01638  1.0000
  H   H35       1.0  0.44947  0.27841  0.02562  1.0000
  C   C35       1.0  0.35650  0.00960  0.25024  1.0000
  Fe  Fe4       1.0  0.02406  0.06948  0.30814  1.0000
  C   C36       1.0  0.22026  0.02958  0.33336  1.0000
  H   H36       1.0  0.49728  0.41786  0.08085  1.0000
  C   C37       1.0  0.07566  0.43665  0.18431  1.0000
  H   H37       1.0  0.50677  0.03430  0.20092  1.0000
  H   H38       1.0  0.38179  0.10783  0.02327  1.0000
  H   H39       1.0  0.34708  0.17064  0.07198  1.0000
  H   H40       1.0  0.44214  0.01703  0.03204  1.0000
  N   N2        1.0  0.38727  0.15379  0.04503  1.0000
  H   H41       1.0  0.12685  0.40403  0.16803  1.0000
  C   C38       1.0  0.08437  0.38737  0.21505  1.0000
  H   H42       1.0  0.04253  0.39764  0.14724  1.0000
  H   H43       1.0  0.04930  0.36217  0.16920  1.0000
  H   H44       1.0  0.41712  0.24814  0.09403  1.0000
  C   C39       1.0  0.04822  0.38843  0.17119  1.0000
  H   H45       1.0  0.07264  0.50068  0.13403  1.0000
  H   H46       1.0  0.46746  0.05939  0.25417  1.0000
  Fe  Fe5       1.0  0.34469  0.33884  0.01106  1.0000
  C   C40       1.0  0.48874  0.06356  0.10543  1.0000
  C   C41       1.0  0.46314  0.18274  0.08536  1.0000
  H   H47       1.0  0.47866  0.01385  0.10064  1.0000
  C   C42       1.0  0.49843  0.34253  0.05287  1.0000
  C   C43       1.0  0.46160  0.03476  0.24699  1.0000
  S   S9        1.0  0.29591  0.35092  0.02989  1.0000
  C   C44       1.0  0.50622  0.01667  0.03151  1.0000
  C   C45       1.0  0.37078  0.01075  0.30622  1.0000
  C   C46       1.0  0.40238  0.20499  0.07134  1.0000
  H   H48       1.0  0.48273  0.32461  0.04363  1.0000
  H   H49       1.0  0.07937  0.44346  0.13323  1.0000
  H   H50       1.0  0.22765  0.03402  0.30936  1.0000
  C   C47       1.0  0.07635  0.45464  0.15594  1.0000
  C   C48       1.0  0.36769  0.02608  0.27688  1.0000
  H   H51       1.0  0.12347  0.19495  0.30901  1.0000
  H   H52       1.0  0.06373  0.39039  0.23117  1.0000
  H   H53       1.0  0.47682  0.46186  0.05314  1.0000
  H   H54       1.0  0.49120  0.11402  0.11195  1.0000
  S   S10       1.0  0.09214  0.29822  0.02694  1.0000
  H   H55       1.0  0.06148  0.49903  0.23458  1.0000
  H   H56       1.0  0.02799  0.39449  0.18695  1.0000
  H   H57       1.0  0.42359  0.04796  0.17715  1.0000
  C   C49       1.0  0.01975  0.02568  0.24431  1.0000
  H   H58       1.0  0.42086  0.02069  0.10435  1.0000
  H   H59       1.0  0.18023  0.34873  0.01916  1.0000
  H   H60       1.0  0.02534  0.05507  0.02795  1.0000
  C   C50       1.0  0.02460  0.22630  0.32225  1.0000
  H   H61       1.0  0.27915  0.01730  0.30350  1.0000
  C   C51       1.0  0.01527  0.19717  0.33528  1.0000
  H   H62       1.0  0.49599  0.04020  0.03760  1.0000
  N   N3        1.0  0.45700  0.03189  0.21223  1.0000
  H   H63       1.0  0.42043  0.12463  0.01934  1.0000
  H   H64       1.0  0.35355  0.02164  0.22784  1.0000
  C   C52       1.0  0.26838  0.01739  0.03857  1.0000
  C   C53       1.0  0.25716  0.03577  0.01315  1.0000
  H   H65       1.0  0.01907  0.17544  0.32229  1.0000
  H   H66       1.0  0.50118  0.26637  0.05054  1.0000
  H   H67       1.0  0.50227  0.49270  0.03890  1.0000
  S   S11       1.0  0.38288  0.03289  0.33941  1.0000
  H   H68       1.0  0.09162  0.23336  0.33959  1.0000
  S   S12       1.0  0.02737  0.02724  0.33991  1.0000
  C   C54       1.0  0.46087  0.25591  0.02123  1.0000
  S   S13       1.0  0.05025  0.10173  0.34145  1.0000
  C   C55       1.0  0.37597  0.16977  0.01581  1.0000
  C   C56       1.0  0.20236  0.33845  0.01129  1.0000
  Fe  Fe6       1.0  0.01421  0.33974  0.33516  1.0000
  C   C57       1.0  0.50444  0.21943  0.03099  1.0000
  H   H69       1.0  0.01090  0.47448  0.09930  1.0000
  H   H70       1.0  0.01258  0.43040  0.01824  1.0000
  C   C58       1.0  0.03024  0.01101  0.21646  1.0000
  C   C59       1.0  0.49000  0.19711  0.01132  1.0000
  C   C60       1.0  0.01149  0.04308  0.00907  1.0000
  H   H71       1.0  0.05000  0.12700  0.44460  1.0000
  Fe  Fe7       1.0  0.13325  0.01855  0.64992  1.0000
  S   S14       1.0  0.15735  0.04356  0.60988  1.0000
  C   C61       1.0  0.41014  0.15452  0.51631  1.0000
  S   S15       1.0  0.43037  0.06731  0.48322  1.0000
  Fe  Fe8       1.0  0.46718  0.07475  0.65945  1.0000
  S   S16       1.0  0.42362  0.05943  0.63227  1.0000
  H   H72       1.0  0.42287  0.16153  0.63835  1.0000
  H   H73       1.0  0.21691  0.03286  0.64702  1.0000
  C   C62       1.0  0.43226  0.49865  0.62636  1.0000
  Fe  Fe9       1.0  0.46335  0.41828  0.63282  1.0000
  H   H74       1.0  0.46362  0.43212  0.44334  1.0000
  S   S17       1.0  0.43370  0.44147  0.59488  1.0000
  H   H75       1.0  0.43099  0.47894  0.46405  1.0000
  H   H76       1.0  0.50015  0.17225  0.60388  1.0000
  H   H77       1.0  0.46090  0.21546  0.61768  1.0000
  H   H78       1.0  0.44834  0.12946  0.62565  1.0000
  H   H79       1.0  0.28001  0.07242  0.37393  1.0000
  C   C63       1.0  0.06031  0.18710  0.44014  1.0000
  S   S18       1.0  0.05932  0.42511  0.40475  1.0000
  Fe  Fe10      1.0  0.47898  0.35435  0.66426  1.0000
  H   H80       1.0  0.38545  0.03651  0.52524  1.0000
  C   C64       1.0  0.12216  0.15911  0.34519  1.0000
  H   H81       1.0  0.44074  0.48598  0.64698  1.0000
  C   C65       1.0  0.45142  0.43550  0.50361  1.0000
  H   H82       1.0  0.07344  0.20953  0.44414  1.0000
  S   S19       1.0  0.08543  0.06102  0.55072  1.0000
  C   C66       1.0  0.21820  0.02142  0.67071  1.0000
  H   H83       1.0  0.46987  0.09234  0.53159  1.0000
  S   S20       1.0  0.09235  0.04474  0.40255  1.0000
  C   C67       1.0  0.08820  0.05593  0.50979  1.0000
  C   C68       1.0  0.06314  0.06653  0.49087  1.0000
  C   C69       1.0  0.06387  0.06198  0.45819  1.0000
  C   C70       1.0  0.09039  0.04843  0.44389  1.0000
  C   C71       1.0  0.17583  0.02312  0.36893  1.0000
  Fe  Fe11      1.0  0.40346  0.03036  0.45613  1.0000
  H   H84       1.0  0.41982  0.21056  0.60757  1.0000
  H   H85       1.0  0.13666  0.02803  0.45187  1.0000
  H   H86       1.0  0.44845  0.21858  0.57737  1.0000
  H   H87       1.0  0.35934  0.05766  0.65941  1.0000
  H   H88       1.0  0.39731  0.12978  0.60344  1.0000
  C   C72       1.0  0.06105  0.46662  0.40711  1.0000
  C   C73       1.0  0.07394  0.48054  0.43429  1.0000
  N   N4        1.0  0.47215  0.45813  0.48656  1.0000
  N   N5        1.0  0.08062  0.16272  0.42489  1.0000
  C   C74       1.0  0.04909  0.48593  0.38297  1.0000
  H   H89       1.0  0.08293  0.46569  0.45318  1.0000
  H   H90       1.0  0.04235  0.13680  0.40410  1.0000
  H   H91       1.0  0.09967  0.14943  0.47048  1.0000
  C   C75       1.0  0.42663  0.48232  0.59815  1.0000
  H   H92       1.0  0.16103  0.49943  0.41216  1.0000
  C   C76       1.0  0.02842  0.48515  0.56217  1.0000
  H   H93       1.0  0.11696  0.12755  0.38399  1.0000
  H   H94       1.0  0.03881  0.19217  0.42557  1.0000
  H   H95       1.0  0.38311  0.03389  0.58382  1.0000
  C   C77       1.0  0.33473  0.05434  0.66598  1.0000
  H   H96       1.0  0.02236  0.42158  0.46520  1.0000
  H   H97       1.0  0.41017  0.48627  0.55005  1.0000
  C   C78       1.0  0.19675  0.01777  0.39389  1.0000
  H   H98       1.0  0.44476  0.49946  0.49866  1.0000
  C   C79       1.0  0.41516  0.49880  0.57173  1.0000
  H   H99       1.0  0.37160  0.12287  0.50641  1.0000
  H   H100      1.0  0.04300  0.07813  0.50159  1.0000
  H   H101      1.0  0.28950  0.04111  0.40125  1.0000
  C   C80       1.0  0.02023  0.48638  0.50550  1.0000
  C   C81       1.0  0.42836  0.06391  0.52449  1.0000
  C   C82       1.0  0.38177  0.12550  0.55619  1.0000
  C   C83       1.0  0.40264  0.04578  0.57243  1.0000
  C   C84       1.0  0.42624  0.06017  0.59079  1.0000
  C   C85       1.0  0.45086  0.07618  0.57583  1.0000
  C   C86       1.0  0.45154  0.07865  0.54287  1.0000
  H   H102      1.0  0.48695  0.13994  0.57981  1.0000
  C   C87       1.0  0.28278  0.03293  0.65460  1.0000
  H   H103      1.0  0.46881  0.08762  0.58958  1.0000
  S   S21       1.0  0.36053  0.04068  0.42673  1.0000
  C   C88       1.0  0.22946  0.01837  0.38880  1.0000
  C   C89       1.0  0.48272  0.16533  0.58534  1.0000
  H   H104      1.0  0.48913  0.17948  0.56424  1.0000
  H   H105      1.0  0.05162  0.17916  0.46367  1.0000
  N   N6        1.0  0.44953  0.17081  0.59574  1.0000
  H   H106      1.0  0.03739  0.01337  0.53021  1.0000
  H   H107      1.0  0.41360  0.16051  0.49163  1.0000
  C   C90       1.0  0.29144  0.04875  0.37614  1.0000
  N   N7        1.0  0.27708  0.02568  0.35391  1.0000
  C   C91       1.0  0.49961  0.46884  0.50551  1.0000
  H   H108      1.0  0.04401  0.06945  0.44417  1.0000
  H   H109      1.0  0.07576  0.11281  0.41434  1.0000
  C   C92       1.0  0.50760  0.26961  0.65918  1.0000
  H   H110      1.0  0.32335  0.02797  0.62411  1.0000
  H   H111      1.0  0.18762  0.01313  0.41738  1.0000
  Fe  Fe12      1.0  0.04897  0.06047  0.37500  1.0000
  C   C93       1.0  0.11118  0.15096  0.37526  1.0000
  H   H112      1.0  0.12255  0.13597  0.43787  1.0000
  C   C94       1.0  0.50452  0.45962  0.53750  1.0000
  H   H113      1.0  0.46568  0.50272  0.46205  1.0000
  C   C95       1.0  0.10775  0.15609  0.44631  1.0000
  C   C96       1.0  0.09248  0.17225  0.39337  1.0000
  C   C97       1.0  0.08589  0.20236  0.37966  1.0000
  H   H114      1.0  0.50539  0.05259  0.49309  1.0000
  C   C98       1.0  0.24230  0.02467  0.35846  1.0000
  C   C99       1.0  0.11588  0.03831  0.46276  1.0000
  C   C100      1.0  0.44444  0.20531  0.59969  1.0000
  C   C101      1.0  0.31446  0.03755  0.64618  1.0000
  C   C102      1.0  0.11456  0.04155  0.49581  1.0000
  H   H115      1.0  0.44793  0.18368  0.53194  1.0000
  H   H116      1.0  0.49988  0.42208  0.46359  1.0000
  H   H117      1.0  0.46478  0.41385  0.51087  1.0000
  C   C103      1.0  0.06146  0.13358  0.42188  1.0000
  C   C104      1.0  0.48350  0.44198  0.45752  1.0000
  H   H118      1.0  0.07143  0.22004  0.39118  1.0000
  C   C105      1.0  0.44601  0.15566  0.62723  1.0000
  S   S22       1.0  0.48961  0.37508  0.61656  1.0000
  C   C106      1.0  0.42703  0.15847  0.57183  1.0000
  Fe  Fe13      1.0  0.11573  0.02892  0.58042  1.0000
  C   C107      1.0  0.42998  0.16725  0.53955  1.0000
  C   C108      1.0  0.45259  0.48595  0.47743  1.0000
  C   C109      1.0  0.40169  0.13777  0.57960  1.0000
  C   C110      1.0  0.38628  0.13348  0.52459  1.0000
  H   H119      1.0  0.46452  0.16372  0.64411  1.0000
  H   H120      1.0  0.24466  0.01380  0.40891  1.0000
  H   H121      1.0  0.43118  0.42756  0.48874  1.0000
  H   H122      1.0  0.44090  0.44632  0.52516  1.0000
  C   C111      1.0  0.40396  0.04721  0.53926  1.0000
  H   H123      1.0  0.12340  0.17713  0.44847  1.0000
  H   H124      1.0  0.36341  0.10877  0.56247  1.0000
  H   H125      1.0  0.49668  0.45804  0.44149  1.0000
  H   H126      1.0  0.13424  0.03374  0.51035  1.0000
  H   H127      1.0  0.15047  0.02272  0.37297  1.0000
  H   H128      1.0  0.31730  0.05177  0.37171  1.0000
  H   H129      1.0  0.48845  0.44430  0.55008  1.0000
  Fe  Fe14      1.0  0.38417  0.01194  0.38885  1.0000
  Fe  Fe15      1.0  0.02820  0.40326  0.36727  1.0000
  C   C112      1.0  0.03528  0.49787  0.53264  1.0000
  H   H130      1.0  0.03921  0.47540  0.36186  1.0000
  S   S23       1.0  0.50523  0.44244  0.65455  1.0000
  H   H131      1.0  0.19920  0.50246  0.42981  1.0000
  H   H132      1.0  0.26858  0.01961  0.63808  1.0000
  H   H133      1.0  0.03923  0.49508  0.58320  1.0000
  H   H134      1.0  0.02612  0.49791  0.48357  1.0000
  H   H135      1.0  0.46807  0.01385  0.49865  1.0000
  C   C113      1.0  0.09733  0.21038  0.34973  1.0000
  C   C114      1.0  0.47838  0.27118  0.67451  1.0000
  H   H136      1.0  0.22181  0.08509  0.67360  1.0000
  S   S24       1.0  0.07400  0.09891  0.92881  1.0000
  N   N8        1.0  0.44155  0.34363  0.77074  1.0000
  H   H137      1.0  0.06650  0.02029  0.80306  1.0000
  S   S25       1.0  0.08045  0.30990  0.95067  1.0000
  Fe  Fe16      1.0  0.17008  0.03407  0.94275  1.0000
  S   S26       1.0  0.16649  0.30077  0.97155  1.0000
  H   H138      1.0  0.12057  0.07000  0.75848  1.0000
  Fe  Fe17      1.0  0.05955  0.35675  0.96372  1.0000
  S   S27       1.0  0.03875  0.39335  0.93086  1.0000
  C   C115      1.0  0.45499  0.27422  0.82675  1.0000
  S   S28       1.0  0.35646  0.31569  0.96477  1.0000
  Fe  Fe18      1.0  0.39084  0.35558  0.95833  1.0000
  S   S29       1.0  0.39907  0.38105  0.91226  1.0000
  H   H139      1.0  0.40683  0.37818  0.78581  1.0000
  H   H140      1.0  0.23189  0.08682  0.71489  1.0000
  C   C116      1.0  0.50912  0.42527  0.89744  1.0000
  H   H141      1.0  0.42670  0.36126  0.83364  1.0000
  H   H142      1.0  0.47101  0.19307  0.69455  1.0000
  H   H143      1.0  0.03192  0.46638  0.00768  1.0000
  S   S30       1.0  0.46598  0.11231  0.69723  1.0000
  H   H144      1.0  0.44967  0.18683  0.98169  1.0000
  H   H145      1.0  0.12914  0.23968  0.93820  1.0000
  H   H146      1.0  0.39606  0.17492  0.99965  1.0000
  C   C117      1.0  0.23321  0.37405  0.93495  1.0000
  C   C118      1.0  0.19408  0.19024  0.99165  1.0000
  C   C119      1.0  0.40189  0.42208  0.91778  1.0000
  C   C120      1.0  0.38316  0.43709  0.94046  1.0000
  C   C121      1.0  0.38625  0.46958  0.94587  1.0000
  H   H147      1.0  0.43048  0.39048  0.75314  1.0000
  C   C122      1.0  0.42704  0.47237  0.90590  1.0000
  C   C123      1.0  0.42335  0.43987  0.89996  1.0000
  H   H148      1.0  0.36611  0.42377  0.95373  1.0000
  C   C124      1.0  0.10957  0.22778  0.95113  1.0000
  C   C125      1.0  0.24643  0.40354  0.94423  1.0000
  H   H149      1.0  0.43749  0.42844  0.88197  1.0000
  H   H150      1.0  0.44767  0.27274  0.87711  1.0000
  H   H151      1.0  0.41650  0.34276  0.72615  1.0000
  H   H152      1.0  0.49352  0.40574  0.85324  1.0000
  C   C126      1.0  0.46707  0.03958  0.91914  1.0000
  H   H153      1.0  0.23112  0.28298  0.96072  1.0000
  H   H154      1.0  0.48145  0.32084  0.74761  1.0000
  C   C127      1.0  0.22732  0.02975  0.99978  1.0000
  H   H155      1.0  0.18402  0.11185  0.97746  1.0000
  H   H156      1.0  0.49636  0.07810  0.93468  1.0000
  S   S31       1.0  0.21528  0.05066  0.96589  1.0000
  H   H157      1.0  0.15443  0.39099  0.93924  1.0000
  H   H158      1.0  0.29452  0.36124  0.95930  1.0000
  C   C128      1.0  0.03350  0.09081  0.93401  1.0000
  S   S32       1.0  0.49071  0.42846  0.75072  1.0000
  C   C129      1.0  0.20064  0.15788  0.99111  1.0000
  C   C130      1.0  0.30030  0.37983  0.94160  1.0000
  H   H159      1.0  0.46003  0.28157  0.77726  1.0000
  H   H160      1.0  0.47044  0.45528  0.80901  1.0000
  H   H161      1.0  0.44392  0.48592  0.89243  1.0000
  H   H162      1.0  0.02541  0.13182  0.96319  1.0000
  Fe  Fe19      1.0  0.49517  0.07748  0.72556  1.0000
  Fe  Fe20      1.0  0.11851  0.32009  0.98642  1.0000
  Fe  Fe21      1.0  0.05322  0.29054  0.99167  1.0000
  C   C131      1.0  0.13067  0.04656  0.76116  1.0000
  H   H163      1.0  0.49269  0.41143  0.91143  1.0000
  N   N9        1.0  0.28103  0.40889  0.94679  1.0000
  H   H164      1.0  0.10974  0.15623  0.91493  1.0000
  H   H165      1.0  0.08615  0.15297  0.96852  1.0000
  H   H166      1.0  0.27908  0.45590  0.92652  1.0000
  C   C132      1.0  0.01474  0.11146  0.95202  1.0000
  C   C133      1.0  0.29168  0.06246  0.70285  1.0000
  C   C134      1.0  0.49104  0.04289  0.97114  1.0000
  Fe  Fe22      1.0  0.49295  0.41573  0.69881  1.0000
  C   C135      1.0  0.47322  0.34454  0.75564  1.0000
  H   H167      1.0  0.10886  0.23720  0.97572  1.0000
  H   H168      1.0  0.23304  0.45162  0.95777  1.0000
  C   C136      1.0  0.20041  0.36996  0.93281  1.0000
  H   H169      1.0  0.46348  0.04931  0.89565  1.0000
  H   H170      1.0  0.08928  0.19174  0.90544  1.0000
  S   S33       1.0  0.49230  0.03881  0.68960  1.0000
  H   H171      1.0  0.31485  0.42162  0.98324  1.0000
  H   H172      1.0  0.06283  0.18638  0.95754  1.0000
  C   C137      1.0  0.16576  0.20196  0.97884  1.0000
  H   H173      1.0  0.42651  0.30475  0.74097  1.0000
  H   H174      1.0  0.37184  0.48100  0.96369  1.0000
  S   S34       1.0  0.40869  0.24153  0.98556  1.0000
  C   C138      1.0  0.26005  0.31234  0.99084  1.0000
  H   H175      1.0  0.13430  0.13126  0.95515  1.0000
  C   C139      1.0  0.41883  0.32881  0.74844  1.0000
  H   H176      1.0  0.16230  0.22731  0.98012  1.0000
  C   C140      1.0  0.43651  0.31849  0.85762  1.0000
  C   C141      1.0  0.15047  0.14847  0.96504  1.0000
  H   H177      1.0  0.29692  0.37007  0.91743  1.0000
  H   H178      1.0  0.17585  0.44312  0.95483  1.0000
  C   C142      1.0  0.19199  0.42396  0.94906  1.0000
  C   C143      1.0  0.44654  0.28711  0.85585  1.0000
  H   H179      1.0  0.47444  0.50916  0.83129  1.0000
  C   C144      1.0  0.17886  0.13705  0.97787  1.0000
  C   C145      1.0  0.48545  0.05580  0.94116  1.0000
  C   C146      1.0  0.27040  0.04519  0.68338  1.0000
  H   H180      1.0  0.39489  0.32672  0.75915  1.0000
  H   H181      1.0  0.27188  0.05422  0.00337  1.0000
  H   H182      1.0  0.24756  0.35348  0.92987  1.0000
  H   H183      1.0  0.24719  0.03837  0.74355  1.0000
  C   C147      1.0  0.14310  0.18132  0.96492  1.0000
  C   C148      1.0  0.49026  0.46794  0.76385  1.0000
  S   S35       1.0  0.15351  0.06001  0.89937  1.0000
  H   H184      1.0  0.31679  0.43684  0.92353  1.0000
  H   H185      1.0  0.03382  0.04846  0.90576  1.0000
  H   H186      1.0  0.13285  0.04939  0.81218  1.0000
  H   H187      1.0  0.28398  0.07268  0.72495  1.0000
  C   C149      1.0  0.48561  0.02708  0.78852  1.0000
  C   C150      1.0  0.43482  0.33721  0.83035  1.0000
  N   N10       1.0  0.11303  0.19275  0.95073  1.0000
  C   C151      1.0  0.28885  0.42108  0.97880  1.0000
  H   H188      1.0  0.50443  0.03349  0.83550  1.0000
  S   S36       1.0  0.09376  0.01032  0.89726  1.0000
  H   H189      1.0  0.19329  0.01852  0.67881  1.0000
  H   H190      1.0  0.27824  0.40586  0.99745  1.0000
  S   S37       1.0  0.02865  0.33661  0.00154  1.0000
  S   S38       1.0  0.03311  0.24223  0.98188  1.0000
  H   H191      1.0  0.47301  0.35961  0.73409  1.0000
  C   C152      1.0  0.44323  0.32476  0.80023  1.0000
  H   H192      1.0  0.19552  0.06912  0.70282  1.0000
  C   C153      1.0  0.50965  0.42207  0.86468  1.0000
  H   H193      1.0  0.50112  0.17440  0.00744  1.0000
  H   H194      1.0  0.42730  0.47194  0.00042  1.0000
  H   H195      1.0  0.42980  0.32836  0.88034  1.0000
  C   C154      1.0  0.45336  0.29267  0.79931  1.0000
  H   H196      1.0  0.19079  0.34710  0.92626  1.0000
  H   H197      1.0  0.21103  0.20648  0.00202  1.0000
  C   C155      1.0  0.22477  0.42848  0.95085  1.0000
  S   S39       1.0  0.12265  0.03341  0.96651  1.0000
  H   H198      1.0  0.28465  0.42447  0.89856  1.0000
  C   C156      1.0  0.40866  0.48714  0.92915  1.0000
  N   N11       1.0  0.23706  0.04060  0.69329  1.0000
  H   H199      1.0  0.22263  0.14885  0.00095  1.0000
  H   H200      1.0  0.48051  0.48125  0.95413  1.0000
  S   S40       1.0  0.43183  0.33076  0.98139  1.0000
  Fe  Fe23      1.0  0.10529  0.05609  0.92168  1.0000
  H   H201      1.0  0.01913  0.43990  0.97736  1.0000
  C   C157      1.0  0.48277  0.49086  0.97852  1.0000
  C   C158      1.0  0.23111  0.30148  0.97837  1.0000
  H   H202      1.0  0.28217  0.30206  0.98297  1.0000
  C   C159      1.0  0.46078  0.20410  0.99689  1.0000
  S   S41       1.0  0.44832  0.39560  0.67823  1.0000
  S   S42       1.0  0.49029  0.06719  0.77785  1.0000
  C   C160      1.0  0.01959  0.06442  0.91980  1.0000
  H   H203      1.0  0.06156  0.01383  0.69415  1.0000
  Fe  Fe24      1.0  0.39626  0.29290  0.99216  1.0000
  C   C161      1.0  0.08588  0.17925  0.96829  1.0000
  C   C162      1.0  0.22101  0.07177  0.69632  1.0000
  C   C163      1.0  0.20218  0.31447  0.98856  1.0000
  H   H204      1.0  0.13195  0.19060  0.90363  1.0000
  C   C164      1.0  0.13661  0.02803  0.73427  1.0000
  H   H205      1.0  0.33929  0.07983  0.70959  1.0000
  C   C165      1.0  0.29077  0.43258  0.92286  1.0000
  C   C166      1.0  0.49688  0.40926  0.99177  1.0000
  S   S43       1.0  0.12766  0.04390  0.69667  1.0000
  H   H206      1.0  0.44262  0.24453  0.69909  1.0000
  C   C167      1.0  0.13761  0.03498  0.79159  1.0000
  C   C168      1.0  0.47999  0.47420  0.79471  1.0000
  C   C169      1.0  0.47824  0.01306  0.97994  1.0000
  C   C170      1.0  0.17984  0.39469  0.94018  1.0000
  Fe  Fe25      1.0  0.14370  0.01183  0.87897  1.0000
  H   H207      1.0  0.32615  0.38442  0.94399  1.0000
  C   C171      1.0  0.11101  0.18240  0.91726  1.0000
  H   H208      1.0  0.35860  0.15509  0.00256  1.0000
  C   C172      1.0  0.43112  0.37689  0.77575  1.0000
  H   H209      1.0  0.46278  0.24976  0.82544  1.0000
  H   H210      1.0  0.46466  0.01310  0.74433  1.0000
  S   S44       1.0  0.10025  0.36944  0.99558  1.0000
  C   C173      1.0  0.32336  0.06681  0.69424  1.0000
  H   H211      1.0  0.44781  0.38984  0.79149  1.0000
  H   H212      1.0  0.08701  0.23560  0.93979  1.0000
  C   C174      1.0  0.46520  0.24342  0.68710  1.0000
  C   C175      1.0  0.48238  0.50472  0.80745  1.0000
  C   C176      1.0  0.23616  0.02426  0.72435  1.0000
  C   C177      1.0  0.44601  0.23339  0.00216  1.0000
  H   H213      1.0  0.08574  0.18744  0.99330  1.0000
  H   H214      1.0  0.21140  0.01970  0.73210  1.0000
  H   H215      1.0  0.44251  0.44244  0.97441  1.0000
  C   C178      1.0  0.45362  0.01066  0.92723  1.0000
  C   C179      1.0  0.50213  0.49262  0.74535  1.0000
  H   H216      1.0  0.28006  0.44554  0.98275  1.0000
  H   H217      1.0  0.50620  0.05648  0.98657  1.0000
  C   C180      1.0  0.44564  0.45303  0.99827  1.0000
  C   C181      1.0  0.01253  0.45010  0.00072  1.0000
  H   H218      1.0  0.49137  0.35447  0.77195  1.0000
  H   H219      1.0  0.47309  0.40036  0.98874  1.0000
  C   C182      1.0  0.48115  0.21423  0.68442  1.0000
  H   H220      1.0  0.05335  0.01823  0.74738  1.0000
  S   S45       1.0  0.37614  0.38064  0.00243  1.0000
  C   C183      1.0  0.50329  0.44139  0.99944  1.0000
  C   C184      1.0  0.49524  0.01666  0.81859  1.0000
  H   H221      1.0  0.02476  0.04581  0.98650  1.0000
  S   S46       1.0  0.45731  0.30718  0.67791  1.0000
  H   H222      1.0  0.50629  0.50239  0.98044  1.0000
  N   N12       1.0  0.47813  0.46572  0.00257  1.0000
  H   H223      1.0  0.36528  0.96671  0.33117  1.0000
  H   H224      1.0  0.27818  0.95360  0.18427  1.0000
  C   C185      1.0  0.44165  0.93515  0.18315  1.0000
  C   C186      1.0  0.46853  0.98518  0.17593  1.0000
  S   S47       1.0  0.33424  0.93966  0.13079  1.0000
  C   C187      1.0  0.41925  0.92039  0.05384  1.0000
  Fe  Fe26      1.0  0.34068  0.97473  0.17017  1.0000
  S   S48       1.0  0.33416  0.95627  0.22010  1.0000
  Fe  Fe27      1.0  0.37915  0.95915  0.11077  1.0000
  S   S49       1.0  0.42132  0.93115  0.09379  1.0000
  C   C188      1.0  0.24968  0.99305  0.05071  1.0000
  S   S50       1.0  0.02924  0.87561  0.16780  1.0000
  S   S51       1.0  0.08780  0.91354  0.10445  1.0000
  H   H225      1.0  0.34546  0.93759  0.28420  1.0000
  H   H226      1.0  0.42221  0.81943  0.02933  1.0000
  C   C189      1.0  0.07100  0.91237  0.01027  1.0000
  C   C190      1.0  0.44629  0.90827  0.03894  1.0000
  H   H227      1.0  0.01276  0.90877  0.31077  1.0000
  Fe  Fe28      1.0  0.04007  0.89517  0.11945  1.0000
  C   C191      1.0  0.45338  0.99827  0.20298  1.0000
  C   C192      1.0  0.42655  0.94716  0.20983  1.0000
  C   C193      1.0  0.03762  0.99441  0.02247  1.0000
  H   H228      1.0  0.15915  0.97681  0.15488  1.0000
  H   H229      1.0  0.24869  0.92790  0.00915  1.0000
  H   H230      1.0  0.02364  0.97196  0.18406  1.0000
  Fe  Fe29      1.0  0.31025  0.97959  0.10479  1.0000
  S   S52       1.0  0.26387  0.96776  0.08065  1.0000
  C   C194      1.0  0.21598  0.91998  0.22191  1.0000
  C   C195      1.0  0.08890  0.92240  0.06383  1.0000
  C   C196      1.0  0.10907  0.94611  0.05240  1.0000
  C   C197      1.0  0.10991  0.95317  0.01991  1.0000
  C   C198      1.0  0.06983  0.90569  0.04266  1.0000
  H   H231      1.0  0.12353  0.95949  0.06866  1.0000
  H   H232      1.0  0.05452  0.88719  0.05111  1.0000
  H   H233      1.0  0.43631  0.91149  0.17485  1.0000
  H   H234      1.0  0.15185  0.89031  0.15587  1.0000
  C   C199      1.0  0.20839  0.00584  0.01235  1.0000
  C   C200      1.0  0.19089  0.94290  0.11012  1.0000
  H   H235      1.0  0.37021  0.93345  0.04801  1.0000
  H   H236      1.0  0.20479  0.96915  0.04732  1.0000
  H   H237      1.0  0.06337  0.52886  0.18431  1.0000
  H   H238      1.0  0.17055  0.91090  0.20186  1.0000
  C   C201      1.0  0.01544  0.98332  0.20545  1.0000
  S   S53       1.0  0.05162  0.52008  0.06723  1.0000
  H   H239      1.0  0.20959  0.91045  0.24481  1.0000
  H   H240      1.0  0.41878  0.98664  0.23959  1.0000
  C   C202      1.0  0.34856  0.97764  0.25280  1.0000
  C   C203      1.0  0.35161  0.96234  0.28212  1.0000
  C   C204      1.0  0.36282  0.97879  0.30874  1.0000
  C   C205      1.0  0.45431  0.99391  0.02832  1.0000
  H   H241      1.0  0.19834  0.96815  0.11124  1.0000
  N   N13       1.0  0.17817  0.93168  0.14083  1.0000
  C   C206      1.0  0.15105  0.95241  0.14926  1.0000
  C   C207      1.0  0.44737  0.81288  0.02504  1.0000
  C   C208      1.0  0.16663  0.89887  0.13596  1.0000
  C   C209      1.0  0.20178  0.93216  0.16679  1.0000
  C   C210      1.0  0.23278  0.94459  0.16306  1.0000
  C   C211      1.0  0.19389  0.92021  0.19715  1.0000
  C   C212      1.0  0.25460  0.94426  0.18791  1.0000
  H   H242      1.0  0.12529  0.97161  0.01116  1.0000
  C   C213      1.0  0.24637  0.93187  0.21722  1.0000
  H   H243      1.0  0.45811  0.98295  0.05202  1.0000
  H   H244      1.0  0.13360  0.95431  0.12956  1.0000
  S   S54       1.0  0.01106  0.85882  0.09361  1.0000
  S   S55       1.0  0.38752  0.99084  0.15226  1.0000
  C   C214      1.0  0.39123  0.92435  0.03656  1.0000
  H   H245      1.0  0.15129  0.89697  0.11458  1.0000
  H   H246      1.0  0.48433  0.99869  0.16120  1.0000
  H   H247      1.0  0.21155  0.92836  0.10245  1.0000
  S   S56       1.0  0.01592  0.58519  0.12515  1.0000
  H   H248      1.0  0.24097  0.95466  0.14116  1.0000
  C   C215      1.0  0.43221  0.97822  0.21962  1.0000
  C   C216      1.0  0.21949  0.98771  0.03790  1.0000
  H   H249      1.0  0.20491  0.90769  0.04041  1.0000
  H   H250      1.0  0.18676  0.88207  0.13285  1.0000
  H   H251      1.0  0.40932  0.93280  0.22227  1.0000
  C   C217      1.0  0.20219  0.90984  0.01503  1.0000
  H   H252      1.0  0.13770  0.94338  0.16998  1.0000
  C   C218      1.0  0.46264  0.95407  0.16633  1.0000
  H   H253      1.0  0.26373  0.93154  0.23621  1.0000
  H   H254      1.0  0.46800  0.90521  0.05229  1.0000
  H   H255      1.0  0.15356  0.89451  0.01512  1.0000
  H   H256      1.0  0.47347  0.94488  0.14498  1.0000
  H   H257      1.0  0.46076  0.83551  0.02641  1.0000
  S   S57       1.0  0.35488  0.99602  0.08113  1.0000
  H   H258      1.0  0.45542  0.79758  0.04497  1.0000
  H   H259      1.0  0.03524  0.96895  0.02888  1.0000
  H   H260      1.0  0.17290  0.94145  0.09090  1.0000
  N   N14       1.0  0.48455  0.99806  0.01102  1.0000
  H   H261      1.0  0.43757  0.97814  0.01557  1.0000
  Fe  Fe30      1.0  0.01064  0.54771  0.08778  1.0000
  H   H262      1.0  0.05026  0.00594  0.04247  1.0000
  H   H263      1.0  0.50436  0.95440  0.02918  1.0000
  Fe  Fe31      1.0  0.40671  0.96214  0.43622  1.0000
  S   S58       1.0  0.43305  0.91635  0.44559  1.0000
  C   C219      1.0  0.23111  0.55810  0.44027  1.0000
  H   H264      1.0  0.49679  0.89859  0.54158  1.0000
  S   S59       1.0  0.36342  0.96592  0.40505  1.0000
  S   S60       1.0  0.38375  0.98615  0.47769  1.0000
  Fe  Fe32      1.0  0.42142  0.67216  0.51995  1.0000
  S   S61       1.0  0.39853  0.65491  0.47529  1.0000
  S   S62       1.0  0.44148  0.72179  0.52067  1.0000
  Fe  Fe33      1.0  0.40185  0.61302  0.55602  1.0000
  S   S63       1.0  0.37666  0.59163  0.51430  1.0000
  S   S64       1.0  0.40961  0.58918  0.60319  1.0000
  Fe  Fe34      1.0  0.41962  0.60772  0.48774  1.0000
  S   S65       1.0  0.44111  0.57593  0.45066  1.0000
  Fe  Fe35      1.0  0.35763  0.64064  0.50588  1.0000
  S   S66       1.0  0.30948  0.65566  0.48702  1.0000
  S   S67       1.0  0.44603  0.62614  0.52988  1.0000
  S   S68       1.0  0.37914  0.66099  0.55007  1.0000
  Fe  Fe36      1.0  0.13373  0.60698  0.51017  1.0000
  S   S69       1.0  0.12114  0.63171  0.46473  1.0000
  S   S70       1.0  0.18169  0.58789  0.52522  1.0000
  Fe  Fe37      1.0  0.06506  0.60316  0.53110  1.0000
  S   S71       1.0  0.04691  0.62768  0.48783  1.0000
  H   H265      1.0  0.09700  0.88092  0.54328  1.0000
  Fe  Fe38      1.0  0.08122  0.59673  0.46175  1.0000
  S   S72       1.0  0.06590  0.57456  0.41560  1.0000
  Fe  Fe39      1.0  0.08772  0.66052  0.49475  1.0000
  S   S73       1.0  0.08055  0.71293  0.48588  1.0000
  S   S74       1.0  0.09632  0.56972  0.50473  1.0000
  S   S75       1.0  0.10350  0.63849  0.54068  1.0000
  C   C220      1.0  0.26006  0.60395  0.42226  1.0000
  C   C221      1.0  0.09258  0.86417  0.52346  1.0000
  Fe  Fe40      1.0  0.11358  0.96320  0.60795  1.0000
  S   S76       1.0  0.08763  0.91656  0.60645  1.0000
  S   S77       1.0  0.03223  0.58458  0.56830  1.0000
  S   S78       1.0  0.15549  0.97139  0.63988  1.0000
  C   C222      1.0  0.04605  0.91715  0.60244  1.0000
  N   N15       1.0  0.06800  0.87584  0.50093  1.0000
  H   H266      1.0  0.48870  0.55146  0.63445  1.0000
  C   C223      1.0  0.09992  0.95632  0.44670  1.0000
  H   H267      1.0  0.50108  0.00091  0.47472  1.0000
  C   C224      1.0  0.04498  0.72872  0.50106  1.0000
  S   S79       1.0  0.08969  0.00845  0.62148  1.0000
  H   H268      1.0  0.40673  0.98341  0.60486  1.0000
  H   H269      1.0  0.46848  0.83103  0.55611  1.0000
  H   H270      1.0  0.25865  0.65784  0.55691  1.0000
  H   H271      1.0  0.47164  0.55822  0.56497  1.0000
  Fe  Fe41      1.0  0.34248  0.99429  0.44492  1.0000
  H   H272      1.0  0.47022  0.90669  0.50924  1.0000
  H   H273      1.0  0.08413  0.52392  0.45869  1.0000
  C   C225      1.0  0.27448  0.63525  0.49635  1.0000
  C   C226      1.0  0.27481  0.60846  0.51573  1.0000
  C   C227      1.0  0.24615  0.59366  0.52374  1.0000
  C   C228      1.0  0.21712  0.60558  0.51248  1.0000
  C   C229      1.0  0.21684  0.63207  0.49274  1.0000
  C   C230      1.0  0.24548  0.64678  0.48464  1.0000
  H   H274      1.0  0.29706  0.59939  0.52483  1.0000
  H   H275      1.0  0.24645  0.57317  0.53911  1.0000
  H   H276      1.0  0.19458  0.64148  0.48407  1.0000
  H   H277      1.0  0.24516  0.66741  0.46946  1.0000
  C   C231      1.0  0.48229  0.56969  0.45092  1.0000
  H   H278      1.0  0.15695  0.57083  0.46419  1.0000
  H   H279      1.0  0.04082  0.96764  0.60662  1.0000
  C   C232      1.0  0.15081  0.70771  0.53718  1.0000
  H   H280      1.0  0.50244  0.65318  0.47486  1.0000
  C   C233      1.0  0.16886  0.69445  0.56163  1.0000
  C   C234      1.0  0.40983  0.53150  0.57322  1.0000
  H   H281      1.0  0.14035  0.53236  0.45736  1.0000
  C   C235      1.0  0.49891  0.72712  0.44147  1.0000
  C   C236      1.0  0.48935  0.76457  0.52315  1.0000
  C   C237      1.0  0.48184  0.73232  0.52290  1.0000
  C   C238      1.0  0.08141  0.93322  0.43232  1.0000
  H   H282      1.0  0.47050  0.78198  0.52275  1.0000
  H   H283      1.0  0.02079  0.89483  0.50320  1.0000
  C   C239      1.0  0.05782  0.84835  0.48145  1.0000
  H   H284      1.0  0.14032  0.58276  0.40965  1.0000
  H   H285      1.0  0.04296  0.86646  0.59798  1.0000
  C   C240      1.0  0.24618  0.99142  0.55257  1.0000
  H   H286      1.0  0.50601  0.94397  0.62581  1.0000
  H   H287      1.0  0.28126  0.61840  0.42292  1.0000
  C   C241      1.0  0.47467  0.91527  0.44211  1.0000
  C   C242      1.0  0.49057  0.88677  0.44828  1.0000
  H   H288      1.0  0.29432  0.98957  0.56968  1.0000
  C   C243      1.0  0.49228  0.94245  0.43547  1.0000
  H   H289      1.0  0.47714  0.86545  0.45259  1.0000
  H   H290      1.0  0.22828  0.99719  0.66772  1.0000
  H   H291      1.0  0.48031  0.96435  0.42992  1.0000
  C   C244      1.0  0.07117  0.90689  0.44953  1.0000
  H   H292      1.0  0.47272  0.96371  0.54720  1.0000
  C   C245      1.0  0.02999  0.88861  0.59761  1.0000
  C   C246      1.0  0.46136  0.67761  0.41010  1.0000
  H   H293      1.0  0.03926  0.99720  0.47381  1.0000
  H   H294      1.0  0.08533  0.84182  0.53537  1.0000
  H   H295      1.0  0.44334  0.84730  0.58624  1.0000
  C   C247      1.0  0.49614  0.55353  0.42556  1.0000
  N   N16       1.0  0.22077  0.67671  0.58535  1.0000
  C   C248      1.0  0.20824  0.64482  0.59297  1.0000
  C   C249      1.0  0.25504  0.67293  0.57813  1.0000
  C   C250      1.0  0.21803  0.69704  0.61376  1.0000
  C   C251      1.0  0.20225  0.69100  0.55910  1.0000
  C   C252      1.0  0.21647  0.70248  0.53089  1.0000
  C   C253      1.0  0.49330  0.54467  0.57187  1.0000
  C   C254      1.0  0.19811  0.71545  0.50646  1.0000
  H   H296      1.0  0.48490  0.52291  0.58400  1.0000
  C   C255      1.0  0.25871  0.57625  0.44001  1.0000
  N   N17       1.0  0.45049  0.87822  0.54631  1.0000
  H   H297      1.0  0.46562  0.63841  0.45948  1.0000
  H   H298      1.0  0.03609  0.95720  0.48807  1.0000
  H   H299      1.0  0.22545  0.99338  0.47471  1.0000
  H   H300      1.0  0.27892  0.56936  0.45440  1.0000
  H   H301      1.0  0.26676  0.69611  0.57400  1.0000
  H   H302      1.0  0.19317  0.69888  0.62223  1.0000
  H   H303      1.0  0.23237  0.68759  0.63383  1.0000
  H   H304      1.0  0.22634  0.72150  0.60866  1.0000
  H   H305      1.0  0.24167  0.70107  0.52668  1.0000
  H   H306      1.0  0.50079  0.68496  0.52387  1.0000
  H   H307      1.0  0.20936  0.72328  0.48483  1.0000
  H   H308      1.0  0.48141  0.54460  0.40660  1.0000
  H   H309      1.0  0.22261  0.63261  0.61144  1.0000
  C   C256      1.0  0.04037  0.88702  0.51917  1.0000
  H   H310      1.0  0.07476  0.93593  0.40767  1.0000
  C   C257      1.0  0.47755  0.88838  0.52676  1.0000
  H   H311      1.0  0.43456  0.84025  0.51568  1.0000
  C   C258      1.0  0.43767  0.90639  0.56286  1.0000
  C   C259      1.0  0.41615  0.92751  0.54759  1.0000
  C   C260      1.0  0.44851  0.91532  0.59345  1.0000
  C   C261      1.0  0.40496  0.95478  0.56276  1.0000
  C   C262      1.0  0.43714  0.94263  0.60836  1.0000
  C   C263      1.0  0.41530  0.96221  0.59315  1.0000
  H   H312      1.0  0.49935  0.60747  0.57021  1.0000
  H   H313      1.0  0.28650  0.98601  0.38503  1.0000
  C   C264      1.0  0.03153  0.75601  0.48749  1.0000
  C   C265      1.0  0.01908  0.99490  0.53414  1.0000
  C   C266      1.0  0.06319  0.53299  0.41318  1.0000
  S   S80       1.0  0.28966  0.99114  0.45328  1.0000
  C   C267      1.0  0.14926  0.55911  0.40208  1.0000
  C   C268      1.0  0.20395  0.56706  0.42242  1.0000
  H   H314      1.0  0.40807  0.92360  0.52363  1.0000
  N   N18       1.0  0.49054  0.66966  0.42827  1.0000
  H   H315      1.0  0.38833  0.97041  0.55077  1.0000
  H   H316      1.0  0.44550  0.94885  0.63184  1.0000
  C   C269      1.0  0.07464  0.51359  0.43747  1.0000
  C   C270      1.0  0.02985  0.71422  0.52654  1.0000
  C   C271      1.0  0.42597  0.53133  0.62811  1.0000
  H   H317      1.0  0.42121  0.87793  0.50386  1.0000
  H   H318      1.0  0.05154  0.51761  0.53097  1.0000
  C   C272      1.0  0.23372  0.61374  0.40484  1.0000
  H   H319      1.0  0.47424  0.97293  0.49160  1.0000
  H   H320      1.0  0.44642  0.65630  0.40584  1.0000
  H   H321      1.0  0.47423  0.72981  0.44775  1.0000
  H   H322      1.0  0.03598  0.85352  0.46748  1.0000
  C   C273      1.0  0.48620  0.98570  0.55181  1.0000
  C   C274      1.0  0.05046  0.51906  0.38589  1.0000
  C   C275      1.0  0.16535  0.71788  0.50953  1.0000
  H   H323      1.0  0.49113  0.59336  0.49505  1.0000
  H   H324      1.0  0.20833  0.62941  0.57171  1.0000
  H   H325      1.0  0.50832  0.77564  0.45387  1.0000
  H   H326      1.0  0.12218  0.97161  0.48976  1.0000
  H   H327      1.0  0.47641  0.58746  0.61660  1.0000
  H   H328      1.0  0.04654  0.90732  0.53472  1.0000
  S   S81       1.0  0.22984  0.99038  0.59096  1.0000
  C   C276      1.0  0.10809  0.95336  0.47849  1.0000
  S   S82       1.0  0.13700  0.98282  0.56459  1.0000
  H   H329      1.0  0.03214  0.97329  0.54187  1.0000
  H   H330      1.0  0.48789  0.86816  0.51340  1.0000
  C   C277      1.0  0.27361  0.99174  0.49179  1.0000
  H   H331      1.0  0.15105  0.72751  0.49041  1.0000
  C   C278      1.0  0.22685  0.99270  0.52568  1.0000
  H   H332      1.0  0.19370  0.51425  0.38931  1.0000
  C   C279      1.0  0.27926  0.99059  0.54897  1.0000
  H   H333      1.0  0.46617  0.90174  0.60617  1.0000
  H   H334      1.0  0.12526  0.70974  0.53943  1.0000
  H   H335      1.0  0.10421  0.92667  0.52077  1.0000
  H   H336      1.0  0.03102  0.86791  0.53462  1.0000
  C   C280      1.0  0.41505  0.54788  0.60141  1.0000
  H   H337      1.0  0.03745  0.99156  0.66762  1.0000
  C   C281      1.0  0.49767  0.57247  0.62153  1.0000
  C   C282      1.0  0.07983  0.90266  0.48179  1.0000
  C   C283      1.0  0.50153  0.58132  0.47522  1.0000
  H   H338      1.0  0.12826  0.54325  0.40248  1.0000
  C   C284      1.0  0.16243  0.54652  0.45576  1.0000
  H   H339      1.0  0.07693  0.84061  0.46508  1.0000
  H   H340      1.0  0.05135  0.82755  0.49632  1.0000
  H   H341      1.0  0.18349  0.64543  0.60178  1.0000
  C   C285      1.0  0.29297  0.99089  0.51868  1.0000
  H   H342      1.0  0.48897  0.62237  0.40871  1.0000
  H   H343      1.0  0.18634  0.60497  0.39122  1.0000
  C   C286      1.0  0.20597  0.59572  0.40484  1.0000
  H   H344      1.0  0.48389  0.86029  0.58129  1.0000
  H   H345      1.0  0.40134  0.54387  0.55260  1.0000
  H   H346      1.0  0.26823  0.66123  0.59779  1.0000
  Fe  Fe42      1.0  0.17693  0.99558  0.59758  1.0000
  H   H347      1.0  0.23470  0.63573  0.39167  1.0000
  C   C287      1.0  0.09801  0.92716  0.49595  1.0000
  C   C288      1.0  0.48689  0.99555  0.49619  1.0000
  C   C289      1.0  0.24055  0.99272  0.49540  1.0000
  H   H348      1.0  0.01578  0.93081  0.40556  1.0000
  H   H349      1.0  0.15630  0.68668  0.58244  1.0000
  N   N19       1.0  0.17502  0.54733  0.42313  1.0000
  C   C290      1.0  0.42639  0.86343  0.52528  1.0000
  H   H350      1.0  0.11542  0.85953  0.51118  1.0000
  H   H351      1.0  0.04038  0.69354  0.53752  1.0000
  C   C291      1.0  0.50635  0.70988  0.52337  1.0000
  H   H352      1.0  0.05607  0.89039  0.43718  1.0000
  C   C292      1.0  0.50587  0.64228  0.41227  1.0000
  H   H353      1.0  0.23098  0.53732  0.45517  1.0000
  H   H354      1.0  0.40379  0.85928  0.53811  1.0000
  C   C293      1.0  0.46186  0.85329  0.56857  1.0000
  H   H355      1.0  0.17948  0.53617  0.47304  1.0000
  H   H356      1.0  0.04316  0.76730  0.46776  1.0000
  C   C294      1.0  0.02889  0.94554  0.60269  1.0000
  H   H357      1.0  0.31844  0.99012  0.51613  1.0000
  H   H358      1.0  0.10759  0.97673  0.43320  1.0000
  C   C295      1.0  0.48128  0.65945  0.46035  1.0000
  C   C296      1.0  0.29085  0.99398  0.36035  1.0000
  H   H359      1.0  0.15703  0.56043  0.37702  1.0000
  H   H360      1.0  0.46730  0.68817  0.38676  1.0000
  H   H361      1.0  0.20138  0.99338  0.52820  1.0000
  C   C297      1.0  0.18266  0.51450  0.41318  1.0000
  H   H362      1.0  0.44560  0.69441  0.42285  1.0000
  C   C298      1.0  0.02221  0.97819  0.48026  1.0000
  H   H363      1.0  0.46811  0.67832  0.47317  1.0000
  H   H364      1.0  0.50529  0.53716  0.54970  1.0000
  H   H365      1.0  0.07982  0.95297  0.66378  1.0000
  S   S83       1.0  0.42919  0.00594  0.41677  1.0000
  H   H366      1.0  0.49956  0.98173  0.57410  1.0000
  H   H367      1.0  0.42972  0.54381  0.65011  1.0000
  H   H368      1.0  0.04168  0.53391  0.36691  1.0000
  H   H369      1.0  0.46880  0.00511  0.55637  1.0000
  H   H370      1.0  0.31703  0.99392  0.35715  1.0000
  N   N20       1.0  0.50714  0.99369  0.52492  1.0000
  H   H371      1.0  0.01362  0.57161  0.50374  1.0000
  H   H372      1.0  0.28074  0.97577  0.34428  1.0000
  H   H373      1.0  0.01010  0.67269  0.42756  1.0000
  Fe  Fe43      1.0  0.46277  0.89053  0.92413  1.0000
  S   S84       1.0  0.41579  0.89495  0.94906  1.0000
  S   S85       1.0  0.46663  0.86230  0.87929  1.0000
  H   H374      1.0  0.45145  0.66192  0.83593  1.0000
  H   H375      1.0  0.01875  0.51962  0.00070  1.0000
  S   S86       1.0  0.15974  0.98918  0.83297  1.0000
  Fe  Fe44      1.0  0.11511  0.98788  0.94049  1.0000
  H   H376      1.0  0.26630  0.94587  0.89666  1.0000
  S   S87       1.0  0.09046  0.94431  0.95819  1.0000
  C   C299      1.0  0.47232  0.97294  0.77479  1.0000
  H   H377      1.0  0.08624  0.97298  0.83120  1.0000
  S   S88       1.0  0.50081  0.56704  0.80600  1.0000
  C   C300      1.0  0.06368  0.96747  0.74128  1.0000
  S   S89       1.0  0.16424  0.98622  0.92091  1.0000
  C   C301      1.0  0.22732  0.92109  0.99676  1.0000
  C   C302      1.0  0.44547  0.90063  0.00669  1.0000
  Fe  Fe45      1.0  0.45493  0.55244  0.91725  1.0000
  Fe  Fe46      1.0  0.49364  0.90448  0.86146  1.0000
  S   S90       1.0  0.41398  0.52696  0.93925  1.0000
  C   C303      1.0  0.06826  0.99795  0.79056  1.0000
  H   H378      1.0  0.43990  0.80508  0.94542  1.0000
  H   H379      1.0  0.47664  0.73577  0.98109  1.0000
  H   H380      1.0  0.19009  0.91856  0.92473  1.0000
  S   S91       1.0  0.44770  0.58921  0.87987  1.0000
  C   C304      1.0  0.46171  0.75433  0.81945  1.0000
  C   C305      1.0  0.07500  0.94073  0.75837  1.0000
  C   C306      1.0  0.15685  0.98630  0.76835  1.0000
  C   C307      1.0  0.39030  0.91623  0.00440  1.0000
  C   C308      1.0  0.06074  0.99634  0.75837  1.0000
  H   H381      1.0  0.14695  0.90047  0.95748  1.0000
  H   H382      1.0  0.02447  0.95893  0.97597  1.0000
  H   H383      1.0  0.16698  0.96289  0.77113  1.0000
  H   H384      1.0  0.15475  0.98342  0.71741  1.0000
  H   H385      1.0  0.45067  0.83988  0.96701  1.0000
  H   H386      1.0  0.43946  0.99798  0.90997  1.0000
  H   H387      1.0  0.18540  0.00098  0.00208  1.0000
  S   S92       1.0  0.48611  0.93400  0.90487  1.0000
  Fe  Fe47      1.0  0.47946  0.61950  0.90977  1.0000
  H   H388      1.0  0.46333  0.95609  0.75776  1.0000
  C   C309      1.0  0.48677  0.79448  0.98869  1.0000
  C   C310      1.0  0.24551  0.93692  0.91007  1.0000
  H   H389      1.0  0.46789  0.78347  0.90175  1.0000
  H   H390      1.0  0.28905  0.92151  0.97586  1.0000
  C   C311      1.0  0.07939  0.97129  0.80651  1.0000
  H   H391      1.0  0.46478  0.51008  0.98086  1.0000
  C   C312      1.0  0.09085  0.93618  0.99883  1.0000
  C   C313      1.0  0.40295  0.76389  0.00063  1.0000
  S   S93       1.0  0.48444  0.92123  0.81165  1.0000
  H   H392      1.0  0.07836  0.91813  0.74692  1.0000
  H   H393      1.0  0.43879  0.73312  0.91033  1.0000
  C   C314      1.0  0.46341  0.72165  0.81441  1.0000
  C   C315      1.0  0.41749  0.90464  0.98936  1.0000
  H   H394      1.0  0.49223  0.78498  0.96475  1.0000
  H   H395      1.0  0.45309  0.66865  0.77771  1.0000
  H   H396      1.0  0.46652  0.89169  0.99531  1.0000
  C   C316      1.0  0.46434  0.73283  0.90820  1.0000
  H   H397      1.0  0.02425  0.93821  0.67701  1.0000
  H   H398      1.0  0.24872  0.00105  0.72327  1.0000
  N   N21       1.0  0.45205  0.79679  0.99419  1.0000
  C   C317      1.0  0.08481  0.95566  0.68946  1.0000
  C   C318      1.0  0.48080  0.70392  0.90990  1.0000
  H   H399      1.0  0.41291  0.82275  0.97297  1.0000
  H   H400      1.0  0.49859  0.77930  0.00674  1.0000
  H   H401      1.0  0.48773  0.65954  0.85759  1.0000
  C   C319      1.0  0.49508  0.52926  0.78938  1.0000
  H   H402      1.0  0.27669  0.89326  0.94660  1.0000
  C   C320      1.0  0.43567  0.70803  0.98719  1.0000
  N   N22       1.0  0.05594  0.96472  0.70720  1.0000
  C   C321      1.0  0.48071  0.76138  0.90371  1.0000
  S   S94       1.0  0.45934  0.66887  0.91673  1.0000
  H   H403      1.0  0.50269  0.97628  0.84919  1.0000
  H   H404      1.0  0.48795  0.79699  0.82865  1.0000
  H   H405      1.0  0.02161  0.00270  0.70513  1.0000
  C   C322      1.0  0.43592  0.76574  0.99424  1.0000
  C   C323      1.0  0.19486  0.91632  0.94972  1.0000
  C   C324      1.0  0.49294  0.70540  0.81376  1.0000
  H   H406      1.0  0.26299  0.97311  0.97949  1.0000
  C   C325      1.0  0.48332  0.96227  0.80422  1.0000
  H   H407      1.0  0.05348  0.99640  0.00153  1.0000
  C   C326      1.0  0.45184  0.73684  0.98727  1.0000
  N   N23       1.0  0.25119  0.93745  0.94478  1.0000
  H   H408      1.0  0.30059  0.92679  0.93596  1.0000
  C   C327      1.0  0.49421  0.98427  0.82640  1.0000
  N   N24       1.0  0.49402  0.67072  0.80862  1.0000
  H   H409      1.0  0.22528  0.95255  0.90318  1.0000
  C   C328      1.0  0.04358  0.99456  0.69307  1.0000
  C   C329      1.0  0.43827  0.81687  0.96886  1.0000
  S   S95       1.0  0.50728  0.87025  0.94511  1.0000
  H   H410      1.0  0.39099  0.68463  0.99287  1.0000
  H   H411      1.0  0.49843  0.81802  0.98989  1.0000
  H   H412      1.0  0.10352  0.97393  0.69219  1.0000
  H   H413      1.0  0.49016  0.67559  0.75814  1.0000
  C   C330      1.0  0.48927  0.77178  0.82391  1.0000
  C   C331      1.0  0.17335  0.90238  0.00086  1.0000
  H   H414      1.0  0.04015  0.91601  0.70905  1.0000
  H   H415      1.0  0.27617  0.98182  0.94034  1.0000
  H   H416      1.0  0.24070  0.91250  0.90152  1.0000
  H   H417      1.0  0.44819  0.68631  0.98139  1.0000
  H   H418      1.0  0.48038  0.63681  0.77295  1.0000
  C   C332      1.0  0.22450  0.92460  0.96346  1.0000
  C   C333      1.0  0.03153  0.93997  0.70233  1.0000
  H   H419      1.0  0.47670  0.62839  0.83093  1.0000
  C   C334      1.0  0.16971  0.90565  0.96831  1.0000
  H   H420      1.0  0.44134  0.70911  0.81155  1.0000
  H   H421      1.0  0.44800  0.97502  0.96220  1.0000
  H   H422      1.0  0.09213  0.92229  0.80292  1.0000
  C   C335      1.0  0.14975  0.99781  0.73792  1.0000
  C   C336      1.0  0.45886  0.99763  0.95720  1.0000
  Fe  Fe48      1.0  0.49246  0.57021  0.85866  1.0000
  H   H423      1.0  0.09499  0.93271  0.69740  1.0000
  C   C337      1.0  0.47342  0.00521  0.76698  1.0000
  H   H424      1.0  0.02137  0.56248  0.96236  1.0000
  S   S96       1.0  0.49684  0.53036  0.89348  1.0000
  C   C338      1.0  0.28054  0.91892  0.95110  1.0000
  C   C339      1.0  0.47667  0.65451  0.83429  1.0000
  H   H425      1.0  0.23497  0.98540  0.94998  1.0000
  C   C340      1.0  0.25665  0.97078  0.95406  1.0000
  S   S97       1.0  0.48358  0.58372  0.94908  1.0000
  C   C341      1.0  0.08283  0.94276  0.79045  1.0000
  H   H426      1.0  0.43890  0.76617  0.82045  1.0000
  C   C342      1.0  0.50457  0.52326  0.75816  1.0000
  H   H427      1.0  0.36855  0.91924  0.99110  1.0000
  H   H428      1.0  0.48431  0.95036  0.99227  1.0000
  H   H429      1.0  0.05623  0.89919  0.99403  1.0000
  C   C343      1.0  0.47877  0.66271  0.77802  1.0000
  C   C344      1.0  0.15067  0.00476  0.79528  1.0000
  C   C345      1.0  0.40337  0.70706  0.99358  1.0000
  C   C346      1.0  0.49938  0.96653  0.00632  1.0000
  C   C347      1.0  0.38701  0.73493  0.00031  1.0000
  H   H430      1.0  0.38917  0.78494  0.00548  1.0000
  H   H431      1.0  0.36179  0.73410  0.00501  1.0000
  H   H432      1.0  0.94858  0.26500  0.30942  1.0000
  H   H433      1.0  0.60940  0.28124  0.18486  1.0000
  S   S98       1.0  0.57760  0.13918  0.09119  1.0000
  H   H434      1.0  0.74795  0.05212  0.07562  1.0000
  Fe  Fe49      1.0  0.61883  0.12595  0.06044  1.0000
  S   S99       1.0  0.66789  0.13410  0.08008  1.0000
  Fe  Fe50      1.0  0.55533  0.09423  0.07430  1.0000
  S   S100      1.0  0.52982  0.05773  0.10321  1.0000
  C   C348      1.0  0.84140  0.48287  0.11871  1.0000
  Fe  Fe51      1.0  0.87988  0.07862  0.04942  1.0000
  S   S101      1.0  0.88509  0.04404  0.08959  1.0000
  S   S102      1.0  0.85215  0.12372  0.05554  1.0000
  Fe  Fe52      1.0  0.67989  0.43194  0.08365  1.0000
  S   S103      1.0  0.53929  0.21039  0.05192  1.0000
  Fe  Fe53      1.0  0.61885  0.39434  0.09097  1.0000
  S   S104      1.0  0.59195  0.35127  0.07454  1.0000
  S   S105      1.0  0.63378  0.43204  0.05689  1.0000
  S   S106      1.0  0.66654  0.39087  0.11440  1.0000
  S   S107      1.0  0.58129  0.46041  0.31993  1.0000
  S   S108      1.0  0.73003  0.43541  0.06541  1.0000
  S   S109      1.0  0.66444  0.46849  0.11896  1.0000
  C   C349      1.0  0.63885  0.43067  0.23295  1.0000
  C   C350      1.0  0.60636  0.43670  0.23038  1.0000
  C   C351      1.0  0.58891  0.44544  0.25732  1.0000
  C   C352      1.0  0.60366  0.44754  0.28709  1.0000
  C   C353      1.0  0.63587  0.44017  0.28985  1.0000
  C   C354      1.0  0.65338  0.43180  0.26284  1.0000
  H   H435      1.0  0.59473  0.43471  0.20771  1.0000
  H   H436      1.0  0.56390  0.45080  0.25516  1.0000
  H   H437      1.0  0.64739  0.44149  0.31270  1.0000
  C   C355      1.0  0.53916  0.38921  0.07608  1.0000
  C   C356      1.0  0.55146  0.35954  0.06816  1.0000
  H   H438      1.0  0.68708  0.43180  0.01169  1.0000
  H   H439      1.0  0.55461  0.40774  0.08406  1.0000
  H   H440      1.0  0.54044  0.31318  0.05000  1.0000
  S   S110      1.0  0.60003  0.15030  0.01722  1.0000
  C   C357      1.0  0.73646  0.43153  0.02448  1.0000
  H   H441      1.0  0.87229  0.50092  0.20983  1.0000
  C   C358      1.0  0.60921  0.27014  0.05987  1.0000
  C   C359      1.0  0.57281  0.30653  0.15821  1.0000
  C   C360      1.0  0.81216  0.47098  0.10867  1.0000
  C   C361      1.0  0.58584  0.24992  0.15334  1.0000
  C   C362      1.0  0.96067  0.23455  0.04395  1.0000
  C   C363      1.0  0.88976  0.48827  0.19473  1.0000
  C   C364      1.0  0.80075  0.45410  0.16185  1.0000
  S   S111      1.0  0.92333  0.10232  0.03066  1.0000
  H   H442      1.0  0.86825  0.48426  0.02435  1.0000
  H   H443      1.0  0.62327  0.49220  0.02976  1.0000
  H   H444      1.0  0.94896  0.24912  0.06144  1.0000
  C   C365      1.0  0.70039  0.13274  0.05404  1.0000
  C   C366      1.0  0.54968  0.30205  0.13407  1.0000
  C   C367      1.0  0.73126  0.13132  0.06637  1.0000
  H   H445      1.0  0.78112  0.12686  0.05583  1.0000
  H   H446      1.0  0.73487  0.13137  0.09169  1.0000
  S   S112      1.0  0.66238  0.42213  0.19952  1.0000
  H   H447      1.0  0.62966  0.33173  0.17617  1.0000
  H   H448      1.0  0.93095  0.16695  0.32472  1.0000
  C   C368      1.0  0.57513  0.33499  0.20818  1.0000
  H   H449      1.0  0.62154  0.47983  0.17861  1.0000
  H   H450      1.0  0.97129  0.46115  0.04885  1.0000
  H   H451      1.0  0.99258  0.49600  0.03940  1.0000
  C   C369      1.0  0.96281  0.18645  0.01300  1.0000
  S   S113      1.0  0.97067  0.35947  0.31162  1.0000
  C   C370      1.0  0.53107  0.33616  0.05639  1.0000
  H   H452      1.0  0.99997  0.16759  0.16330  1.0000
  H   H453      1.0  0.63812  0.21151  0.01328  1.0000
  S   S114      1.0  0.53121  0.11659  0.03265  1.0000
  C   C371      1.0  0.98605  0.49226  0.19221  1.0000
  H   H454      1.0  0.97840  0.47394  0.28186  1.0000
  C   C372      1.0  0.99064  0.45521  0.23617  1.0000
  H   H455      1.0  0.56125  0.38582  0.17459  1.0000
  H   H456      1.0  0.98928  0.49727  0.16748  1.0000
  H   H457      1.0  0.94789  0.04265  0.12281  1.0000
  H   H458      1.0  0.98568  0.02417  0.28209  1.0000
  C   C373      1.0  0.59098  0.27956  0.16715  1.0000
  H   H459      1.0  0.95960  0.08063  0.21594  1.0000
  H   H460      1.0  0.72299  0.50102  0.04219  1.0000
  C   C374      1.0  0.54485  0.27234  0.12035  1.0000
  C   C375      1.0  0.96923  0.15855  0.12385  1.0000
  H   H461      1.0  0.95141  0.49379  0.02977  1.0000
  H   H462      1.0  0.65806  0.30514  0.06023  1.0000
  Fe  Fe54      1.0  0.64791  0.42740  0.14818  1.0000
  H   H463      1.0  0.61004  0.28966  0.04219  1.0000
  H   H464      1.0  0.61530  0.34915  0.14024  1.0000
  C   C376      1.0  0.75750  0.12884  0.04609  1.0000
  N   N25       1.0  0.95067  0.06786  0.16724  1.0000
  H   H465      1.0  0.60143  0.21159  0.07688  1.0000
  H   H466      1.0  0.90713  0.08418  0.18807  1.0000
  H   H467      1.0  0.98679  0.04436  0.14013  1.0000
  C   C377      1.0  0.60357  0.50678  0.02241  1.0000
  H   H468      1.0  0.58421  0.26181  0.05982  1.0000
  C   C378      1.0  0.94886  0.13704  0.10961  1.0000
  S   S115      1.0  0.59911  0.42760  0.12738  1.0000
  C   C379      1.0  0.68501  0.04795  0.02539  1.0000
  H   H469      1.0  0.67843  0.42673  0.26508  1.0000
  H   H470      1.0  0.63492  0.22539  0.09928  1.0000
  H   H471      1.0  0.96121  0.03914  0.20820  1.0000
  H   H472      1.0  0.59300  0.31891  0.21902  1.0000
  C   C380      1.0  0.61142  0.34798  0.16623  1.0000
  H   H473      1.0  0.53515  0.32115  0.12503  1.0000
  H   H474      1.0  0.92703  0.09198  0.11156  1.0000
  N   N26       1.0  0.88274  0.49275  0.16055  1.0000
  Fe  Fe55      1.0  0.55733  0.16050  0.04697  1.0000
  H   H475      1.0  0.55862  0.22334  0.11940  1.0000
  C   C381      1.0  0.96687  0.06276  0.19803  1.0000
  C   C382      1.0  0.70195  0.04897  0.05382  1.0000
  Fe  Fe56      1.0  0.61719  0.46543  0.09465  1.0000
  H   H476      1.0  0.53151  0.35670  0.16706  1.0000
  C   C383      1.0  0.83000  0.46583  0.17216  1.0000
  H   H477      1.0  0.61389  0.28019  0.08373  1.0000
  C   C384      1.0  0.97384  0.47990  0.03056  1.0000
  C   C385      1.0  0.91612  0.06471  0.17280  1.0000
  Fe  Fe57      1.0  0.89393  0.14675  0.03240  1.0000
  H   H478      1.0  0.54232  0.47361  0.00957  1.0000
  Fe  Fe58      1.0  0.00013  0.40220  0.30092  1.0000
  H   H479      1.0  0.90214  0.06534  0.15051  1.0000
  H   H480      1.0  0.90574  0.45001  0.14490  1.0000
  C   C386      1.0  0.96111  0.04226  0.14559  1.0000
  S   S116      1.0  0.91146  0.19326  0.05170  1.0000
  C   C387      1.0  0.95746  0.09905  0.15281  1.0000
  H   H481      1.0  0.99733  0.26883  0.03441  1.0000
  C   C388      1.0  0.56269  0.24631  0.13010  1.0000
  H   H482      1.0  0.52726  0.26951  0.10181  1.0000
  H   H483      1.0  0.57833  0.35832  0.22008  1.0000
  C   C389      1.0  0.99300  0.46193  0.20380  1.0000
  H   H484      1.0  0.93730  0.14322  0.08754  1.0000
  H   H485      1.0  0.78730  0.43075  0.02946  1.0000
  C   C390      1.0  0.66543  0.25408  0.05257  1.0000
  S   S117      1.0  0.97556  0.08457  0.32421  1.0000
  H   H486      1.0  0.91338  0.49807  0.20122  1.0000
  C   C391      1.0  0.94774  0.20518  0.03562  1.0000
  H   H487      1.0  0.76931  0.44729  0.12224  1.0000
  H   H488      1.0  0.55120  0.32598  0.21450  1.0000
  C   C392      1.0  0.98029  0.47888  0.25685  1.0000
  H   H489      1.0  0.99310  0.06355  0.19551  1.0000
  H   H490      1.0  0.55947  0.36758  0.13668  1.0000
  H   H491      1.0  0.87893  0.29893  0.31681  1.0000
  C   C393      1.0  0.90082  0.30837  0.32802  1.0000
  H   H492      1.0  0.91958  0.30903  0.30970  1.0000
  C   C394      1.0  0.94045  0.21568  0.31370  1.0000
  S   S118      1.0  0.59861  0.07864  0.04780  1.0000
  C   C395      1.0  0.94306  0.10774  0.12369  1.0000
  C   C396      1.0  0.90789  0.47615  0.14250  1.0000
  C   C397      1.0  0.85131  0.48061  0.15076  1.0000
  C   C398      1.0  0.92571  0.19146  0.33034  1.0000
  N   N27       1.0  0.63181  0.24421  0.05207  1.0000
  H   H493      1.0  0.78484  0.44279  0.17844  1.0000
  H   H494      1.0  0.89046  0.46276  0.20129  1.0000
  H   H495      1.0  0.85633  0.49371  0.10106  1.0000
  C   C399      1.0  0.55668  0.36292  0.16242  1.0000
  N   N28       1.0  0.57868  0.33761  0.17336  1.0000
  C   C400      1.0  0.79190  0.45661  0.13019  1.0000
  H   H496      1.0  0.83540  0.46286  0.19694  1.0000
  H   H497      1.0  0.00109  0.44391  0.18761  1.0000
  H   H498      1.0  0.61655  0.37182  0.17626  1.0000
  H   H499      1.0  0.91026  0.04176  0.18433  1.0000
  H   H500      1.0  0.00044  0.01595  0.06660  1.0000
  H   H501      1.0  0.93195  0.48275  0.15101  1.0000
  C   C401      1.0  0.97838  0.12148  0.16674  1.0000
  H   H502      1.0  0.90716  0.48203  0.11685  1.0000
  C   C402      1.0  0.62679  0.21833  0.07528  1.0000
  H   H503      1.0  0.77663  0.05343  0.02483  1.0000
  H   H504      1.0  0.63956  0.19621  0.06887  1.0000
  S   S119      1.0  0.00166  0.41715  0.24950  1.0000
  C   C403      1.0  0.73489  0.05057  0.05358  1.0000
  C   C404      1.0  0.98805  0.24567  0.02878  1.0000
  H   H505      1.0  0.77343  0.50554  0.01475  1.0000
  H   H506      1.0  0.80514  0.47272  0.08402  1.0000
  C   C405      1.0  0.69591  0.13297  0.02130  1.0000
  H   H507      1.0  0.68942  0.04921  0.07617  1.0000
  H   H508      1.0  0.59985  0.22962  0.16070  1.0000
  C   C406      1.0  0.75100  0.05119  0.02494  1.0000
  C   C407      1.0  0.98404  0.15077  0.15232  1.0000
  H   H509      1.0  0.99068  0.11705  0.18875  1.0000
  H   H510      1.0  0.71365  0.31912  0.05975  1.0000
  H   H511      1.0  0.95711  0.20990  0.29509  1.0000
  C   C408      1.0  0.70693  0.29454  0.05663  1.0000
  C   C409      1.0  0.76762  0.43016  0.01304  1.0000
  H   H512      1.0  0.65955  0.04637  0.02692  1.0000
  C   C410      1.0  0.93519  0.24725  0.32202  1.0000
  C   C411      1.0  0.67489  0.28609  0.05685  1.0000
  H   H513      1.0  0.58056  0.48642  0.18797  1.0000
  H   H514      1.0  0.89374  0.01113  0.02960  1.0000
  H   H515      1.0  0.97341  0.18130  0.11270  1.0000
  C   C412      1.0  0.97247  0.50913  0.24503  1.0000
  C   C413      1.0  0.60100  0.49592  0.17444  1.0000
  H   H516      1.0  0.59489  0.49439  0.14894  1.0000
  H   H517      1.0  0.52966  0.02028  0.02009  1.0000
  H   H518      1.0  0.95727  0.01834  0.15606  1.0000
  H   H519      1.0  0.89630  0.33358  0.33443  1.0000
  H   H520      1.0  0.96471  0.02001  0.04441  1.0000
  H   H521      1.0  0.68463  0.20661  0.04405  1.0000
  H   H522      1.0  0.65949  0.50255  0.21477  1.0000
  H   H523      1.0  0.67023  0.50087  0.27125  1.0000
  C   C414      1.0  0.99439  0.01269  0.26099  1.0000
  C   C415      1.0  0.68992  0.23137  0.04787  1.0000
  C   C416      1.0  0.73032  0.27160  0.05216  1.0000
  H   H524      1.0  0.74003  0.22220  0.04421  1.0000
  C   C417      1.0  0.72182  0.24008  0.04780  1.0000
  H   H525      1.0  0.75509  0.27828  0.05192  1.0000
  C   C418      1.0  0.62369  0.23250  0.02004  1.0000
  H   H526      1.0  0.59835  0.22530  0.01841  1.0000
  S   S120      1.0  0.58615  0.50809  0.08506  1.0000
  C   C419      1.0  0.75299  0.12813  0.01334  1.0000
  H   H527      1.0  0.95602  0.42366  0.01062  1.0000
  H   H528      1.0  0.67223  0.13467  0.01170  1.0000
  C   C420      1.0  0.55405  0.48815  0.53965  1.0000
  H   H529      1.0  0.86205  0.28543  0.37287  1.0000
  Fe  Fe59      1.0  0.53120  0.39821  0.64016  1.0000
  H   H530      1.0  0.61402  0.34561  0.51138  1.0000
  C   C421      1.0  0.52073  0.05137  0.51359  1.0000
  S   S121      1.0  0.57826  0.03005  0.65362  1.0000
  H   H531      1.0  0.69220  0.38580  0.62245  1.0000
  C   C422      1.0  0.56002  0.05315  0.56686  1.0000
  S   S122      1.0  0.57814  0.40607  0.61559  1.0000
  Fe  Fe60      1.0  0.59413  0.43874  0.43704  1.0000
  S   S123      1.0  0.62750  0.47424  0.45747  1.0000
  S   S124      1.0  0.56625  0.40373  0.46603  1.0000
  Fe  Fe61      1.0  0.60217  0.46386  0.36943  1.0000
  H   H532      1.0  0.57499  0.05392  0.58778  1.0000
  Fe  Fe62      1.0  0.65775  0.46359  0.41536  1.0000
  S   S125      1.0  0.71055  0.45507  0.41941  1.0000
  H   H533      1.0  0.83210  0.44338  0.66767  1.0000
  S   S126      1.0  0.62613  0.42491  0.39689  1.0000
  S   S127      1.0  0.56721  0.47429  0.40821  1.0000
  Fe  Fe63      1.0  0.96074  0.38301  0.35815  1.0000
  S   S128      1.0  0.91113  0.38588  0.37811  1.0000
  H   H534      1.0  0.84369  0.45263  0.40805  1.0000
  Fe  Fe64      1.0  0.87812  0.41811  0.54864  1.0000
  S   S129      1.0  0.85304  0.45426  0.51907  1.0000
  S   S130      1.0  0.89851  0.37394  0.52671  1.0000
  Fe  Fe65      1.0  0.87668  0.45937  0.60801  1.0000
  H   H535      1.0  0.52041  0.49725  0.46779  1.0000
  Fe  Fe66      1.0  0.82187  0.46073  0.56134  1.0000
  S   S131      1.0  0.76898  0.46812  0.55679  1.0000
  H   H536      1.0  0.99809  0.05114  0.53017  1.0000
  S   S132      1.0  0.84432  0.42130  0.58962  1.0000
  S   S133      1.0  0.91252  0.45262  0.56925  1.0000
  H   H537      1.0  0.93366  0.04007  0.43263  1.0000
  H   H538      1.0  0.89451  0.17968  0.36840  1.0000
  C   C423      1.0  0.83618  0.46640  0.42918  1.0000
  C   C424      1.0  0.94739  0.44306  0.48560  1.0000
  H   H539      1.0  0.97046  0.09654  0.50832  1.0000
  C   C425      1.0  0.56761  0.49855  0.62543  1.0000
  H   H540      1.0  0.68080  0.35317  0.59810  1.0000
  C   C426      1.0  0.99283  0.44774  0.53754  1.0000
  S   S134      1.0  0.00192  0.35975  0.38270  1.0000
  C   C427      1.0  0.00743  0.45995  0.56460  1.0000
  H   H541      1.0  0.63328  0.36977  0.46197  1.0000
  C   C428      1.0  0.63501  0.36033  0.51193  1.0000
  H   H542      1.0  0.73976  0.39079  0.59288  1.0000
  C   C429      1.0  0.90741  0.38103  0.41929  1.0000
  C   C430      1.0  0.87967  0.39134  0.43424  1.0000
  C   C431      1.0  0.87668  0.38921  0.46722  1.0000
  C   C432      1.0  0.90096  0.37555  0.48527  1.0000
  C   C433      1.0  0.92802  0.36373  0.47016  1.0000
  C   C434      1.0  0.93143  0.36688  0.43730  1.0000
  H   H543      1.0  0.86050  0.40101  0.42028  1.0000
  H   H544      1.0  0.85529  0.39743  0.47862  1.0000
  H   H545      1.0  0.94671  0.35284  0.48402  1.0000
  H   H546      1.0  0.95256  0.35811  0.42610  1.0000
  C   C435      1.0  0.75366  0.46521  0.51820  1.0000
  C   C436      1.0  0.76845  0.44630  0.49544  1.0000
  C   C437      1.0  0.75484  0.44304  0.46528  1.0000
  C   C438      1.0  0.72650  0.45876  0.45770  1.0000
  C   C439      1.0  0.54461  0.02511  0.55870  1.0000
  S   S135      1.0  0.51168  0.09255  0.63687  1.0000
  H   H547      1.0  0.78985  0.43346  0.50134  1.0000
  H   H548      1.0  0.76600  0.42790  0.44794  1.0000
  H   H549      1.0  0.57561  0.49411  0.55208  1.0000
  N   N29       1.0  0.91009  0.28919  0.35603  1.0000
  H   H550      1.0  0.93601  0.46458  0.49562  1.0000
  C   C440      1.0  0.57533  0.40476  0.57402  1.0000
  C   C441      1.0  0.55303  0.38553  0.55898  1.0000
  C   C442      1.0  0.55036  0.38560  0.52590  1.0000
  C   C443      1.0  0.57002  0.40485  0.50755  1.0000
  C   C444      1.0  0.59269  0.42373  0.52256  1.0000
  C   C445      1.0  0.59539  0.42359  0.55569  1.0000
  H   H551      1.0  0.88372  0.23416  0.38305  1.0000
  C   C446      1.0  0.68734  0.40031  0.51319  1.0000
  H   H552      1.0  0.60835  0.43819  0.50875  1.0000
  H   H553      1.0  0.61241  0.43877  0.56711  1.0000
  H   H554      1.0  0.70751  0.41582  0.51240  1.0000
  C   C447      1.0  0.96347  0.01553  0.46616  1.0000
  H   H555      1.0  0.53826  0.37003  0.57273  1.0000
  C   C448      1.0  0.71176  0.47768  0.48045  1.0000
  S   S136      1.0  0.98619  0.42783  0.34545  1.0000
  H   H556      1.0  0.73994  0.40038  0.55213  1.0000
  H   H557      1.0  0.70336  0.43702  0.59999  1.0000
  C   C449      1.0  0.94771  0.04208  0.45408  1.0000
  H   H558      1.0  0.72978  0.36090  0.56415  1.0000
  S   S137      1.0  0.53045  0.17637  0.66295  1.0000
  H   H559      1.0  0.94836  0.28715  0.38951  1.0000
  Fe  Fe67      1.0  0.98073  0.04423  0.35849  1.0000
  C   C450      1.0  0.90527  0.19874  0.35509  1.0000
  H   H560      1.0  0.53312  0.37052  0.51449  1.0000
  H   H561      1.0  0.66583  0.43792  0.57958  1.0000
  C   C451      1.0  0.89944  0.23029  0.36336  1.0000
  H   H562      1.0  0.80436  0.47609  0.37613  1.0000
  C   C452      1.0  0.79509  0.48906  0.39707  1.0000
  H   H563      1.0  0.77674  0.47356  0.40782  1.0000
  C   C453      1.0  0.54956  0.49830  0.50869  1.0000
  H   H564      1.0  0.68016  0.40471  0.46284  1.0000
  C   C454      1.0  0.96849  0.07381  0.49660  1.0000
  H   H565      1.0  0.00218  0.44999  0.58763  1.0000
  H   H566      1.0  0.93398  0.43623  0.46399  1.0000
  Fe  Fe68      1.0  0.53670  0.05954  0.66985  1.0000
  C   C455      1.0  0.91429  0.25559  0.34696  1.0000
  C   C456      1.0  0.95039  0.07122  0.46913  1.0000
  C   C457      1.0  0.64577  0.37401  0.48400  1.0000
  C   C458      1.0  0.98431  0.04735  0.50895  1.0000
  H   H567      1.0  0.61812  0.49375  0.62169  1.0000
  H   H568      1.0  0.70206  0.44383  0.55866  1.0000
  C   C459      1.0  0.72521  0.48074  0.51068  1.0000
  C   C460      1.0  0.67197  0.39388  0.48461  1.0000
  C   C461      1.0  0.52417  0.02341  0.53205  1.0000
  H   H569      1.0  0.54591  0.23930  0.64409  1.0000
  H   H570      1.0  0.99439  0.40032  0.48903  1.0000
  Fe  Fe69      1.0  0.88493  0.48919  0.54266  1.0000
  H   H571      1.0  0.65409  0.38635  0.60405  1.0000
  H   H572      1.0  0.93848  0.09183  0.45938  1.0000
  S   S138      1.0  0.98637  0.16063  0.38091  1.0000
  H   H573      1.0  0.93848  0.32621  0.37631  1.0000
  S   S139      1.0  0.89699  0.46433  0.65756  1.0000
  H   H574      1.0  0.89224  0.28298  0.40349  1.0000
  H   H575      1.0  0.51794  0.29086  0.64941  1.0000
  C   C462      1.0  0.98260  0.01739  0.49373  1.0000
  H   H576      1.0  0.00728  0.47277  0.44209  1.0000
  H   H577      1.0  0.71371  0.49548  0.52815  1.0000
  C   C463      1.0  0.52338  0.24038  0.65619  1.0000
  H   H578      1.0  0.81994  0.45130  0.44331  1.0000
  C   C464      1.0  0.55591  0.08022  0.54850  1.0000
  H   H579      1.0  0.97741  0.42767  0.54076  1.0000
  H   H580      1.0  0.94358  0.42344  0.50258  1.0000
  N   N30       1.0  0.98146  0.44871  0.47894  1.0000
  H   H581      1.0  0.63950  0.35648  0.56150  1.0000
  N   N31       1.0  0.69300  0.39542  0.57223  1.0000
  C   C465      1.0  0.72698  0.38638  0.57023  1.0000
  C   C466      1.0  0.69088  0.42999  0.57785  1.0000
  C   C467      1.0  0.67936  0.37938  0.60033  1.0000
  C   C468      1.0  0.67667  0.38737  0.54222  1.0000
  C   C469      1.0  0.64996  0.36696  0.54074  1.0000
  H   H582      1.0  0.98583  0.40830  0.44817  1.0000
  C   C470      1.0  0.94048  0.30120  0.36863  1.0000
  C   C471      1.0  0.00029  0.19638  0.36467  1.0000
  N   N32       1.0  0.82059  0.49666  0.42013  1.0000
  H   H583      1.0  0.69038  0.49053  0.47461  1.0000
  H   H584      1.0  0.56771  0.10198  0.55512  1.0000
  S   S140      1.0  0.63627  0.50176  0.38479  1.0000
  C   C472      1.0  0.98281  0.47034  0.45125  1.0000
  C   C473      1.0  0.52264  0.48906  0.49188  1.0000
  C   C474      1.0  0.99782  0.46140  0.50725  1.0000
  H   H585      1.0  0.98433  0.22421  0.40427  1.0000
  H   H586      1.0  0.00340  0.27531  0.38220  1.0000
  C   C475      1.0  0.99660  0.41836  0.46999  1.0000
  H   H587      1.0  0.56511  0.47654  0.63847  1.0000
  S   S141      1.0  0.85172  0.49928  0.58269  1.0000
  C   C476      1.0  0.00589  0.25373  0.36874  1.0000
  C   C477      1.0  0.53141  0.46918  0.55414  1.0000
  H   H588      1.0  0.53316  0.10043  0.50764  1.0000
  C   C478      1.0  0.99570  0.22473  0.38140  1.0000
  C   C479      1.0  0.53650  0.07927  0.52181  1.0000
  Fe  Fe70      1.0  0.00183  0.11342  0.36041  1.0000
  H   H589      1.0  0.95973  0.30027  0.35075  1.0000
  S   S142      1.0  0.00232  0.07414  0.39623  1.0000
  H   H590      1.0  0.53530  0.46055  0.57800  1.0000
  H   H591      1.0  0.97346  0.49423  0.45734  1.0000
  H   H592      1.0  0.85793  0.46989  0.44362  1.0000
  C   C480      1.0  0.88556  0.29438  0.38067  1.0000
  H   H593      1.0  0.96878  0.46123  0.43088  1.0000
  H   H594      1.0  0.88249  0.32006  0.38612  1.0000
  Fe  Fe71      1.0  0.60307  0.50904  0.42561  1.0000
  H   H595      1.0  0.85293  0.50558  0.38174  1.0000
  C   C481      1.0  0.51022  0.21259  0.66869  1.0000
  C   C482      1.0  0.59758  0.50815  0.61588  1.0000
  H   H596      1.0  0.51806  0.50794  0.62525  1.0000
  S   S143      1.0  0.94019  0.01172  0.36983  1.0000
  H   H597      1.0  0.96312  0.26382  0.97091  1.0000
  H   H598      1.0  0.56731  0.03236  0.71930  1.0000
  S   S144      1.0  0.52315  0.37357  0.68668  1.0000
  S   S145      1.0  0.57247  0.08394  0.95771  1.0000
  H   H599      1.0  0.51584  0.36246  0.98409  1.0000
  H   H600      1.0  0.74845  0.05248  0.97521  1.0000
  H   H601      1.0  0.87759  0.24377  0.96995  1.0000
  S   S146      1.0  0.87475  0.14166  0.98315  1.0000
  C   C483      1.0  0.53075  0.43988  0.84651  1.0000
  H   H602      1.0  0.90325  0.33326  0.81070  1.0000
  C   C484      1.0  0.88654  0.46853  0.72139  1.0000
  Fe  Fe72      1.0  0.90061  0.09514  0.98331  1.0000
  S   S147      1.0  0.92692  0.07394  0.94218  1.0000
  H   H603      1.0  0.92509  0.43689  0.77821  1.0000
  S   S148      1.0  0.85004  0.43090  0.92265  1.0000
  S   S149      1.0  0.82025  0.40068  0.85780  1.0000
  S   S150      1.0  0.81478  0.44764  0.78210  1.0000
  Fe  Fe73      1.0  0.80317  0.43140  0.89743  1.0000
  S   S151      1.0  0.75423  0.42493  0.91797  1.0000
  Fe  Fe74      1.0  0.86823  0.40468  0.88028  1.0000
  S   S152      1.0  0.89996  0.36176  0.88398  1.0000
  C   C485      1.0  0.86873  0.46508  0.74928  1.0000
  C   C486      1.0  0.74804  0.42695  0.95909  1.0000
  C   C487      1.0  0.71692  0.42833  0.97056  1.0000
  H   H604      1.0  0.69723  0.42778  0.95414  1.0000
  C   C488      1.0  0.83784  0.45335  0.74778  1.0000
  C   C489      1.0  0.93827  0.16103  0.91165  1.0000
  H   H605      1.0  0.68686  0.05339  0.91529  1.0000
  C   C490      1.0  0.87346  0.46067  0.69183  1.0000
  C   C491      1.0  0.84240  0.44944  0.69031  1.0000
  C   C492      1.0  0.82469  0.44580  0.71820  1.0000
  S   S153      1.0  0.78494  0.12232  0.98712  1.0000
  H   H606      1.0  0.65031  0.01267  0.98359  1.0000
  N   N33       1.0  0.98140  0.46643  0.99907  1.0000
  C   C493      1.0  0.93827  0.37099  0.89749  1.0000
  C   C494      1.0  0.95945  0.34642  0.90465  1.0000
  C   C495      1.0  0.60715  0.47525  0.85359  1.0000
  C   C496      1.0  0.94811  0.40242  0.90057  1.0000
  H   H607      1.0  0.95218  0.32225  0.90124  1.0000
  S   S154      1.0  0.81212  0.47646  0.87088  1.0000
  H   H608      1.0  0.93205  0.42156  0.89481  1.0000
  C   C497      1.0  0.77340  0.42763  0.98043  1.0000
  H   H609      1.0  0.59053  0.49013  0.79478  1.0000
  N   N34       1.0  0.57430  0.48145  0.84248  1.0000
  C   C498      1.0  0.99006  0.35308  0.91582  1.0000
  S   S155      1.0  0.85911  0.06781  0.00193  1.0000
  H   H610      1.0  0.63990  0.07113  0.98511  1.0000
  C   C499      1.0  0.96807  0.08007  0.94049  1.0000
  H   H611      1.0  0.97910  0.22550  0.93463  1.0000
  Fe  Fe75      1.0  0.83273  0.44577  0.83272  1.0000
  C   C500      1.0  0.79797  0.49892  0.95123  1.0000
  H   H612      1.0  0.94343  0.29937  0.95958  1.0000
  H   H613      1.0  0.54771  0.04171  0.91030  1.0000
  H   H614      1.0  0.96773  0.12199  0.96931  1.0000
  Fe  Fe76      1.0  0.57600  0.10403  0.00694  1.0000
  C   C501      1.0  0.98215  0.10584  0.95565  1.0000
  H   H615      1.0  0.71863  0.13067  0.97569  1.0000
  H   H616      1.0  0.98765  0.17170  0.91683  1.0000
  H   H617      1.0  0.78071  0.48399  0.93812  1.0000
  C   C502      1.0  0.97924  0.40911  0.91025  1.0000
  H   H618      1.0  0.96226  0.42950  0.96956  1.0000
  C   C503      1.0  0.55275  0.39597  0.99374  1.0000
  N   N35       1.0  0.90723  0.37444  0.78081  1.0000
  C   C504      1.0  0.90761  0.38080  0.74626  1.0000
  C   C505      1.0  0.90602  0.33959  0.78525  1.0000
  C   C506      1.0  0.87776  0.38785  0.79427  1.0000
  C   C507      1.0  0.93495  0.38942  0.79626  1.0000
  H   H619      1.0  0.52983  0.43610  0.82126  1.0000
  C   C508      1.0  0.95640  0.37244  0.81609  1.0000
  H   H620      1.0  0.92770  0.32790  0.77584  1.0000
  C   C509      1.0  0.70059  0.04937  0.99571  1.0000
  H   H621      1.0  0.57927  0.45009  0.80247  1.0000
  H   H622      1.0  0.93041  0.37308  0.73551  1.0000
  H   H623      1.0  0.61689  0.50605  0.97327  1.0000
  H   H624      1.0  0.90433  0.40628  0.74059  1.0000
  C   C510      1.0  0.94068  0.42229  0.79237  1.0000
  C   C511      1.0  0.55784  0.02755  0.92915  1.0000
  C   C512      1.0  0.52966  0.44636  0.91216  1.0000
  H   H625      1.0  0.87612  0.41383  0.79089  1.0000
  H   H626      1.0  0.85609  0.37778  0.78310  1.0000
  H   H627      1.0  0.87650  0.38323  0.82013  1.0000
  H   H628      1.0  0.91358  0.23970  0.99189  1.0000
  H   H629      1.0  0.95351  0.34768  0.82152  1.0000
  C   C513      1.0  0.58446  0.02400  0.97970  1.0000
  Fe  Fe77      1.0  0.83484  0.11510  0.00609  1.0000
  C   C514      1.0  0.66612  0.01742  0.96321  1.0000
  H   H630      1.0  0.79743  0.42606  0.97182  1.0000
  H   H631      1.0  0.88796  0.36852  0.73370  1.0000
  S   S156      1.0  0.88214  0.44782  0.85265  1.0000
  C   C515      1.0  0.90171  0.20320  0.92495  1.0000
  H   H632      1.0  0.64331  0.07402  0.94358  1.0000
  C   C516      1.0  0.98210  0.38750  0.83052  1.0000
  H   H633      1.0  0.62771  0.25112  0.00186  1.0000
  C   C517      1.0  0.90739  0.17227  0.91459  1.0000
  C   C518      1.0  0.95698  0.44221  0.99194  1.0000
  H   H634      1.0  0.51017  0.48792  0.72155  1.0000
  C   C519      1.0  0.73429  0.05073  0.99634  1.0000
  N   N36       1.0  0.92020  0.25634  0.94432  1.0000
  H   H635      1.0  0.80070  0.43698  0.71686  1.0000
  Fe  Fe78      1.0  0.51258  0.12773  0.67665  1.0000
  S   S157      1.0  0.54177  0.09601  0.70796  1.0000
  C   C520      1.0  0.57334  0.47520  0.80792  1.0000
  N   N37       1.0  0.68201  0.04853  0.96592  1.0000
  C   C521      1.0  0.71112  0.43056  0.00316  1.0000
  C   C522      1.0  0.96488  0.49197  0.94688  1.0000
  C   C523      1.0  0.98692  0.41978  0.82624  1.0000
  H   H636      1.0  0.56556  0.48101  0.90685  1.0000
  H   H637      1.0  0.88532  0.32902  0.77279  1.0000
  C   C524      1.0  0.56816  0.02537  0.74460  1.0000
  C   C525      1.0  0.55054  0.46457  0.89425  1.0000
  H   H638      1.0  0.94835  0.47339  0.94116  1.0000
  H   H639      1.0  0.96981  0.46238  0.80417  1.0000
  H   H640      1.0  0.97609  0.03933  0.91094  1.0000
  Fe  Fe79      1.0  0.86030  0.47406  0.89354  1.0000
  H   H641      1.0  0.66837  0.09758  0.96845  1.0000
  H   H642      1.0  0.80367  0.48666  0.97377  1.0000
  C   C526      1.0  0.99030  0.19734  0.99817  1.0000
  H   H643      1.0  0.71448  0.07612  0.93806  1.0000
  C   C527      1.0  0.98301  0.49211  0.97528  1.0000
  H   H644      1.0  0.87729  0.21054  0.92744  1.0000
  C   C528      1.0  0.70160  0.05312  0.93717  1.0000
  H   H645      1.0  0.98712  0.43339  0.91173  1.0000
  H   H646      1.0  0.61094  0.48289  0.87847  1.0000
  H   H647      1.0  0.96479  0.27716  0.93060  1.0000
  C   C529      1.0  0.53558  0.44968  0.00383  1.0000
  H   H648      1.0  0.93292  0.45304  0.99022  1.0000
  H   H649      1.0  0.95276  0.16396  0.00627  1.0000
  C   C530      1.0  0.55985  0.42728  0.00098  1.0000
  C   C531      1.0  0.57154  0.04242  0.95545  1.0000
  H   H650      1.0  0.87813  0.26374  0.91570  1.0000
  C   C532      1.0  0.95827  0.21182  0.92897  1.0000
  C   C533      1.0  0.90128  0.25449  0.97378  1.0000
  C   C534      1.0  0.65747  0.07384  0.96587  1.0000
  C   C535      1.0  0.55181  0.46190  0.86083  1.0000
  C   C536      1.0  0.96624  0.43716  0.80720  1.0000
  C   C537      1.0  0.92698  0.22393  0.93267  1.0000
  H   H651      1.0  0.91466  0.27487  0.89723  1.0000
  H   H652      1.0  0.82022  0.49935  0.93727  1.0000
  C   C538      1.0  0.90182  0.27420  0.92017  1.0000
  H   H653      1.0  0.61301  0.44955  0.85224  1.0000
  C   C539      1.0  0.98687  0.05933  0.92268  1.0000
  H   H654      1.0  0.89717  0.27826  0.98436  1.0000
  H   H655      1.0  0.86417  0.47723  0.96661  1.0000
  C   C540      1.0  0.94915  0.27489  0.95157  1.0000
  H   H656      1.0  0.87871  0.47183  0.77184  1.0000
  C   C541      1.0  0.96364  0.18078  0.91870  1.0000
  H   H657      1.0  0.59523  0.03505  0.99989  1.0000
  H   H658      1.0  0.54960  0.48078  0.79775  1.0000
  H   H659      1.0  0.89753  0.29923  0.92746  1.0000
  H   H660      1.0  0.00624  0.33398  0.92160  1.0000
  C   C542      1.0  0.72216  0.13082  0.00101  1.0000
  H   H661      1.0  0.58663  0.04043  0.75574  1.0000
  H   H662      1.0  0.00137  0.18307  0.98008  1.0000
  H   H663      1.0  0.88773  0.15656  0.90956  1.0000
  C   C543      1.0  0.00008  0.38448  0.91838  1.0000
  H   H664      1.0  0.56838  0.02699  0.80446  1.0000
  H   H665      1.0  0.57156  0.37845  0.99247  1.0000
  H   H666      1.0  0.54467  0.03164  0.75477  1.0000
  C   C544      1.0  0.52138  0.38703  0.98896  1.0000
  H   H667      1.0  0.00646  0.43138  0.83817  1.0000
  C   C545      1.0  0.00248  0.22725  0.00540  1.0000
  H   H668      1.0  0.91045  0.47758  0.72264  1.0000
  H   H669      1.0  0.65106  0.01595  0.94157  1.0000
  C   C546      1.0  0.87635  0.49752  0.97585  1.0000
  H   H670      1.0  0.94695  0.02487  0.99381  1.0000
  H   H671      1.0  0.94252  0.13676  0.90435  1.0000
  H   H672      1.0  0.52943  0.44876  0.93757  1.0000
  H   H673      1.0  0.58426  0.43422  0.00479  1.0000
  H   H674      1.0  0.99788  0.37426  0.84599  1.0000
  H   H675      1.0  0.62493  0.48827  0.83922  1.0000
  H   H676      1.0  0.98893  0.05654  0.00639  1.0000
  H   H677      1.0  0.71924  0.03370  0.93421  1.0000
  C   C547      1.0  0.87877  0.50149  0.00867  1.0000
  C   C548      1.0  0.95816  0.81680  0.04054  1.0000
  S   S158      1.0  0.95496  0.87540  0.14498  1.0000
  H   H678      1.0  0.98137  0.98139  0.05084  1.0000
  C   C549      1.0  0.92160  0.75412  0.08369  1.0000
  Fe  Fe80      1.0  0.98856  0.90994  0.16693  1.0000
  H   H679      1.0  0.92107  0.67978  0.05291  1.0000
  S   S159      1.0  0.94047  0.90837  0.05818  1.0000
  H   H680      1.0  0.95871  0.81058  0.01507  1.0000
  H   H681      1.0  0.58259  0.54809  0.29041  1.0000
  C   C550      1.0  0.90921  0.98603  0.10450  1.0000
  Fe  Fe81      1.0  0.93935  0.55714  0.08210  1.0000
  C   C551      1.0  0.98254  0.69935  0.13423  1.0000
  S   S160      1.0  0.93820  0.59518  0.11917  1.0000
  H   H682      1.0  0.00696  0.72863  0.06366  1.0000
  C   C552      1.0  0.89487  0.52753  0.02124  1.0000
  H   H683      1.0  0.91447  0.89338  0.29214  1.0000
  C   C553      1.0  0.98737  0.00658  0.04577  1.0000
  C   C554      1.0  0.58208  0.51817  0.04480  1.0000
  S   S161      1.0  0.89652  0.53223  0.06245  1.0000
  Fe  Fe82      1.0  0.97202  0.89469  0.09882  1.0000
  C   C555      1.0  0.90126  0.82204  0.03867  1.0000
  H   H684      1.0  0.96914  0.83772  0.33720  1.0000
  H   H685      1.0  0.90606  0.81596  0.10132  1.0000
  H   H686      1.0  0.57682  0.54908  0.14859  1.0000
  N   N38       1.0  0.00618  0.00915  0.01630  1.0000
  H   H687      1.0  0.98614  0.94218  0.30969  1.0000
  H   H688      1.0  0.99535  0.92147  0.27417  1.0000
  S   S162      1.0  0.96438  0.55353  0.19807  1.0000
  S   S163      1.0  0.97020  0.93643  0.20931  1.0000
  H   H689      1.0  0.55792  0.53965  0.18476  1.0000
  C   C556      1.0  0.95711  0.89663  0.34003  1.0000
  H   H690      1.0  0.88232  0.53264  0.12825  1.0000
  H   H691      1.0  0.63031  0.54147  0.13973  1.0000
  H   H692      1.0  0.99056  0.78138  0.25635  1.0000
  H   H693      1.0  0.64320  0.56405  0.17355  1.0000
  N   N39       1.0  0.96360  0.89651  0.30552  1.0000
  C   C557      1.0  0.61503  0.52917  0.21829  1.0000
  C   C558      1.0  0.59348  0.54166  0.24094  1.0000
  C   C559      1.0  0.90142  0.99580  0.04863  1.0000
  H   H694      1.0  0.00674  0.77870  0.09460  1.0000
  C   C560      1.0  0.98991  0.97059  0.22214  1.0000
  C   C561      1.0  0.98386  0.83093  0.24711  1.0000
  C   C562      1.0  0.97937  0.98542  0.24978  1.0000
  H   H695      1.0  0.92822  0.93313  0.29906  1.0000
  H   H696      1.0  0.86577  0.54052  0.16641  1.0000
  S   S164      1.0  0.99023  0.66474  0.07883  1.0000
  C   C563      1.0  0.97298  0.83710  0.31198  1.0000
  C   C564      1.0  0.92375  0.94561  0.06645  1.0000
  C   C565      1.0  0.92175  0.95605  0.09774  1.0000
  H   H697      1.0  0.54041  0.54687  0.05219  1.0000
  C   C566      1.0  0.91330  0.96539  0.04189  1.0000
  H   H698      1.0  0.92942  0.94082  0.11687  1.0000
  H   H699      1.0  0.58377  0.57379  0.18242  1.0000
  C   C567      1.0  0.99968  0.75680  0.10564  1.0000
  H   H700      1.0  0.97469  0.72755  0.17604  1.0000
  H   H701      1.0  0.97580  0.67735  0.14540  1.0000
  H   H702      1.0  0.92162  0.76441  0.10706  1.0000
  H   H703      1.0  0.63175  0.52268  0.30938  1.0000
  H   H704      1.0  0.96193  0.84288  0.04174  1.0000
  C   C568      1.0  0.63573  0.54013  0.16555  1.0000
  H   H705      1.0  0.90254  0.84844  0.03922  1.0000
  H   H706      1.0  0.98804  0.82844  0.22189  1.0000
  C   C569      1.0  0.59977  0.53954  0.27338  1.0000
  C   C570      1.0  0.89933  0.00610  0.08001  1.0000
  H   H707      1.0  0.90720  0.99366  0.12881  1.0000
  C   C571      1.0  0.97994  0.80744  0.29889  1.0000
  H   H708      1.0  0.95932  0.97598  0.26250  1.0000
  S   S165      1.0  0.96944  0.52430  0.11075  1.0000
  C   C572      1.0  0.93506  0.90952  0.28945  1.0000
  C   C573      1.0  0.55699  0.53777  0.03496  1.0000
  H   H709      1.0  0.91823  0.70744  0.10406  1.0000
  H   H710      1.0  0.51117  0.00447  0.05435  1.0000
  C   C574      1.0  0.92503  0.77249  0.05570  1.0000
  S   S166      1.0  0.98037  0.57778  0.05600  1.0000
  C   C575      1.0  0.72375  0.51228  0.01914  1.0000
  Fe  Fe83      1.0  0.98202  0.61398  0.09535  1.0000
  H   H711      1.0  0.90792  0.53717  0.16135  1.0000
  C   C576      1.0  0.00008  0.72833  0.08826  1.0000
  Fe  Fe84      1.0  0.99660  0.84219  0.14196  1.0000
  H   H712      1.0  0.96430  0.52737  0.26102  1.0000
  C   C577      1.0  0.97552  0.51594  0.21267  1.0000
  C   C578      1.0  0.92397  0.72273  0.02565  1.0000
  H   H713      1.0  0.92124  0.56967  0.01042  1.0000
  C   C579      1.0  0.92110  0.70546  0.05352  1.0000
  C   C580      1.0  0.97702  0.86064  0.25994  1.0000
  H   H714      1.0  0.93059  0.84724  0.08777  1.0000
  Fe  Fe85      1.0  0.97200  0.56354  0.14600  1.0000
  H   H715      1.0  0.57121  0.55242  0.23433  1.0000
  H   H716      1.0  0.90087  0.81517  0.01334  1.0000
  C   C581      1.0  0.92565  0.75577  0.02659  1.0000
  H   H717      1.0  0.93877  0.91312  0.26370  1.0000
  S   S167      1.0  0.00196  0.93218  0.12094  1.0000
  N   N40       1.0  0.92814  0.80740  0.05608  1.0000
  C   C582      1.0  0.64292  0.51443  0.23023  1.0000
  H   H718      1.0  0.97888  0.80508  0.05204  1.0000
  C   C583      1.0  0.58045  0.54883  0.17477  1.0000
  H   H719      1.0  0.98117  0.78665  0.31391  1.0000
  C   C584      1.0  0.97112  0.86470  0.29273  1.0000
  N   N41       1.0  0.60805  0.52881  0.18394  1.0000
  H   H720      1.0  0.67351  0.52062  0.01754  1.0000
  C   C585      1.0  0.62756  0.52529  0.28420  1.0000
  C   C586      1.0  0.91950  0.72113  0.08238  1.0000
  H   H721      1.0  0.94879  0.81187  0.10262  1.0000
  H   H722      1.0  0.87820  0.81503  0.04922  1.0000
  C   C587      1.0  0.92840  0.82101  0.08842  1.0000
  H   H723      1.0  0.91493  0.95744  0.01764  1.0000
  C   C588      1.0  0.99028  0.75674  0.13730  1.0000
  S   S168      1.0  0.98798  0.79211  0.15984  1.0000
  H   H724      1.0  0.65652  0.52403  0.16746  1.0000
  C   C589      1.0  0.88468  0.52717  0.15384  1.0000
  C   C590      1.0  0.98528  0.80436  0.26653  1.0000
  C   C591      1.0  0.64920  0.51301  0.26266  1.0000
  H   H725      1.0  0.97635  0.88044  0.24382  1.0000
  C   C592      1.0  0.99143  0.69947  0.10241  1.0000
  C   C593      1.0  0.98187  0.72787  0.15152  1.0000
  C   C594      1.0  0.99061  0.91811  0.29981  1.0000
  Fe  Fe86      1.0  0.64743  0.86404  0.53814  1.0000
  S   S169      1.0  0.61342  0.83741  0.56922  1.0000
  S   S170      1.0  0.69802  0.87002  0.55545  1.0000
  Fe  Fe87      1.0  0.59591  0.88134  0.49086  1.0000
  S   S171      1.0  0.55840  0.85557  0.51740  1.0000
  S   S172      1.0  0.58278  0.91298  0.45003  1.0000
  Fe  Fe88      1.0  0.57981  0.87773  0.56025  1.0000
  S   S173      1.0  0.54305  0.89827  0.59271  1.0000
  Fe  Fe89      1.0  0.59469  0.81730  0.52382  1.0000
  S   S174      1.0  0.58563  0.76458  0.52074  1.0000
  S   S175      1.0  0.61513  0.90632  0.53339  1.0000
  S   S176      1.0  0.63113  0.84112  0.49308  1.0000
  S   S177      1.0  0.58948  0.55588  0.44726  1.0000
  H   H726      1.0  0.79044  0.94090  0.42585  1.0000
  Fe  Fe90      1.0  0.87675  0.85425  0.49843  1.0000
  S   S178      1.0  0.91308  0.82479  0.47234  1.0000
  S   S179      1.0  0.82641  0.85232  0.47871  1.0000
  Fe  Fe91      1.0  0.92672  0.88135  0.54311  1.0000
  S   S180      1.0  0.96590  0.85372  0.52096  1.0000
  S   S181      1.0  0.94015  0.91816  0.57931  1.0000
  Fe  Fe92      1.0  0.94384  0.86790  0.47504  1.0000
  S   S182      1.0  0.97960  0.88522  0.43958  1.0000
  Fe  Fe93      1.0  0.93211  0.81334  0.52057  1.0000
  S   S183      1.0  0.94882  0.76489  0.53602  1.0000
  S   S184      1.0  0.90646  0.89846  0.49699  1.0000
  S   S185      1.0  0.89376  0.83967  0.54684  1.0000
  C   C595      1.0  0.95127  0.97662  0.38919  1.0000
  C   C596      1.0  0.92806  0.95802  0.40369  1.0000
  C   C597      1.0  0.93657  0.93000  0.41950  1.0000
  C   C598      1.0  0.96825  0.92022  0.42029  1.0000
  C   C599      1.0  0.99133  0.93845  0.40526  1.0000
  C   C600      1.0  0.98296  0.96687  0.39022  1.0000
  H   H727      1.0  0.90348  0.96542  0.40289  1.0000
  H   H728      1.0  0.91851  0.91570  0.43051  1.0000
  C   C601      1.0  0.54341  0.54515  0.60001  1.0000
  H   H729      1.0  0.68418  0.76682  0.51161  1.0000
  C   C602      1.0  0.00242  0.76800  0.49859  1.0000
  C   C603      1.0  0.98041  0.91714  0.59019  1.0000
  H   H730      1.0  0.66461  0.73226  0.56809  1.0000
  H   H731      1.0  0.98290  0.96749  0.59711  1.0000
  H   H732      1.0  0.98520  0.86652  0.58681  1.0000
  C   C604      1.0  0.54136  0.91331  0.44466  1.0000
  H   H733      1.0  0.51889  0.99625  0.64811  1.0000
  H   H734      1.0  0.85507  0.51434  0.47218  1.0000
  C   C605      1.0  0.99555  0.56275  0.51936  1.0000
  H   H735      1.0  0.90997  0.68421  0.49325  1.0000
  H   H736      1.0  0.77669  0.93196  0.52559  1.0000
  H   H737      1.0  0.67286  0.95612  0.51040  1.0000
  C   C606      1.0  0.96813  0.54915  0.50665  1.0000
  C   C607      1.0  0.94460  0.53742  0.52664  1.0000
  C   C608      1.0  0.94890  0.53845  0.55939  1.0000
  H   H738      1.0  0.78018  0.55411  0.52678  1.0000
  H   H739      1.0  0.96517  0.54787  0.48131  1.0000
  C   C609      1.0  0.68875  0.78728  0.58891  1.0000
  C   C610      1.0  0.76686  0.93550  0.50212  1.0000
  C   C611      1.0  0.54830  0.56123  0.44839  1.0000
  C   C612      1.0  0.53453  0.57747  0.47375  1.0000
  H   H740      1.0  0.54944  0.58668  0.49240  1.0000
  C   C613      1.0  0.54563  0.75228  0.52279  1.0000
  C   C614      1.0  0.83027  0.52048  0.47368  1.0000
  C   C615      1.0  0.52143  0.59367  0.57483  1.0000
  H   H741      1.0  0.55709  0.70251  0.52256  1.0000
  C   C616      1.0  0.73343  0.86333  0.53404  1.0000
  C   C617      1.0  0.76267  0.86707  0.54955  1.0000
  C   C618      1.0  0.79142  0.86346  0.53307  1.0000
  C   C619      1.0  0.79109  0.85641  0.50079  1.0000
  C   C620      1.0  0.76182  0.85223  0.48539  1.0000
  C   C621      1.0  0.73311  0.85531  0.50199  1.0000
  H   H742      1.0  0.76315  0.87311  0.57440  1.0000
  H   H743      1.0  0.81379  0.86653  0.54522  1.0000
  H   H744      1.0  0.76144  0.84651  0.46047  1.0000
  H   H745      1.0  0.71087  0.85161  0.48993  1.0000
  H   H746      1.0  0.90762  0.63326  0.54517  1.0000
  C   C622      1.0  0.59218  0.97485  0.62279  1.0000
  C   C623      1.0  0.58465  0.94554  0.60909  1.0000
  C   C624      1.0  0.55353  0.93439  0.61014  1.0000
  C   C625      1.0  0.51834  0.75352  0.44549  1.0000
  C   C626      1.0  0.78761  0.76877  0.57843  1.0000
  H   H747      1.0  0.93081  0.52930  0.57497  1.0000
  H   H748      1.0  0.60303  0.93141  0.59824  1.0000
  H   H749      1.0  0.93662  0.88131  0.34611  1.0000
  C   C627      1.0  0.67488  0.94876  0.43067  1.0000
  N   N42       1.0  0.94263  0.64944  0.51170  1.0000
  C   C628      1.0  0.52559  0.94148  0.43670  1.0000
  H   H750      1.0  0.65433  0.78035  0.53774  1.0000
  H   H751      1.0  0.94597  0.70057  0.50842  1.0000
  C   C629      1.0  0.99941  0.56491  0.55215  1.0000
  H   H752      1.0  0.74217  0.54418  0.48330  1.0000
  C   C630      1.0  0.77453  0.94036  0.44593  1.0000
  H   H753      1.0  0.61633  0.98333  0.62220  1.0000
  H   H754      1.0  0.64784  0.90649  0.46668  1.0000
  C   C631      1.0  0.80048  0.77688  0.54927  1.0000
  H   H755      1.0  0.53228  0.58894  0.55133  1.0000
  C   C632      1.0  0.97791  0.66369  0.46595  1.0000
  C   C633      1.0  0.56852  0.99326  0.63703  1.0000
  C   C634      1.0  0.99265  0.65660  0.43726  1.0000
  H   H756      1.0  0.68634  0.80633  0.52814  1.0000
  H   H757      1.0  0.98832  0.66389  0.52949  1.0000
  H   H758      1.0  0.53723  0.60943  0.58877  1.0000
  C   C635      1.0  0.97621  0.55242  0.57215  1.0000
  C   C636      1.0  0.52906  0.54927  0.42431  1.0000
  H   H759      1.0  0.68532  0.89035  0.45470  1.0000
  H   H760      1.0  0.86529  0.52149  0.41884  1.0000
  H   H761      1.0  0.99159  0.78834  0.48730  1.0000
  C   C637      1.0  0.95603  0.64250  0.48010  1.0000
  N   N43       1.0  0.00004  0.98909  0.50514  1.0000
  H   H762      1.0  0.92748  0.60243  0.52481  1.0000
  H   H763      1.0  0.98948  0.71520  0.55771  1.0000
  C   C638      1.0  0.77690  0.52278  0.45271  1.0000
  H   H764      1.0  0.98913  0.94232  0.52298  1.0000
  H   H765      1.0  0.79086  0.78798  0.50072  1.0000
  C   C639      1.0  0.74172  0.94244  0.44135  1.0000
  H   H766      1.0  0.96006  0.65459  0.55956  1.0000
  N   N44       1.0  0.69899  0.76909  0.56062  1.0000
  C   C640      1.0  0.69068  0.73538  0.56521  1.0000
  C   C641      1.0  0.68034  0.78122  0.53327  1.0000
  H   H767      1.0  0.70236  0.72516  0.58652  1.0000
  H   H768      1.0  0.56592  0.77138  0.44476  1.0000
  H   H769      1.0  0.69820  0.72089  0.54454  1.0000
  H   H770      1.0  0.66247  0.78847  0.59095  1.0000
  C   C642      1.0  0.99607  0.94546  0.59708  1.0000
  C   C643      1.0  0.84410  0.51687  0.40383  1.0000
  H   H771      1.0  0.51863  0.94542  0.51210  1.0000
  C   C644      1.0  0.94944  0.61410  0.46335  1.0000
  H   H772      1.0  0.81244  0.93415  0.47959  1.0000
  H   H773      1.0  0.95885  0.97131  0.52930  1.0000
  C   C645      1.0  0.53030  0.96754  0.52019  1.0000
  C   C646      1.0  0.78705  0.93677  0.47622  1.0000
  C   C647      1.0  0.78063  0.78155  0.52335  1.0000
  H   H774      1.0  0.54808  0.97385  0.50185  1.0000
  H   H775      1.0  0.00102  0.98102  0.37922  1.0000
  H   H776      1.0  0.53960  0.53729  0.40435  1.0000
  H   H777      1.0  0.55652  0.67435  0.41938  1.0000
  H   H778      1.0  0.53576  0.86365  0.45437  1.0000
  H   H779      1.0  0.53907  0.96272  0.43223  1.0000
  H   H780      1.0  0.64848  0.94942  0.42878  1.0000
  H   H781      1.0  0.69761  0.81205  0.58790  1.0000
  C   C648      1.0  0.80899  0.51317  0.44875  1.0000
  C   C649      1.0  0.54088  0.51669  0.61771  1.0000
  C   C650      1.0  0.73405  0.93707  0.49783  1.0000
  N   N45       1.0  0.51466  0.56381  0.59208  1.0000
  C   C651      1.0  0.53738  0.98216  0.63768  1.0000
  C   C652      1.0  0.00106  0.72648  0.53792  1.0000
  H   H782      1.0  0.68268  0.93081  0.41306  1.0000
  C   C653      1.0  0.98646  0.62810  0.42200  1.0000
  C   C654      1.0  0.91776  0.62680  0.52176  1.0000
  H   H783      1.0  0.71952  0.93400  0.51861  1.0000
  C   C655      1.0  0.99733  0.88862  0.59103  1.0000
  H   H784      1.0  0.83666  0.53949  0.52046  1.0000
  C   C656      1.0  0.57439  0.55421  0.59043  1.0000
  H   H785      1.0  0.96482  0.95459  0.49074  1.0000
  H   H786      1.0  0.52625  0.79936  0.52350  1.0000
  H   H787      1.0  0.51499  0.64898  0.38856  1.0000
  H   H788      1.0  0.67890  0.90130  0.49516  1.0000
  H   H789      1.0  0.54848  0.00480  0.57374  1.0000
  H   H790      1.0  0.54338  0.96135  0.54224  1.0000
  H   H791      1.0  0.68375  0.97246  0.42347  1.0000
  H   H792      1.0  0.97885  0.62393  0.53701  1.0000
  C   C657      1.0  0.60099  0.53594  0.59847  1.0000
  H   H793      1.0  0.83358  0.54024  0.39747  1.0000
  S   S186      1.0  0.90901  0.52381  0.51030  1.0000
  H   H794      1.0  0.56746  0.51265  0.49729  1.0000
  H   H795      1.0  0.93322  0.59652  0.47217  1.0000
  C   C658      1.0  0.67012  0.96315  0.48521  1.0000
  H   H796      1.0  0.58935  0.72060  0.42749  1.0000
  H   H797      1.0  0.89786  0.62602  0.50449  1.0000
  C   C659      1.0  0.67389  0.90826  0.47027  1.0000
  C   C660      1.0  0.73373  0.77177  0.55624  1.0000
  H   H798      1.0  0.69725  0.77672  0.61142  1.0000
  H   H799      1.0  0.73371  0.94471  0.41722  1.0000
  H   H800      1.0  0.80322  0.76495  0.59850  1.0000
  H   H801      1.0  0.57874  0.57515  0.57651  1.0000
  C   C661      1.0  0.74774  0.77912  0.52660  1.0000
  C   C662      1.0  0.98689  0.75291  0.52358  1.0000
  C   C663      1.0  0.72040  0.94079  0.46730  1.0000
  N   N46       1.0  0.68552  0.94045  0.46319  1.0000
  C   C664      1.0  0.75479  0.76584  0.58187  1.0000
  C   C665      1.0  0.52102  0.77450  0.52342  1.0000
  C   C666      1.0  0.56395  0.72245  0.43077  1.0000
  C   C667      1.0  0.92827  0.68160  0.51206  1.0000
  C   C668      1.0  0.53820  0.71987  0.52293  1.0000
  H   H802      1.0  0.96034  0.58470  0.42310  1.0000
  H   H803      1.0  0.96077  0.99352  0.45352  1.0000
  C   C669      1.0  0.53004  0.95258  0.62477  1.0000
  C   C670      1.0  0.55081  0.75115  0.44036  1.0000
  H   H804      1.0  0.97917  0.55388  0.59753  1.0000
  H   H805      1.0  0.64403  0.96462  0.48113  1.0000
  C   C671      1.0  0.96474  0.60702  0.43489  1.0000
  H   H806      1.0  0.82589  0.77973  0.54670  1.0000
  C   C672      1.0  0.54468  0.69597  0.42618  1.0000
  H   H807      1.0  0.74609  0.75907  0.60486  1.0000
  H   H808      1.0  0.98494  0.68535  0.47760  1.0000
  H   H809      1.0  0.73390  0.78377  0.50561  1.0000
  C   C673      1.0  0.96843  0.64804  0.53550  1.0000
  H   H810      1.0  0.91707  0.68719  0.53521  1.0000
  H   H811      1.0  0.99904  0.62202  0.40050  1.0000
  H   H812      1.0  0.68012  0.98732  0.48241  1.0000
  H   H813      1.0  0.97813  0.88882  0.35402  1.0000
  C   C674      1.0  0.81998  0.53516  0.50139  1.0000
  C   C675      1.0  0.97729  0.96332  0.51222  1.0000
  C   C676      1.0  0.76692  0.53792  0.48038  1.0000
  C   C677      1.0  0.78828  0.54360  0.50487  1.0000
  H   H814      1.0  0.62438  0.54314  0.59081  1.0000
  H   H815      1.0  0.78322  0.51079  0.38792  1.0000
  H   H816      1.0  0.75877  0.51810  0.43527  1.0000
  C   C678      1.0  0.51138  0.69762  0.43115  1.0000
  C   C679      1.0  0.52377  0.88581  0.44969  1.0000
  H   H817      1.0  0.95098  0.92080  0.34859  1.0000
  H   H818      1.0  0.00385  0.00229  0.55425  1.0000
  H   H819      1.0  0.52562  0.63208  0.42659  1.0000
  H   H820      1.0  0.00976  0.97112  0.45827  1.0000
  H   H821      1.0  0.51330  0.58579  0.63799  1.0000
  C   C680      1.0  0.98868  0.99429  0.98983  1.0000
  H   H822      1.0  0.54103  0.66791  0.78884  1.0000
  H   H823      1.0  0.58260  0.53105  0.83311  1.0000
  S   S187      1.0  0.88306  0.51779  0.91413  1.0000
  H   H824      1.0  0.59457  0.97684  0.99633  1.0000
  S   S188      1.0  0.52406  0.60325  0.88563  1.0000
  H   H825      1.0  0.52215  0.96860  0.99345  1.0000
  S   S189      1.0  0.56914  0.93465  0.95088  1.0000
  C   C681      1.0  0.58195  0.93780  0.82075  1.0000
  H   H826      1.0  0.53987  0.77027  0.82798  1.0000
  C   C682      1.0  0.80795  0.54939  0.97579  1.0000
  H   H827      1.0  0.54792  0.98227  0.70601  1.0000
  H   H828      1.0  0.62568  0.99722  0.74630  1.0000
  H   H829      1.0  0.54460  0.98298  0.90796  1.0000
  C   C683      1.0  0.58083  0.94826  0.78939  1.0000
  S   S190      1.0  0.57130  0.54368  0.94008  1.0000
  C   C684      1.0  0.55322  0.54559  0.00282  1.0000
  H   H830      1.0  0.91816  0.00190  0.94979  1.0000
  C   C685      1.0  0.57481  0.53417  0.98048  1.0000
  C   C686      1.0  0.90527  0.54611  0.96800  1.0000
  H   H831      1.0  0.54206  0.52085  0.83998  1.0000
  N   N47       1.0  0.57520  0.99112  0.74838  1.0000
  C   C687      1.0  0.98435  0.95611  0.94626  1.0000
  S   S191      1.0  0.54087  0.88526  0.87694  1.0000
  C   C688      1.0  0.78321  0.54675  0.92477  1.0000
  H   H832      1.0  0.52709  0.97609  0.74235  1.0000
  H   H833      1.0  0.57915  0.95098  0.86979  1.0000
  C   C689      1.0  0.55619  0.99436  0.92771  1.0000
  H   H834      1.0  0.58493  0.91283  0.82591  1.0000
  S   S192      1.0  0.53530  0.79647  0.89641  1.0000
  H   H835      1.0  0.58340  0.93065  0.77108  1.0000
  Fe  Fe94      1.0  0.52529  0.56455  0.92226  1.0000
  C   C690      1.0  0.60002  0.51485  0.99040  1.0000
  C   C691      1.0  0.56686  0.51546  0.84723  1.0000
  H   H836      1.0  0.51433  0.54220  0.74405  1.0000
  Fe  Fe95      1.0  0.51328  0.84546  0.89868  1.0000
  C   C692      1.0  0.56986  0.97608  0.95176  1.0000
  C   C693      1.0  0.58419  0.99096  0.97759  1.0000
  H   H837      1.0  0.52664  0.68149  0.90827  1.0000
  C   C694      1.0  0.51375  0.70363  0.90684  1.0000
  C   C695      1.0  0.95804  0.00545  0.98135  1.0000
  C   C696      1.0  0.57864  0.95926  0.84550  1.0000
  H   H838      1.0  0.56948  0.52290  0.87232  1.0000
  C   C697      1.0  0.57605  0.98068  0.78183  1.0000
  H   H839      1.0  0.91524  0.56367  0.95233  1.0000
  H   H840      1.0  0.76783  0.53316  0.90821  1.0000
  C   C698      1.0  0.75430  0.52897  0.97271  1.0000
  H   H841      1.0  0.53394  0.56083  0.99543  1.0000
  H   H842      1.0  0.72411  0.55023  0.93584  1.0000
  H   H843      1.0  0.80694  0.54800  0.91322  1.0000
  H   H844      1.0  0.52657  0.63130  0.80424  1.0000
  C   C699      1.0  0.95437  0.96775  0.93854  1.0000
  C   C700      1.0  0.94124  0.99233  0.95610  1.0000
  H   H845      1.0  0.94139  0.95791  0.91876  1.0000
  C   C701      1.0  0.88893  0.52018  0.95536  1.0000
  H   H846      1.0  0.55570  0.73198  0.90075  1.0000
  Fe  Fe96      1.0  0.53116  0.91137  0.92193  1.0000
  H   H847      1.0  0.77426  0.57147  0.92668  1.0000
  N   N48       1.0  0.78514  0.53118  0.95624  1.0000
  H   H848      1.0  0.54411  0.71380  0.81924  1.0000
  H   H849      1.0  0.68374  0.99775  0.96244  1.0000
  H   H850      1.0  0.67464  0.54488  0.96442  1.0000
  H   H851      1.0  0.60672  0.99313  0.70837  1.0000
  H   H852      1.0  0.61223  0.95919  0.73300  1.0000
  C   C702      1.0  0.53015  0.73223  0.90272  1.0000
  H   H853      1.0  0.83082  0.55307  0.96322  1.0000
  C   C703      1.0  0.57420  0.99128  0.83896  1.0000
  H   H854      1.0  0.98869  0.56120  0.91359  1.0000
  C   C704      1.0  0.57281  0.00199  0.80768  1.0000
  C   C705      1.0  0.69658  0.53679  0.97525  1.0000
  H   H855      1.0  0.55566  0.94779  0.72901  1.0000
  C   C706      1.0  0.72531  0.53976  0.95908  1.0000
  C   C707      1.0  0.60633  0.98483  0.73343  1.0000
  H   H856      1.0  0.79823  0.57310  0.98195  1.0000
  C   C708      1.0  0.55049  0.97350  0.73073  1.0000
  H   H857      1.0  0.53899  0.66115  0.83119  1.0000
  H   H858      1.0  0.81419  0.53707  0.99822  1.0000
  C   C709      1.0  0.90870  0.54953  0.00087  1.0000
  C   C710      1.0  0.52668  0.65740  0.80816  1.0000
  H   H859      1.0  0.95271  0.51624  0.90369  1.0000
  C   C711      1.0  0.52063  0.72394  0.81851  1.0000
  C   C712      1.0  0.51862  0.75662  0.82337  1.0000
  C   C713      1.0  0.51372  0.76118  0.90137  1.0000
  C   C714      1.0  0.98737  0.54199  0.93052  1.0000
  C   C715      1.0  0.96723  0.51659  0.92491  1.0000
  H   H860      1.0  0.92808  0.76810  0.00436  1.0000
  C   C716      1.0  0.75257  0.51503  0.00320  1.0000
  C   C717      1.0  0.69582  0.52311  0.00520  1.0000
  H   H861      1.0  0.92561  0.71032  0.00330  1.0000
  C   C718      1.0  0.00565  0.54273  0.95797  1.0000
  H   H862      1.0  0.99471  0.93710  0.93248  1.0000
  C   C719      1.0  0.00136  0.96904  0.97151  1.0000
  C   C720      1.0  0.00375  0.51811  0.97995  1.0000
  H   H863      1.0  0.57107  0.00787  0.85825  1.0000
  H   H864      1.0  0.00992  0.94512  0.71648  1.0000
