data_image0
_chemical_formula_structural       FeS2FeS2FeSFeS3FeSCFeSHFeSFeS3HCH2C2H2CH2CH2CH2C3HCH2CH2CHC6H4C6H5CHCH5C2HS2HC2H2NC5H10SH3NHC4H3C3NC3HC3H5C2H2C2HCH2CH3CH2CHNH4C2H2SC3HCH2FeHSFeS2Fe2S3FeS2FeSFeSFeS3C4HCHC6H5CSHC2HCHC7H4CHC2NH6C3H4C5H5CNC8H6CH2NCHC3HCHC2HC2H5CH6NC5HCH4CH2CHCH2C2HCHCHCH4CH4CH2CFeSCFeSHFeS2FeSHFeSHFeSFeSHCHCSH2C2H3CH2C7H6NHFeC5NHCH5SHC5H7C5SH2NC2H2C2H11CHCHCH2C2HCSCHCHSCHFeS2CHCHS2HFeS2FeSCFeHFeSHSH4C6H4C2HSHCH2C3H3C3SHCH3SHCHCHCH2CHFeHCH6C2H2CHC3NHCHNC2SHFeHC2H4CSNCHCH2CHSC2H4C2SCHCHFeHNHC2FeSFeSHFeSFeS3FeS2FeS2FeSFeS2H2CHC2HC6H6C2H3CHCH2C6H5C2SH2NC3HC3H5CH2CHC2HCHCH5NCH2C2HCH2CNSH2CHCNHC5H2SH3C2HC3H2CHC2HCNCH3C2HCH4CHC2H2C2H2CHC4H2CHCHSH7C2HCSC2FeS2FeS2FeCFeHS2FeS2FeS2FeSFeS3C6H9CHC7H7C4H2CH3SC4H4CNC9H16C2H3SC2SNH5CNC3H4CH4CHC3H2C2HC4H3C3NC4H2CH2CHCHC2H5CHC2FeS2FeS2FeSFeS3HFeCFeS2Fe2CS2H2CH3C2HSC5H3C7H4C6H4C2HCHCH2SNHC9H3NH4CH5CH5NC5H6CH2C2H3CH3C2HCHCHCH2CH2C5HNC3H3SC3H5C3H3CHCHCHC2H3CSN2H3CHCHCH3C2HFeS2FeS2FeSFeS3FeSHFeS2FeHFeSCSC6H2C7H6C2H6C3H3C6H4CH2C4HNC4HCH12CHCHC2H2SCHCNH3CH5CHC2HC2HNCSH2SC2HC4H4SH2CSHC2H2C2HFeCFeS2FeSFeHS2H2FeS2C3FeSHCNH3SH2C6H5NC9H13C2H3C5H3SC2HS3H5CH3FeSFeSFe2S2CSCFeSHFeSHSHC3SC9H9CH2C2HCFeH4CHCHC2HC3H2NCSH2NHCHC2H2CHCH3NC2HCH6CHCHCHFeH2C2HCH5C2HC3HSH2CSCFeS2FeSHFeSFeS3FeSHFeS2FeSFeS5H2C6H4CHCHC5H4CH2CHCHC6H4C3HCH3CH2CHC7FeH4CH2CH2NCHCHCH2CHCH2C2FeHCHC2SC2NH4CH6NC2NC9H13CH2NHCHC2H2SCH2SH3CH3FeSHFeS2Fe2S3FeS2FeS2FeSFeS3HCH2C4H4CHC2HC6H4C6H5CH5CH3CHCSH10CH2CNC3H3CH4NCH3CHNHC7HC2H2C2SHC4HC4H2CH4CH5CHC2HC2SC2HCH4CNC7H2C2NHCH11SCH2C
_chemical_formula_sum              "Fe96 S192 C720 H864 N48"
_cell_length_a       40.7144
_cell_length_b       40.5952
_cell_length_c       40.783
_cell_angle_alpha    90.0083
_cell_angle_beta     90.0906
_cell_angle_gamma    90.1503

_space_group_name_H-M_alt    "P 1"
_space_group_IT_number       1

loop_
  _space_group_symop_operation_xyz
  'x, y, z'

loop_
  _atom_site_type_symbol
  _atom_site_label
  _atom_site_symmetry_multiplicity
  _atom_site_fract_x
  _atom_site_fract_y
  _atom_site_fract_z
  _atom_site_occupancy
  Fe  Fe1       1.0  0.25396  0.15625  0.36685  1.0000
  S   S1        1.0  0.29189  0.19251  0.38354  1.0000
  S   S2        1.0  0.20661  0.17415  0.34478  1.0000
  Fe  Fe2       1.0  0.29736  0.09705  0.38178  1.0000
  S   S3        1.0  0.33829  0.12899  0.40049  1.0000
  S   S4        1.0  0.30348  0.04162  0.38133  1.0000
  Fe  Fe3       1.0  0.29862  0.15801  0.42588  1.0000
  S   S5        1.0  0.30484  0.17641  0.47811  1.0000
  Fe  Fe4       1.0  0.32735  0.16039  0.35654  1.0000
  S   S6        1.0  0.36782  0.18440  0.32723  1.0000
  S   S7        1.0  0.25826  0.12332  0.41089  1.0000
  S   S8        1.0  0.28879  0.12660  0.33620  1.0000
  Fe  Fe5       1.0  0.41980  0.28793  0.15155  1.0000
  S   S9        1.0  0.40265  0.24596  0.12002  1.0000
  C   C1        1.0  0.39834  0.12734  0.19795  1.0000
  Fe  Fe6       1.0  0.35177  0.32003  0.15232  1.0000
  S   S10       1.0  0.32951  0.27989  0.12161  1.0000
  H   H1        1.0  0.35359  0.19211  0.43007  1.0000
  Fe  Fe7       1.0  0.35902  0.24582  0.15356  1.0000
  S   S11       1.0  0.33759  0.19962  0.17572  1.0000
  Fe  Fe8       1.0  0.37510  0.28458  0.09119  1.0000
  S   S12       1.0  0.37108  0.28404  0.03550  1.0000
  S   S13       1.0  0.37750  0.28584  0.18659  1.0000
  S   S14       1.0  0.39598  0.32698  0.12003  1.0000
  H   H2        1.0  0.37422  0.08838  0.17150  1.0000
  C   C2        1.0  0.27490  0.20398  0.49315  1.0000
  H   H3        1.0  0.01805  0.32573  0.23484  1.0000
  H   H4        1.0  0.42777  0.24704  0.43377  1.0000
  C   C3        1.0  0.02663  0.28076  0.34358  1.0000
  C   C4        1.0  0.34457  0.26068  0.38215  1.0000
  H   H5        1.0  0.04146  0.25954  0.34969  1.0000
  H   H6        1.0  0.02965  0.19633  0.46408  1.0000
  C   C5        1.0  0.34284  0.31158  0.01748  1.0000
  H   H7        1.0  0.08956  0.27457  0.41436  1.0000
  H   H8        1.0  0.39251  0.04476  0.21005  1.0000
  C   C6        1.0  0.21658  0.33458  0.19952  1.0000
  H   H9        1.0  0.35411  0.22668  0.47876  1.0000
  H   H10       1.0  0.24256  0.33988  0.33077  1.0000
  C   C7        1.0  0.48970  0.25706  0.19086  1.0000
  H   H11       1.0  0.37789  0.20219  0.39495  1.0000
  H   H12       1.0  0.28227  0.03104  0.28170  1.0000
  C   C8        1.0  0.25137  0.29678  0.30128  1.0000
  C   C9        1.0  0.06701  0.31048  0.46859  1.0000
  C   C10       1.0  0.47517  0.22579  0.18940  1.0000
  H   H13       1.0  0.31706  0.27917  0.34087  1.0000
  C   C11       1.0  0.13548  0.25575  0.45822  1.0000
  H   H14       1.0  0.45216  0.22249  0.17651  1.0000
  H   H15       1.0  0.22735  0.30923  0.11572  1.0000
  C   C12       1.0  0.34260  0.04370  0.32570  1.0000
  H   H16       1.0  0.33768  0.06983  0.32470  1.0000
  H   H17       1.0  0.05888  0.31289  0.44348  1.0000
  C   C13       1.0  0.25139  0.21760  0.47222  1.0000
  H   H18       1.0  0.25141  0.21108  0.44657  1.0000
  C   C14       1.0  0.36059  0.18688  0.28470  1.0000
  C   C15       1.0  0.33681  0.16722  0.26945  1.0000
  C   C16       1.0  0.33081  0.17026  0.23570  1.0000
  C   C17       1.0  0.34857  0.19303  0.21696  1.0000
  C   C18       1.0  0.37346  0.21151  0.23191  1.0000
  C   C19       1.0  0.37919  0.20876  0.26573  1.0000
  H   H19       1.0  0.32314  0.14945  0.28344  1.0000
  H   H20       1.0  0.31197  0.15535  0.22419  1.0000
  H   H21       1.0  0.38870  0.22760  0.21744  1.0000
  H   H22       1.0  0.39812  0.22363  0.27712  1.0000
  C   C20       1.0  0.19699  0.21546  0.35312  1.0000
  C   C21       1.0  0.21244  0.23281  0.37847  1.0000
  C   C22       1.0  0.20593  0.26646  0.38308  1.0000
  C   C23       1.0  0.18455  0.28305  0.36188  1.0000
  C   C24       1.0  0.16809  0.26527  0.33750  1.0000
  C   C25       1.0  0.17410  0.23157  0.33328  1.0000
  H   H23       1.0  0.22921  0.22027  0.39461  1.0000
  H   H24       1.0  0.21792  0.27971  0.40273  1.0000
  H   H25       1.0  0.15060  0.27720  0.32191  1.0000
  H   H26       1.0  0.16155  0.21812  0.31404  1.0000
  H   H27       1.0  0.37277  0.26717  0.47750  1.0000
  C   C26       1.0  0.41873  0.07846  0.24145  1.0000
  H   H28       1.0  0.11470  0.23794  0.45836  1.0000
  C   C27       1.0  0.45422  0.15536  0.28178  1.0000
  H   H29       1.0  0.47966  0.17444  0.20230  1.0000
  H   H30       1.0  0.21012  0.25037  0.46792  1.0000
  H   H31       1.0  0.06648  0.30647  0.31996  1.0000
  H   H32       1.0  0.39742  0.23058  0.47919  1.0000
  H   H33       1.0  0.47738  0.07547  0.27532  1.0000
  C   C28       1.0  0.39951  0.07025  0.21421  1.0000
  C   C29       1.0  0.04088  0.30739  0.32668  1.0000
  H   H34       1.0  0.39750  0.19207  0.43299  1.0000
  S   S15       1.0  0.12539  0.32562  0.28570  1.0000
  S   S16       1.0  0.47162  0.29178  0.17163  1.0000
  H   H35       1.0  0.28612  0.30057  0.16872  1.0000
  C   C30       1.0  0.09907  0.29926  0.47695  1.0000
  C   C31       1.0  0.36149  0.02866  0.30098  1.0000
  H   H36       1.0  0.44327  0.11512  0.33025  1.0000
  H   H37       1.0  0.03307  0.23986  0.45421  1.0000
  N   N1        1.0  0.26111  0.24836  0.26419  1.0000
  C   C32       1.0  0.26942  0.22536  0.29125  1.0000
  C   C33       1.0  0.22564  0.24500  0.25632  1.0000
  C   C34       1.0  0.27978  0.23789  0.23477  1.0000
  C   C35       1.0  0.26833  0.28264  0.27441  1.0000
  C   C36       1.0  0.22328  0.31707  0.08986  1.0000
  H   H38       1.0  0.25475  0.23001  0.31373  1.0000
  H   H39       1.0  0.26452  0.19922  0.28436  1.0000
  H   H40       1.0  0.29588  0.22724  0.29804  1.0000
  H   H41       1.0  0.21957  0.21998  0.24685  1.0000
  H   H42       1.0  0.21793  0.26341  0.23757  1.0000
  H   H43       1.0  0.20979  0.24877  0.27807  1.0000
  H   H44       1.0  0.27413  0.21199  0.22765  1.0000
  H   H45       1.0  0.27398  0.25341  0.21307  1.0000
  H   H46       1.0  0.30669  0.23901  0.23925  1.0000
  H   H47       1.0  0.30604  0.29457  0.23755  1.0000
  S   S17       1.0  0.17872  0.32579  0.36641  1.0000
  H   H48       1.0  0.22810  0.28673  0.18003  1.0000
  H   H49       1.0  0.00996  0.30340  0.19752  1.0000
  H   H50       1.0  0.37090  0.04337  0.28103  1.0000
  N   N2        1.0  0.44762  0.11958  0.27762  1.0000
  H   H51       1.0  0.49610  0.10920  0.29659  1.0000
  C   C37       1.0  0.42996  0.10820  0.30740  1.0000
  C   C38       1.0  0.47984  0.10273  0.27556  1.0000
  C   C39       1.0  0.42789  0.11159  0.24811  1.0000
  C   C40       1.0  0.31808  0.26591  0.43506  1.0000
  H   H52       1.0  0.23585  0.29847  0.07420  1.0000
  H   H53       1.0  0.42620  0.05852  0.25739  1.0000
  H   H54       1.0  0.16494  0.31132  0.47838  1.0000
  C   C41       1.0  0.37476  0.24141  0.46839  1.0000
  C   C42       1.0  0.41735  0.13585  0.22529  1.0000
  C   C43       1.0  0.29120  0.28094  0.41990  1.0000
  N   N3        1.0  0.12382  0.28984  0.45205  1.0000
  C   C44       1.0  0.29108  0.28619  0.38614  1.0000
  C   C45       1.0  0.34602  0.25596  0.41667  1.0000
  C   C46       1.0  0.38924  0.09469  0.19255  1.0000
  H   H55       1.0  0.27014  0.28817  0.43447  1.0000
  C   C47       1.0  0.23738  0.31110  0.18560  1.0000
  C   C48       1.0  0.37619  0.20518  0.42200  1.0000
  C   C49       1.0  0.40571  0.25672  0.42080  1.0000
  H   H56       1.0  0.14479  0.33857  0.45007  1.0000
  H   H57       1.0  0.39030  0.14633  0.18100  1.0000
  H   H58       1.0  0.43106  0.16953  0.28433  1.0000
  H   H59       1.0  0.19659  0.31539  0.08414  1.0000
  H   H60       1.0  0.40455  0.28376  0.42522  1.0000
  C   C50       1.0  0.22792  0.23975  0.48446  1.0000
  C   C51       1.0  0.33442  0.34099  0.03312  1.0000
  H   H61       1.0  0.28459  0.33013  0.07770  1.0000
  H   H62       1.0  0.15329  0.24756  0.43913  1.0000
  C   C52       1.0  0.27019  0.31903  0.17885  1.0000
  C   C53       1.0  0.31759  0.27587  0.36725  1.0000
  H   H63       1.0  0.14868  0.25341  0.48201  1.0000
  C   C54       1.0  0.32949  0.02464  0.35112  1.0000
  H   H64       1.0  0.23347  0.28273  0.31486  1.0000
  H   H65       1.0  0.43536  0.25579  0.01761  1.0000
  C   C55       1.0  0.15236  0.31255  0.45417  1.0000
  H   H66       1.0  0.36391  0.25191  0.36625  1.0000
  H   H67       1.0  0.31605  0.26187  0.46116  1.0000
  H   H68       1.0  0.46912  0.16054  0.30410  1.0000
  C   C56       1.0  0.29176  0.30299  0.25821  1.0000
  H   H69       1.0  0.41056  0.25276  0.39427  1.0000
  H   H70       1.0  0.42676  0.08101  0.30808  1.0000
  C   C57       1.0  0.25664  0.32946  0.31071  1.0000
  H   H71       1.0  0.40498  0.11939  0.30870  1.0000
  N   N4        1.0  0.37508  0.24022  0.43194  1.0000
  H   H72       1.0  0.46858  0.16550  0.26091  1.0000
  H   H73       1.0  0.49316  0.11010  0.25280  1.0000
  H   H74       1.0  0.42328  0.16164  0.22800  1.0000
  H   H75       1.0  0.27011  0.29776  0.37456  1.0000
  C   C58       1.0  0.29689  0.33566  0.26786  1.0000
  C   C59       1.0  0.11118  0.29101  0.41784  1.0000
  H   H76       1.0  0.17133  0.30664  0.43545  1.0000
  H   H77       1.0  0.12996  0.28267  0.39993  1.0000
  S   S18       1.0  0.17515  0.32478  0.20614  1.0000
  C   C60       1.0  0.49073  0.19860  0.20422  1.0000
  C   C61       1.0  0.01586  0.21862  0.45621  1.0000
  C   C62       1.0  0.02171  0.33444  0.31755  1.0000
  H   H78       1.0  0.10471  0.31656  0.41029  1.0000
  C   C63       1.0  0.04452  0.31969  0.49286  1.0000
  H   H79       1.0  0.02038  0.32859  0.48601  1.0000
  H   H80       1.0  0.24249  0.33921  0.03260  1.0000
  Fe  Fe9       1.0  0.13160  0.28842  0.63613  1.0000
  H   H81       1.0  0.35849  0.04347  0.65647  1.0000
  S   S19       1.0  0.07602  0.28989  0.64038  1.0000
  Fe  Fe10      1.0  0.19559  0.25378  0.65521  1.0000
  S   S20       1.0  0.22702  0.28799  0.62568  1.0000
  S   S21       1.0  0.21737  0.21526  0.68839  1.0000
  Fe  Fe11      1.0  0.19426  0.32726  0.64625  1.0000
  Fe  Fe12      1.0  0.18811  0.28188  0.58699  1.0000
  S   S22       1.0  0.19661  0.27501  0.53238  1.0000
  S   S23       1.0  0.16575  0.29354  0.67896  1.0000
  S   S24       1.0  0.15852  0.24472  0.61528  1.0000
  Fe  Fe13      1.0  0.39677  0.17434  0.72730  1.0000
  S   S25       1.0  0.36821  0.14695  0.76561  1.0000
  S   S26       1.0  0.37150  0.19352  0.68157  1.0000
  Fe  Fe14      1.0  0.46149  0.16861  0.76582  1.0000
  S   S27       1.0  0.43682  0.14025  0.80612  1.0000
  Fe  Fe15      1.0  0.41090  0.11218  0.76587  1.0000
  S   S28       1.0  0.40395  0.05648  0.76782  1.0000
  Fe  Fe16      1.0  0.39698  0.17805  0.80116  1.0000
  S   S29       1.0  0.37379  0.20273  0.84523  1.0000
  S   S30       1.0  0.43843  0.13784  0.72563  1.0000
  S   S31       1.0  0.42284  0.20786  0.76281  1.0000
  C   C64       1.0  0.45541  0.17825  0.89237  1.0000
  C   C65       1.0  0.37802  0.04979  0.70531  1.0000
  C   C66       1.0  0.03261  0.29617  0.79101  1.0000
  C   C67       1.0  0.49708  0.32639  0.95787  1.0000
  H   H82       1.0  0.38845  0.07382  0.70035  1.0000
  C   C68       1.0  0.45540  0.23395  0.87196  1.0000
  H   H83       1.0  0.48799  0.23840  0.79541  1.0000
  C   C69       1.0  0.36832  0.24571  0.84300  1.0000
  C   C70       1.0  0.38894  0.26540  0.82377  1.0000
  C   C71       1.0  0.38374  0.29949  0.82176  1.0000
  C   C72       1.0  0.35771  0.31415  0.83872  1.0000
  C   C73       1.0  0.33746  0.29462  0.85848  1.0000
  C   C74       1.0  0.34302  0.26055  0.86093  1.0000
  H   H84       1.0  0.40917  0.25452  0.81069  1.0000
  H   H85       1.0  0.39966  0.31446  0.80657  1.0000
  H   H86       1.0  0.31766  0.30565  0.87209  1.0000
  H   H87       1.0  0.32721  0.24554  0.87619  1.0000
  H   H88       1.0  0.24235  0.27581  0.78071  1.0000
  C   C75       1.0  0.45957  0.32906  0.90059  1.0000
  S   S32       1.0  0.15819  0.32509  0.60466  1.0000
  H   H89       1.0  0.10424  0.25887  0.81441  1.0000
  C   C76       1.0  0.46344  0.33318  0.95974  1.0000
  C   C77       1.0  0.05901  0.31753  0.66928  1.0000
  H   H90       1.0  0.05194  0.22562  0.50684  1.0000
  C   C78       1.0  0.02489  0.31790  0.67442  1.0000
  H   H91       1.0  0.29723  0.32100  0.94753  1.0000
  C   C79       1.0  0.08960  0.34014  0.80125  1.0000
  C   C80       1.0  0.26017  0.20990  0.68578  1.0000
  C   C81       1.0  0.27696  0.19761  0.71307  1.0000
  C   C82       1.0  0.31109  0.19321  0.71209  1.0000
  C   C83       1.0  0.32867  0.20009  0.68351  1.0000
  C   C84       1.0  0.31171  0.21152  0.65579  1.0000
  C   C85       1.0  0.27758  0.21684  0.65703  1.0000
  H   H92       1.0  0.26355  0.19173  0.73521  1.0000
  H   H93       1.0  0.32370  0.18457  0.73355  1.0000
  H   H94       1.0  0.32502  0.21650  0.63339  1.0000
  H   H95       1.0  0.26474  0.22556  0.63552  1.0000
  C   C86       1.0  0.01106  0.33800  0.69894  1.0000
  H   H96       1.0  0.28733  0.25200  0.80448  1.0000
  C   C87       1.0  0.25089  0.23439  0.53892  1.0000
  C   C88       1.0  0.01754  0.24992  0.57799  1.0000
  N   N5        1.0  0.09387  0.30521  0.79119  1.0000
  H   H97       1.0  0.26727  0.29696  0.69735  1.0000
  H   H98       1.0  0.25078  0.24065  0.56471  1.0000
  H   H99       1.0  0.02471  0.25609  0.60290  1.0000
  H   H100      1.0  0.12367  0.29397  0.83345  1.0000
  H   H101      1.0  0.28660  0.31418  0.80184  1.0000
  H   H102      1.0  0.28838  0.09018  0.70961  1.0000
  C   C89       1.0  0.32313  0.11013  0.65833  1.0000
  C   C90       1.0  0.04122  0.24029  0.55536  1.0000
  C   C91       1.0  0.30786  0.32687  0.97116  1.0000
  H   H103      1.0  0.24836  0.25636  0.74159  1.0000
  H   H104      1.0  0.29810  0.29976  0.64683  1.0000
  H   H105      1.0  0.39876  0.33451  0.98346  1.0000
  H   H106      1.0  0.08591  0.27146  0.73093  1.0000
  C   C92       1.0  0.23887  0.15790  0.58290  1.0000
  C   C93       1.0  0.03226  0.23265  0.52307  1.0000
  C   C94       1.0  0.03482  0.26279  0.73128  1.0000
  C   C95       1.0  0.22724  0.24786  0.51793  1.0000
  C   C96       1.0  0.49326  0.32260  0.89905  1.0000
  H   H107      1.0  0.11934  0.31794  0.74658  1.0000
  H   H108      1.0  0.33654  0.10243  0.63593  1.0000
  H   H109      1.0  0.06676  0.23907  0.56299  1.0000
  H   H110      1.0  0.49363  0.25712  0.00069  1.0000
  H   H111      1.0  0.33627  0.28206  0.97401  1.0000
  C   C97       1.0  0.36102  0.03257  0.68052  1.0000
  N   N6        1.0  0.28790  0.10064  0.65759  1.0000
  C   C98       1.0  0.27468  0.10519  0.69123  1.0000
  C   C99       1.0  0.28505  0.06510  0.64946  1.0000
  C   C100      1.0  0.27061  0.12034  0.63236  1.0000
  C   C101      1.0  0.28096  0.11917  0.59914  1.0000
  C   C102      1.0  0.24354  0.14114  0.63970  1.0000
  C   C103      1.0  0.26531  0.13777  0.57485  1.0000
  C   C104      1.0  0.22809  0.15964  0.61524  1.0000
  C   C105      1.0  0.44373  0.33543  0.93096  1.0000
  H   H112      1.0  0.24849  0.09747  0.69284  1.0000
  H   H113      1.0  0.25892  0.05766  0.64618  1.0000
  H   H114      1.0  0.50519  0.31888  0.87559  1.0000
  H   H115      1.0  0.29838  0.05845  0.62664  1.0000
  H   H116      1.0  0.30143  0.10399  0.59177  1.0000
  H   H117      1.0  0.23410  0.14416  0.66425  1.0000
  C   C106      1.0  0.44236  0.24738  0.99333  1.0000
  H   H118      1.0  0.45800  0.01210  0.70920  1.0000
  H   H119      1.0  0.39292  0.23546  0.97947  1.0000
  N   N7        1.0  0.46934  0.21179  0.89719  1.0000
  C   C107      1.0  0.34310  0.27579  0.72706  1.0000
  H   H120      1.0  0.09121  0.30660  0.56066  1.0000
  C   C108      1.0  0.50534  0.20965  0.89145  1.0000
  C   C109      1.0  0.46060  0.22436  0.93015  1.0000
  C   C110      1.0  0.48433  0.23691  0.95259  1.0000
  H   H121      1.0  0.30018  0.22991  0.76866  1.0000
  C   C111      1.0  0.34410  0.28623  0.66869  1.0000
  H   H122      1.0  0.29545  0.04920  0.66915  1.0000
  C   C112      1.0  0.27487  0.21280  0.52646  1.0000
  C   C113      1.0  0.06381  0.27522  0.74503  1.0000
  H   H123      1.0  0.38614  0.27121  0.69673  1.0000
  C   C114      1.0  0.07906  0.33843  0.68788  1.0000
  C   C115      1.0  0.42727  0.22469  0.94052  1.0000
  H   H124      1.0  0.35722  0.26945  0.74856  1.0000
  H   H125      1.0  0.39344  0.29308  0.94125  1.0000
  H   H126      1.0  0.03560  0.25038  0.70772  1.0000
  H   H127      1.0  0.36242  0.31804  0.92231  1.0000
  H   H128      1.0  0.40774  0.21618  0.92454  1.0000
  C   C116      1.0  0.12323  0.30369  0.76961  1.0000
  H   H129      1.0  0.39632  0.30342  0.89859  1.0000
  H   H130      1.0  0.33629  0.09900  0.67949  1.0000
  H   H131      1.0  0.27696  0.13125  0.69929  1.0000
  H   H132      1.0  0.32772  0.25671  0.79012  1.0000
  H   H133      1.0  0.03035  0.30862  0.81428  1.0000
  H   H134      1.0  0.32606  0.13727  0.66058  1.0000
  N   N8        1.0  0.29115  0.28150  0.76031  1.0000
  C   C117      1.0  0.25493  0.27832  0.75662  1.0000
  C   C118      1.0  0.30208  0.25387  0.78159  1.0000
  C   C119      1.0  0.29851  0.31283  0.77731  1.0000
  C   C120      1.0  0.30873  0.28178  0.72852  1.0000
  C   C121      1.0  0.29313  0.29135  0.69876  1.0000
  H   H135      1.0  0.42814  0.17832  0.89041  1.0000
  C   C122      1.0  0.41845  0.23582  0.97175  1.0000
  H   H136      1.0  0.45903  0.22394  0.84680  1.0000
  H   H137      1.0  0.42855  0.23720  0.87502  1.0000
  H   H138      1.0  0.10528  0.33885  0.68368  1.0000
  H   H139      1.0  0.29317  0.20258  0.54279  1.0000
  C   C123      1.0  0.32981  0.30477  0.98628  1.0000
  H   H140      1.0  0.29045  0.33433  0.76263  1.0000
  H   H141      1.0  0.45351  0.33658  0.98405  1.0000
  C   C124      1.0  0.06355  0.29256  0.77536  1.0000
  H   H142      1.0  0.24372  0.30025  0.74500  1.0000
  C   C125      1.0  0.38932  0.31309  0.92310  1.0000
  H   H143      1.0  0.22686  0.17240  0.56407  1.0000
  H   H144      1.0  0.46686  0.25882  0.87303  1.0000
  C   C126      1.0  0.31069  0.29341  0.66938  1.0000
  C   C127      1.0  0.47517  0.24804  0.98374  1.0000
  H   H145      1.0  0.14541  0.31414  0.78185  1.0000
  C   C128      1.0  0.10089  0.28532  0.82083  1.0000
  H   H146      1.0  0.32536  0.31606  0.78094  1.0000
  C   C129      1.0  0.38211  0.03565  0.73630  1.0000
  H   H147      1.0  0.12979  0.27791  0.76311  1.0000
  C   C130      1.0  0.08440  0.30751  0.53487  1.0000
  H   H148      1.0  0.20795  0.17589  0.62161  1.0000
  H   H149      1.0  0.46415  0.16683  0.86914  1.0000
  H   H150      1.0  0.44607  0.32914  0.87774  1.0000
  H   H151      1.0  0.46238  0.16155  0.91287  1.0000
  C   C131      1.0  0.36028  0.27760  0.69749  1.0000
  H   H152      1.0  0.00919  0.30193  0.66004  1.0000
  H   H153      1.0  0.08060  0.28670  0.83901  1.0000
  H   H154      1.0  0.35737  0.28662  0.64568  1.0000
  H   H155      1.0  0.27388  0.13686  0.54964  1.0000
  C   C132      1.0  0.05320  0.31819  0.52590  1.0000
  H   H156      1.0  0.03584  0.32548  0.54469  1.0000
  H   H157      1.0  0.13099  0.29046  0.51913  1.0000
  C   C133      1.0  0.10699  0.29813  0.51086  1.0000
  Fe  Fe17      1.0  0.09340  0.37013  0.28797  1.0000
  S   S33       1.0  0.12311  0.39526  0.32711  1.0000
  C   C134      1.0  0.31805  0.45967  0.17150  1.0000
  Fe  Fe18      1.0  0.15470  0.35339  0.24850  1.0000
  S   S34       1.0  0.18886  0.37664  0.28493  1.0000
  H   H158      1.0  0.34495  0.34682  0.05682  1.0000
  Fe  Fe19      1.0  0.15194  0.41760  0.28542  1.0000
  S   S35       1.0  0.16590  0.47188  0.28577  1.0000
  S   S36       1.0  0.11945  0.39584  0.24632  1.0000
  Fe  Fe20      1.0  0.15693  0.35187  0.32240  1.0000
  S   S37       1.0  0.26470  0.62365  0.20949  1.0000
  H   H159      1.0  0.28267  0.37448  0.30083  1.0000
  Fe  Fe21      1.0  0.26788  0.63981  0.11501  1.0000
  S   S38       1.0  0.30577  0.60979  0.14162  1.0000
  H   H160      1.0  0.13221  0.63010  0.28907  1.0000
  Fe  Fe22      1.0  0.26275  0.58700  0.16831  1.0000
  S   S39       1.0  0.25674  0.53156  0.17369  1.0000
  Fe  Fe23      1.0  0.30323  0.64972  0.17995  1.0000
  S   S40       1.0  0.22482  0.61441  0.13914  1.0000
  H   H161      1.0  0.14791  0.51406  0.19467  1.0000
  C   C135      1.0  0.40731  0.54269  0.18993  1.0000
  H   H162      1.0  0.29743  0.49836  0.22085  1.0000
  C   C136      1.0  0.10818  0.61696  0.28905  1.0000
  S   S41       1.0  0.32201  0.36218  0.17283  1.0000
  H   H163      1.0  0.24895  0.41735  0.08451  1.0000
  H   H164      1.0  0.17939  0.44571  0.15749  1.0000
  C   C137      1.0  0.19842  0.64622  0.26317  1.0000
  C   C138      1.0  0.19953  0.64457  0.29762  1.0000
  H   H165      1.0  0.06748  0.57071  0.30665  1.0000
  H   H166      1.0  0.19987  0.62386  0.24880  1.0000
  H   H167      1.0  0.20204  0.62100  0.30972  1.0000
  C   C139      1.0  0.18048  0.39403  0.14608  1.0000
  H   H168      1.0  0.29163  0.45663  0.23209  1.0000
  H   H169      1.0  0.40443  0.46147  0.20740  1.0000
  C   C140      1.0  0.37398  0.54924  0.18617  1.0000
  C   C141      1.0  0.23228  0.51514  0.20555  1.0000
  C   C142      1.0  0.22401  0.48152  0.20502  1.0000
  C   C143      1.0  0.20401  0.46780  0.22966  1.0000
  C   C144      1.0  0.19290  0.48747  0.25552  1.0000
  C   C145      1.0  0.20257  0.52069  0.25683  1.0000
  C   C146      1.0  0.22177  0.53462  0.23174  1.0000
  H   H170      1.0  0.23285  0.46612  0.18533  1.0000
  H   H171      1.0  0.19700  0.44211  0.22857  1.0000
  H   H172      1.0  0.19472  0.53590  0.27704  1.0000
  H   H173      1.0  0.22837  0.56042  0.23268  1.0000
  H   H174      1.0  0.36286  0.43595  0.23751  1.0000
  H   H175      1.0  0.30614  0.38580  0.03023  1.0000
  N   N9        1.0  0.33525  0.46540  0.20309  1.0000
  H   H176      1.0  0.33567  0.45243  0.15195  1.0000
  Fe  Fe24      1.0  0.22964  0.65259  0.17865  1.0000
  C   C147      1.0  0.22018  0.37644  0.10427  1.0000
  C   C148      1.0  0.19496  0.36919  0.12729  1.0000
  C   C149      1.0  0.22986  0.40997  0.10141  1.0000
  C   C150      1.0  0.12970  0.54446  0.23393  1.0000
  C   C151      1.0  0.21522  0.43462  0.12036  1.0000
  N   N10       1.0  0.23621  0.35083  0.08400  1.0000
  H   H177      1.0  0.18632  0.34444  0.13190  1.0000
  C   C152      1.0  0.14370  0.53902  0.20311  1.0000
  H   H178      1.0  0.22318  0.46006  0.11796  1.0000
  H   H179      1.0  0.16184  0.38770  0.16404  1.0000
  H   H180      1.0  0.05976  0.66599  0.31403  1.0000
  H   H181      1.0  0.27648  0.34610  0.11769  1.0000
  H   H182      1.0  0.09094  0.62986  0.27218  1.0000
  S   S42       1.0  0.03796  0.36633  0.29272  1.0000
  H   H183      1.0  0.12348  0.52298  0.24836  1.0000
  C   C153      1.0  0.34903  0.43338  0.21410  1.0000
  C   C154      1.0  0.36038  0.49151  0.19865  1.0000
  C   C155      1.0  0.39467  0.48554  0.20182  1.0000
  C   C156      1.0  0.35084  0.52407  0.19022  1.0000
  C   C157      1.0  0.41765  0.51090  0.19759  1.0000
  H   H184      1.0  0.20600  0.64501  0.00662  1.0000
  H   H185      1.0  0.30030  0.66478  0.29456  1.0000
  H   H186      1.0  0.29945  0.43963  0.17343  1.0000
  H   H187      1.0  0.42515  0.56231  0.18671  1.0000
  H   H188      1.0  0.36532  0.42227  0.19517  1.0000
  H   H189      1.0  0.32535  0.53039  0.18649  1.0000
  H   H190      1.0  0.12546  0.57017  0.32987  1.0000
  C   C158      1.0  0.19053  0.42664  0.14261  1.0000
  C   C159      1.0  0.13418  0.56634  0.30430  1.0000
  C   C160      1.0  0.22867  0.36605  0.20666  1.0000
  C   C161      1.0  0.12539  0.57679  0.24649  1.0000
  C   C162      1.0  0.26122  0.37431  0.19892  1.0000
  S   S43       1.0  0.26874  0.65040  0.06027  1.0000
  H   H191      1.0  0.01791  0.44139  0.27199  1.0000
  H   H192      1.0  0.36595  0.57398  0.17998  1.0000
  N   N11       1.0  0.11195  0.58174  0.27988  1.0000
  C   C163      1.0  0.14936  0.59756  0.19518  1.0000
  C   C164      1.0  0.13525  0.60332  0.22590  1.0000
  H   H193      1.0  0.08016  0.53886  0.27947  1.0000
  H   H194      1.0  0.16568  0.56119  0.16052  1.0000
  C   C165      1.0  0.15383  0.56551  0.18392  1.0000
  C   C166      1.0  0.07906  0.56607  0.28235  1.0000
  H   H195      1.0  0.15751  0.61815  0.18026  1.0000
  H   H196      1.0  0.15937  0.57693  0.30258  1.0000
  H   H197      1.0  0.13315  0.62881  0.23312  1.0000
  H   H198      1.0  0.32934  0.41483  0.21857  1.0000
  H   H199      1.0  0.21255  0.38444  0.21692  1.0000
  H   H200      1.0  0.32296  0.48100  0.25202  1.0000
  H   H201      1.0  0.27001  0.39895  0.20370  1.0000
  H   H202      1.0  0.13644  0.53922  0.30083  1.0000
  H   H203      1.0  0.44367  0.50586  0.20017  1.0000
  H   H204      1.0  0.30480  0.48194  0.16281  1.0000
  H   H205      1.0  0.06212  0.57583  0.26320  1.0000
  C   C167      1.0  0.31088  0.47578  0.22808  1.0000
  H   H206      1.0  0.09816  0.61976  0.31431  1.0000
  C   C168      1.0  0.28200  0.35088  0.18472  1.0000
  H   H207      1.0  0.24321  0.38200  0.04132  1.0000
  C   C169      1.0  0.30264  0.67139  0.04273  1.0000
  H   H208      1.0  0.31424  0.35088  0.25448  1.0000
  H   H209      1.0  0.33509  0.66459  0.08387  1.0000
  C   C170      1.0  0.31249  0.36303  0.01804  1.0000
  C   C171      1.0  0.27919  0.34895  0.29388  1.0000
  H   H210      1.0  0.28442  0.37360  0.08463  1.0000
  C   C172      1.0  0.23145  0.35840  0.04870  1.0000
  S   S44       1.0  0.34702  0.67324  0.20489  1.0000
  C   C173      1.0  0.27190  0.35022  0.09121  1.0000
  H   H211      1.0  0.20491  0.36025  0.04241  1.0000
  C   C174      1.0  0.33252  0.67472  0.05946  1.0000
  H   H212      1.0  0.01788  0.34709  0.19727  1.0000
  S   S45       1.0  0.19557  0.67112  0.35946  1.0000
  C   C175      1.0  0.19678  0.67335  0.31639  1.0000
  H   H213      1.0  0.22337  0.47370  0.73325  1.0000
  Fe  Fe25      1.0  0.15761  0.60765  0.74546  1.0000
  S   S46       1.0  0.12581  0.63072  0.78399  1.0000
  S   S47       1.0  0.16572  0.55227  0.74852  1.0000
  C   C176      1.0  0.33767  0.39453  0.74828  1.0000
  H   H214      1.0  0.27570  0.41648  0.67968  1.0000
  C   C177      1.0  0.03128  0.35809  0.71829  1.0000
  H   H215      1.0  0.25508  0.36068  0.72531  1.0000
  S   S48       1.0  0.19711  0.64637  0.74776  1.0000
  S   S49       1.0  0.13122  0.63236  0.70337  1.0000
  H   H216      1.0  0.30519  0.57506  0.89672  1.0000
  Fe  Fe26      1.0  0.26570  0.38965  0.91591  1.0000
  S   S50       1.0  0.30726  0.41754  0.89279  1.0000
  S   S51       1.0  0.26863  0.38251  0.97100  1.0000
  Fe  Fe27      1.0  0.22974  0.38198  0.85037  1.0000
  S   S52       1.0  0.26972  0.40807  0.82284  1.0000
  C   C178      1.0  0.20539  0.37149  0.71176  1.0000
  Fe  Fe28      1.0  0.30409  0.37844  0.85415  1.0000
  H   H217      1.0  0.37380  0.37711  0.90975  1.0000
  Fe  Fe29      1.0  0.26827  0.44424  0.86406  1.0000
  S   S53       1.0  0.26854  0.49900  0.85336  1.0000
  H   H218      1.0  0.27772  0.46959  0.78202  1.0000
  S   S54       1.0  0.22667  0.41978  0.89051  1.0000
  H   H219      1.0  0.08092  0.35540  0.78037  1.0000
  H   H220      1.0  0.07316  0.55063  0.76481  1.0000
  H   H221      1.0  0.26510  0.50678  0.70231  1.0000
  H   H222      1.0  0.10412  0.52101  0.72890  1.0000
  C   C179      1.0  0.19304  0.53809  0.77921  1.0000
  C   C180      1.0  0.19417  0.50435  0.78672  1.0000
  C   C181      1.0  0.21640  0.49228  0.81026  1.0000
  C   C182      1.0  0.23822  0.51383  0.82602  1.0000
  C   C183      1.0  0.23699  0.54758  0.81863  1.0000
  C   C184      1.0  0.21432  0.55969  0.79551  1.0000
  H   H223      1.0  0.17808  0.48742  0.77403  1.0000
  H   H224      1.0  0.21707  0.46622  0.81581  1.0000
  H   H225      1.0  0.25380  0.56443  0.83059  1.0000
  H   H226      1.0  0.21372  0.58568  0.78988  1.0000
  C   C185      1.0  0.24109  0.65835  0.82238  1.0000
  C   C186      1.0  0.06522  0.35875  0.71213  1.0000
  H   H227      1.0  0.32187  0.57434  0.95058  1.0000
  S   S55       1.0  0.01516  0.38180  0.75097  1.0000
  H   H228      1.0  0.02321  0.58253  0.77291  1.0000
  C   C187      1.0  0.28326  0.59054  0.90191  1.0000
  H   H229      1.0  0.23535  0.64676  0.57921  1.0000
  H   H230      1.0  0.30630  0.60112  0.98120  1.0000
  C   C188      1.0  0.29334  0.41164  0.69896  1.0000
  C   C189      1.0  0.21345  0.66309  0.57955  1.0000
  C   C190      1.0  0.09703  0.49455  0.72787  1.0000
  H   H231      1.0  0.26687  0.50541  0.75961  1.0000
  H   H232      1.0  0.15378  0.38148  0.70584  1.0000
  H   H233      1.0  0.12305  0.47318  0.78640  1.0000
  C   C191      1.0  0.25576  0.62652  0.94121  1.0000
  C   C192      1.0  0.16682  0.37581  0.75698  1.0000
  C   C193      1.0  0.21450  0.64427  0.98141  1.0000
  S   S56       1.0  0.21449  0.37301  0.66977  1.0000
  H   H234      1.0  0.14221  0.38034  0.76572  1.0000
  C   C194      1.0  0.20892  0.66104  0.92496  1.0000
  H   H235      1.0  0.32198  0.43687  0.77393  1.0000
  H   H236      1.0  0.31792  0.64957  0.95009  1.0000
  H   H237      1.0  0.19428  0.65159  0.56372  1.0000
  S   S57       1.0  0.35073  0.35664  0.83369  1.0000
  H   H238      1.0  0.24313  0.35777  0.78488  1.0000
  C   C195      1.0  0.19219  0.36932  0.77935  1.0000
  H   H239      1.0  0.28039  0.60622  0.87978  1.0000
  C   C196      1.0  0.31243  0.63586  0.92712  1.0000
  H   H240      1.0  0.23188  0.43748  0.71008  1.0000
  C   C197      1.0  0.02146  0.55600  0.76993  1.0000
  H   H241      1.0  0.30540  0.48967  0.69626  1.0000
  H   H242      1.0  0.26162  0.57372  0.90334  1.0000
  C   C198      1.0  0.24328  0.62718  0.97376  1.0000
  H   H243      1.0  0.08100  0.37485  0.72621  1.0000
  Fe  Fe30      1.0  0.10218  0.65836  0.74226  1.0000
  H   H244      1.0  0.24629  0.64594  0.89221  1.0000
  C   C199      1.0  0.23782  0.64429  0.91718  1.0000
  H   H245      1.0  0.26983  0.47125  0.67738  1.0000
  H   H246      1.0  0.08768  0.48456  0.81002  1.0000
  H   H247      1.0  0.23557  0.43654  0.75391  1.0000
  H   H248      1.0  0.41074  0.37627  0.97320  1.0000
  H   H249      1.0  0.20287  0.66315  0.60477  1.0000
  H   H250      1.0  0.35467  0.38764  0.76763  1.0000
  C   C200      1.0  0.33485  0.37488  0.72040  1.0000
  C   C201      1.0  0.27906  0.48329  0.70008  1.0000
  H   H251      1.0  0.30849  0.49146  0.75862  1.0000
  H   H252      1.0  0.22613  0.64039  0.80985  1.0000
  C   C202      1.0  0.29929  0.58757  0.95845  1.0000
  H   H253      1.0  0.30433  0.65448  0.90890  1.0000
  C   C203      1.0  0.04998  0.53747  0.76524  1.0000
  C   C204      1.0  0.31858  0.42297  0.75159  1.0000
  C   C205      1.0  0.31271  0.38342  0.69580  1.0000
  N   N12       1.0  0.28708  0.61019  0.93252  1.0000
  H   H254      1.0  0.11064  0.51510  0.78769  1.0000
  C   C206      1.0  0.29583  0.43249  0.72683  1.0000
  H   H255      1.0  0.28583  0.63058  0.81657  1.0000
  N   N13       1.0  0.27490  0.46219  0.72954  1.0000
  C   C207      1.0  0.23997  0.45202  0.73177  1.0000
  C   C208      1.0  0.28250  0.48292  0.75865  1.0000
  S   S58       1.0  0.18437  0.36714  0.82167  1.0000
  H   H256      1.0  0.01347  0.46136  0.75994  1.0000
  Fe  Fe31      1.0  0.16375  0.67088  0.78391  1.0000
  H   H257      1.0  0.33585  0.62527  0.91784  1.0000
  C   C209      1.0  0.07411  0.44747  0.75498  1.0000
  C   C210      1.0  0.17337  0.37662  0.72314  1.0000
  H   H258      1.0  0.08151  0.49104  0.70564  1.0000
  H   H259      1.0  0.28047  0.56863  0.96467  1.0000
  H   H260      1.0  0.37030  0.36143  0.96429  1.0000
  H   H261      1.0  0.25569  0.61552  0.99409  1.0000
  C   C211      1.0  0.27485  0.65264  0.82660  1.0000
  S   S59       1.0  0.33662  0.66774  0.84854  1.0000
  N   N14       1.0  0.07951  0.48360  0.75784  1.0000
  C   C212      1.0  0.10105  0.48938  0.78670  1.0000
  H   H262      1.0  0.12038  0.48077  0.72425  1.0000
  C   C213      1.0  0.04875  0.50266  0.76165  1.0000
  H   H263      1.0  0.05877  0.44117  0.73318  1.0000
  H   H264      1.0  0.30994  0.36778  0.67440  1.0000
  C   C214      1.0  0.23057  0.36524  0.73414  1.0000
  H   H265      1.0  0.34963  0.35283  0.71801  1.0000
  S   S60       1.0  0.26425  0.34903  0.87843  1.0000
  C   C215      1.0  0.29881  0.35591  0.98725  1.0000
  C   C216      1.0  0.22391  0.36385  0.76778  1.0000
  H   H266      1.0  0.09763  0.43384  0.75205  1.0000
  H   H267      1.0  0.06187  0.43724  0.77719  1.0000
  H   H268      1.0  0.11294  0.35112  0.81061  1.0000
  H   H269      1.0  0.41548  0.39183  0.91233  1.0000
  C   C217      1.0  0.01711  0.48764  0.76257  1.0000
  C   C218      1.0  0.39672  0.35431  0.96466  1.0000
  S   S61       1.0  0.04692  0.66503  0.73957  1.0000
  C   C219      1.0  0.40006  0.36954  0.90810  1.0000
  H   H270      1.0  0.40336  0.36176  0.88221  1.0000
  C   C220      1.0  0.19728  0.66104  0.95705  1.0000
  H   H271      1.0  0.19581  0.67444  0.90596  1.0000
  Fe  Fe32      1.0  0.16760  0.67376  0.71028  1.0000
  H   H272      1.0  0.17511  0.67442  0.96312  1.0000
  N   N15       1.0  0.40816  0.34306  0.93193  1.0000
  H   H273      1.0  0.07154  0.34317  0.82136  1.0000
  C   C221      1.0  0.35558  0.86230  0.47990  1.0000
  C   C222      1.0  0.22362  0.91670  0.33248  1.0000
  Fe  Fe33      1.0  0.17780  0.71822  0.38305  1.0000
  S   S62       1.0  0.14948  0.75389  0.35228  1.0000
  Fe  Fe34      1.0  0.17432  0.76251  0.44375  1.0000
  S   S63       1.0  0.14585  0.80147  0.41676  1.0000
  H   H274      1.0  0.29803  0.69083  0.25862  1.0000
  Fe  Fe35      1.0  0.11667  0.75924  0.39563  1.0000
  S   S64       1.0  0.06152  0.76150  0.38841  1.0000
  Fe  Fe36      1.0  0.18160  0.79180  0.37612  1.0000
  S   S65       1.0  0.20586  0.82880  0.34309  1.0000
  S   S66       1.0  0.14250  0.72067  0.42540  1.0000
  S   S67       1.0  0.21232  0.75583  0.40430  1.0000
  Fe  Fe37      1.0  0.39612  0.92048  0.27231  1.0000
  S   S68       1.0  0.42555  0.89509  0.31143  1.0000
  S   S69       1.0  0.39078  0.97615  0.27003  1.0000
  Fe  Fe38      1.0  0.37464  0.85483  0.24215  1.0000
  S   S70       1.0  0.40221  0.82485  0.27896  1.0000
  S   S71       1.0  0.34154  0.82913  0.20599  1.0000
  Fe  Fe39      1.0  0.38229  0.86081  0.31537  1.0000
  S   S72       1.0  0.35882  0.84413  0.36272  1.0000
  Fe  Fe40      1.0  0.44266  0.86160  0.27070  1.0000
  S   S73       1.0  0.35181  0.88862  0.27910  1.0000
  S   S74       1.0  0.41633  0.88948  0.23099  1.0000
  H   H275      1.0  0.32655  0.76689  0.33942  1.0000
  H   H276      1.0  0.07211  0.78781  0.27850  1.0000
  C   C223      1.0  0.04336  0.73376  0.36037  1.0000
  H   H277      1.0  0.25792  0.00547  0.32923  1.0000
  C   C224      1.0  0.27759  0.91526  0.35670  1.0000
  C   C225      1.0  0.47565  0.73500  0.11036  1.0000
  H   H278      1.0  0.24581  0.79006  0.47056  1.0000
  C   C226      1.0  0.24857  0.82918  0.34878  1.0000
  C   C227      1.0  0.26918  0.83185  0.32150  1.0000
  C   C228      1.0  0.30330  0.83404  0.32570  1.0000
  C   C229      1.0  0.31683  0.83553  0.35723  1.0000
  C   C230      1.0  0.29630  0.83180  0.38453  1.0000
  C   C231      1.0  0.26220  0.82827  0.38030  1.0000
  H   H279      1.0  0.25881  0.83199  0.29704  1.0000
  H   H280      1.0  0.31905  0.83494  0.30447  1.0000
  H   H281      1.0  0.30664  0.83239  0.40897  1.0000
  H   H282      1.0  0.24634  0.82615  0.40148  1.0000
  H   H283      1.0  0.50044  0.72540  0.11168  1.0000
  H   H284      1.0  0.17987  0.82563  0.27652  1.0000
  C   C232      1.0  0.40027  0.73968  0.31315  1.0000
  C   C233      1.0  0.28062  0.00439  0.28279  1.0000
  H   H285      1.0  0.28636  0.89660  0.33905  1.0000
  H   H286      1.0  0.26814  0.90146  0.37832  1.0000
  H   H287      1.0  0.25616  0.70460  0.33648  1.0000
  C   C234      1.0  0.50024  0.77317  0.01123  1.0000
  H   H288      1.0  0.41646  0.76345  0.16073  1.0000
  C   C235      1.0  0.19345  0.70541  0.26632  1.0000
  H   H289      1.0  0.19589  0.72625  0.31453  1.0000
  H   H290      1.0  0.19210  0.72909  0.25447  1.0000
  C   C236      1.0  0.34485  0.71653  0.20816  1.0000
  C   C237      1.0  0.31530  0.73313  0.20262  1.0000
  C   C238      1.0  0.31445  0.76766  0.20222  1.0000
  C   C239      1.0  0.34283  0.78592  0.20898  1.0000
  C   C240      1.0  0.37215  0.76942  0.21614  1.0000
  C   C241      1.0  0.37321  0.73480  0.21543  1.0000
  H   H291      1.0  0.29293  0.71950  0.19897  1.0000
  H   H292      1.0  0.29164  0.78024  0.19699  1.0000
  H   H293      1.0  0.39434  0.78331  0.22089  1.0000
  H   H294      1.0  0.39619  0.72222  0.21983  1.0000
  H   H295      1.0  0.08632  0.70353  0.35442  1.0000
  C   C242      1.0  0.35475  0.97572  0.32731  1.0000
  C   C243      1.0  0.24383  0.80006  0.49507  1.0000
  S   S75       1.0  0.26817  0.68101  0.15140  1.0000
  H   H296      1.0  0.06880  0.77122  0.21712  1.0000
  H   H297      1.0  0.35931  0.94949  0.32813  1.0000
  N   N16       1.0  0.37681  0.77363  0.10678  1.0000
  C   C244      1.0  0.37485  0.80510  0.12529  1.0000
  C   C245      1.0  0.35465  0.74921  0.12230  1.0000
  C   C246      1.0  0.41083  0.76071  0.10743  1.0000
  H   H298      1.0  0.34294  0.96464  0.46974  1.0000
  C   C247      1.0  0.42784  0.75712  0.13768  1.0000
  C   C248      1.0  0.06109  0.70748  0.34706  1.0000
  C   C249      1.0  0.36109  0.91686  0.45302  1.0000
  H   H299      1.0  0.42607  0.74623  0.31461  1.0000
  H   H300      1.0  0.38033  0.80211  0.15177  1.0000
  H   H301      1.0  0.39235  0.82369  0.11541  1.0000
  H   H302      1.0  0.34972  0.81588  0.12454  1.0000
  H   H303      1.0  0.36199  0.74385  0.14793  1.0000
  C   C250      1.0  0.17353  0.77683  0.20928  1.0000
  H   H304      1.0  0.35497  0.72531  0.10890  1.0000
  H   H305      1.0  0.40612  0.90876  0.38229  1.0000
  C   C251      1.0  0.36423  0.78023  0.07318  1.0000
  H   H306      1.0  0.47118  0.72841  0.05825  1.0000
  C   C252      1.0  0.26565  0.95425  0.31313  1.0000
  C   C253      1.0  0.39289  0.92080  0.40200  1.0000
  H   H307      1.0  0.20438  0.93191  0.32043  1.0000
  C   C254      1.0  0.07434  0.74605  0.22640  1.0000
  H   H308      1.0  0.20871  0.81338  0.22461  1.0000
  C   C255      1.0  0.24133  0.95993  0.36864  1.0000
  H   H309      1.0  0.30100  0.88949  0.45440  1.0000
  H   H310      1.0  0.23196  0.94633  0.39043  1.0000
  H   H311      1.0  0.38480  0.77997  0.34353  1.0000
  H   H312      1.0  0.29199  0.75240  0.26605  1.0000
  H   H313      1.0  0.33921  0.79125  0.07361  1.0000
  N   N17       1.0  0.29687  0.71688  0.30481  1.0000
  C   C256      1.0  0.33248  0.72383  0.30784  1.0000
  H   H314      1.0  0.32875  0.75795  0.12309  1.0000
  H   H315      1.0  0.25381  0.74076  0.28494  1.0000
  C   C257      1.0  0.01054  0.73838  0.35093  1.0000
  C   C258      1.0  0.34361  0.75102  0.32678  1.0000
  H   H316      1.0  0.32649  0.97637  0.37201  1.0000
  C   C259      1.0  0.19508  0.70379  0.30055  1.0000
  H   H317      1.0  0.12107  0.70138  0.24356  1.0000
  H   H318      1.0  0.30107  0.92543  0.48016  1.0000
  C   C260      1.0  0.27827  0.93581  0.28638  1.0000
  N   N18       1.0  0.34638  0.89772  0.48024  1.0000
  S   S76       1.0  0.18332  0.76899  0.49845  1.0000
  H   H319      1.0  0.34585  0.84944  0.45779  1.0000
  H   H320      1.0  0.08513  0.69776  0.26872  1.0000
  C   C261      1.0  0.33604  0.99082  0.35202  1.0000
  H   H321      1.0  0.30312  0.93670  0.23970  1.0000
  C   C262      1.0  0.07852  0.76154  0.28286  1.0000
  N   N19       1.0  0.09720  0.74747  0.25485  1.0000
  H   H322      1.0  0.49321  0.80733  0.15307  1.0000
  C   C263      1.0  0.10696  0.71346  0.26359  1.0000
  C   C264      1.0  0.28923  0.68758  0.28426  1.0000
  C   C265      1.0  0.12708  0.76661  0.24647  1.0000
  C   C266      1.0  0.14468  0.75983  0.21717  1.0000
  C   C267      1.0  0.14074  0.79083  0.26777  1.0000
  H   H323      1.0  0.12986  0.79701  0.29110  1.0000
  H   H324      1.0  0.08419  0.73126  0.20574  1.0000
  S   S77       1.0  0.49582  0.84515  0.26800  1.0000
  H   H325      1.0  0.18685  0.77060  0.18710  1.0000
  H   H326      1.0  0.40838  0.69804  0.28172  1.0000
  H   H327      1.0  0.12292  0.71328  0.28583  1.0000
  C   C268      1.0  0.35718  0.95161  0.45157  1.0000
  C   C269      1.0  0.31008  0.89970  0.47810  1.0000
  H   H328      1.0  0.34538  0.84890  0.50147  1.0000
  C   C270      1.0  0.42749  0.74995  0.07874  1.0000
  C   C271      1.0  0.39027  0.71258  0.29469  1.0000
  C   C272      1.0  0.16971  0.80755  0.25969  1.0000
  H   H329      1.0  0.13720  0.74031  0.20072  1.0000
  H   H330      1.0  0.05502  0.74811  0.28721  1.0000
  C   C273      1.0  0.18601  0.80067  0.23049  1.0000
  H   H331      1.0  0.41626  0.75067  0.05477  1.0000
  C   C274      1.0  0.35928  0.69075  0.04437  1.0000
  C   C275      1.0  0.49300  0.82294  0.20369  1.0000
  H   H332      1.0  0.27794  0.90918  0.28651  1.0000
  C   C276      1.0  0.01334  0.69108  0.31448  1.0000
  N   N20       1.0  0.25224  0.93715  0.34232  1.0000
  C   C277      1.0  0.28028  0.74564  0.28975  1.0000
  H   H333      1.0  0.35099  0.68361  0.27682  1.0000
  H   H334      1.0  0.29964  0.92927  0.36452  1.0000
  H   H335      1.0  0.38231  0.87559  0.42516  1.0000
  C   C278      1.0  0.04607  0.68625  0.32418  1.0000
  C   C279      1.0  0.45984  0.74480  0.13896  1.0000
  H   H336      1.0  0.46922  0.83467  0.20208  1.0000
  C   C280      1.0  0.37894  0.90191  0.42704  1.0000
  H   H337      1.0  0.21221  0.90401  0.35389  1.0000
  H   H338      1.0  0.05053  0.73408  0.23296  1.0000
  H   H339      1.0  0.38054  0.79755  0.05964  1.0000
  H   H340      1.0  0.28424  0.73317  0.35386  1.0000
  C   C281      1.0  0.28268  0.71107  0.33782  1.0000
  H   H341      1.0  0.36175  0.75726  0.05855  1.0000
  C   C282      1.0  0.01972  0.75741  0.48717  1.0000
  C   C283      1.0  0.37699  0.75870  0.32937  1.0000
  H   H342      1.0  0.23051  0.89676  0.31511  1.0000
  H   H343      1.0  0.38235  0.69293  0.05737  1.0000
  C   C284      1.0  0.35633  0.70382  0.01257  1.0000
  C   C285      1.0  0.35693  0.70457  0.29204  1.0000
  H   H344      1.0  0.38271  0.85913  0.48089  1.0000
  H   H345      1.0  0.47250  0.74276  0.16233  1.0000
  C   C286      1.0  0.29976  0.68446  0.01097  1.0000
  H   H346      1.0  0.29804  0.88557  0.49821  1.0000
  C   C287      1.0  0.29245  0.95131  0.25923  1.0000
  C   C288      1.0  0.36749  0.99459  0.30160  1.0000
  C   C289      1.0  0.45935  0.73716  0.08037  1.0000
  C   C290      1.0  0.38950  0.95490  0.40192  1.0000
  H   H347      1.0  0.09231  0.75973  0.30637  1.0000
  H   H348      1.0  0.28132  0.76771  0.30571  1.0000
  C   C291      1.0  0.19436  0.67667  0.24753  1.0000
  H   H349      1.0  0.29279  0.82024  0.49514  1.0000
  C   C292      1.0  0.37136  0.97027  0.42645  1.0000
  H   H350      1.0  0.26234  0.68297  0.28251  1.0000
  S   S78       1.0  0.18903  0.67926  0.20485  1.0000
  H   H351      1.0  0.04571  0.75970  0.48165  1.0000
  H   H352      1.0  0.26195  0.97585  0.37739  1.0000
  H   H353      1.0  0.36779  0.99677  0.42560  1.0000
  H   H354      1.0  0.22101  0.97612  0.36013  1.0000
  H   H355      1.0  0.29542  0.69048  0.35055  1.0000
  H   H356      1.0  0.40027  0.96938  0.38231  1.0000
  H   H357      1.0  0.49031  0.79141  0.02769  1.0000
  C   C293      1.0  0.29389  0.98553  0.25759  1.0000
  C   C294      1.0  0.26664  0.98917  0.31021  1.0000
  H   H358      1.0  0.30590  0.99743  0.23705  1.0000
  C   C295      1.0  0.50666  0.80746  0.17595  1.0000
  S   S79       1.0  0.13672  0.70107  0.74654  1.0000
  C   C296      1.0  0.23073  0.69485  0.53306  1.0000
  C   C297      1.0  0.25994  0.69938  0.61813  1.0000
  Fe  Fe41      1.0  0.37749  0.78011  0.88185  1.0000
  S   S80       1.0  0.39518  0.74341  0.84503  1.0000
  S   S81       1.0  0.35963  0.82888  0.86293  1.0000
  Fe  Fe42      1.0  0.38963  0.73411  0.93984  1.0000
  S   S82       1.0  0.40933  0.69440  0.90696  1.0000
  S   S83       1.0  0.38978  0.72546  0.99494  1.0000
  Fe  Fe43      1.0  0.43605  0.73532  0.88087  1.0000
  C   C298      1.0  0.04414  0.79595  0.70322  1.0000
  Fe  Fe44      1.0  0.36643  0.70693  0.87448  1.0000
  H   H359      1.0  0.39429  0.89567  0.76056  1.0000
  S   S84       1.0  0.42002  0.77423  0.91633  1.0000
  S   S85       1.0  0.34515  0.74431  0.90893  1.0000
  Fe  Fe45      1.0  0.33464  0.86039  0.67971  1.0000
  S   S86       1.0  0.30156  0.89793  0.70250  1.0000
  S   S87       1.0  0.37393  0.83381  0.70835  1.0000
  Fe  Fe46      1.0  0.30202  0.86672  0.61186  1.0000
  S   S88       1.0  0.26684  0.90515  0.62994  1.0000
  S   S89       1.0  0.30338  0.84918  0.55882  1.0000
  Fe  Fe47      1.0  0.31050  0.92717  0.65672  1.0000
  S   S90       1.0  0.32461  0.98162  0.65487  1.0000
  Fe  Fe48      1.0  0.26199  0.87189  0.67386  1.0000
  S   S91       1.0  0.21559  0.85345  0.69784  1.0000
  S   S92       1.0  0.34612  0.89093  0.63523  1.0000
  S   S93       1.0  0.29471  0.83231  0.65422  1.0000
  C   C299      1.0  0.36450  0.83170  0.82017  1.0000
  C   C300      1.0  0.34044  0.84730  0.80125  1.0000
  C   C301      1.0  0.34292  0.84774  0.76693  1.0000
  C   C302      1.0  0.36971  0.83299  0.75132  1.0000
  C   C303      1.0  0.39410  0.81795  0.77033  1.0000
  C   C304      1.0  0.39156  0.81741  0.80464  1.0000
  H   H360      1.0  0.31937  0.85831  0.81309  1.0000
  H   H361      1.0  0.32379  0.85910  0.75272  1.0000
  H   H362      1.0  0.41506  0.80667  0.75855  1.0000
  H   H363      1.0  0.41080  0.80626  0.81907  1.0000
  H   H364      1.0  0.25655  0.75365  0.55421  1.0000
  H   H365      1.0  0.46111  0.79780  0.85288  1.0000
  H   H366      1.0  0.41635  0.88598  0.79725  1.0000
  H   H367      1.0  0.37273  0.99262  0.76585  1.0000
  H   H368      1.0  0.31703  0.75709  0.63943  1.0000
  C   C305      1.0  0.03494  0.72715  0.66175  1.0000
  H   H369      1.0  0.46140  0.85788  0.76574  1.0000
  C   C306      1.0  0.45452  0.96470  0.73291  1.0000
  C   C307      1.0  0.20088  0.74347  0.67806  1.0000
  C   C308      1.0  0.19633  0.75622  0.70962  1.0000
  C   C309      1.0  0.20041  0.79009  0.71554  1.0000
  C   C310      1.0  0.21062  0.81112  0.69032  1.0000
  C   C311      1.0  0.21626  0.79825  0.65908  1.0000
  C   C312      1.0  0.21115  0.76464  0.65294  1.0000
  H   H370      1.0  0.18938  0.74013  0.72944  1.0000
  H   H371      1.0  0.19604  0.80004  0.73976  1.0000
  H   H372      1.0  0.22382  0.81440  0.63939  1.0000
  H   H373      1.0  0.21486  0.75537  0.62851  1.0000
  H   H374      1.0  0.29911  0.78052  0.58652  1.0000
  H   H375      1.0  0.04977  0.73758  0.64241  1.0000
  H   H376      1.0  0.40761  0.90103  0.70377  1.0000
  C   C313      1.0  0.03010  0.69217  0.71000  1.0000
  C   C314      1.0  0.28429  0.71541  0.63647  1.0000
  C   C315      1.0  0.24596  0.70890  0.85322  1.0000
  C   C316      1.0  0.32642  0.70061  0.99598  1.0000
  H   H377      1.0  0.29435  0.72105  0.87043  1.0000
  H   H378      1.0  0.23484  0.73058  0.86381  1.0000
  C   C317      1.0  0.35194  0.98687  0.71738  1.0000
  H   H379      1.0  0.06512  0.80078  0.63803  1.0000
  H   H380      1.0  0.34188  0.96270  0.72230  1.0000
  H   H381      1.0  0.03127  0.80704  0.68286  1.0000
  S   S94       1.0  0.48897  0.73287  0.86419  1.0000
  C   C318      1.0  0.21316  0.80760  0.54522  1.0000
  C   C319      1.0  0.23974  0.82493  0.55917  1.0000
  C   C320      1.0  0.26869  0.82941  0.54133  1.0000
  C   C321      1.0  0.08246  0.81893  0.64921  1.0000
  H   H382      1.0  0.13708  0.78423  0.64447  1.0000
  H   H383      1.0  0.19108  0.80381  0.55945  1.0000
  H   H384      1.0  0.23800  0.83441  0.58389  1.0000
  H   H385      1.0  0.46940  0.97352  0.75296  1.0000
  C   C322      1.0  0.50193  0.76679  0.84019  1.0000
  N   N21       1.0  0.29443  0.75121  0.76697  1.0000
  C   C323      1.0  0.32960  0.74421  0.77383  1.0000
  C   C324      1.0  0.27840  0.71940  0.75846  1.0000
  C   C325      1.0  0.29276  0.77335  0.73811  1.0000
  C   C326      1.0  0.27732  0.76703  0.79488  1.0000
  C   C327      1.0  0.29420  0.77946  0.82283  1.0000
  C   C328      1.0  0.24279  0.77160  0.79404  1.0000
  C   C329      1.0  0.27744  0.79560  0.84803  1.0000
  C   C330      1.0  0.22622  0.78756  0.81945  1.0000
  C   C331      1.0  0.24355  0.79970  0.84634  1.0000
  H   H386      1.0  0.34395  0.76726  0.77768  1.0000
  H   H387      1.0  0.33240  0.72817  0.79588  1.0000
  H   H388      1.0  0.34173  0.73134  0.75305  1.0000
  H   H389      1.0  0.29249  0.70551  0.73968  1.0000
  H   H390      1.0  0.25335  0.72253  0.74812  1.0000
  H   H391      1.0  0.27624  0.70345  0.78048  1.0000
  H   H392      1.0  0.26706  0.77792  0.73014  1.0000
  H   H393      1.0  0.30372  0.79783  0.74375  1.0000
  H   H394      1.0  0.30623  0.76315  0.71669  1.0000
  H   H395      1.0  0.32039  0.77710  0.82598  1.0000
  H   H396      1.0  0.22826  0.76271  0.77381  1.0000
  H   H397      1.0  0.29100  0.80503  0.86898  1.0000
  H   H398      1.0  0.19975  0.79021  0.81837  1.0000
  H   H399      1.0  0.23070  0.81207  0.86603  1.0000
  H   H400      1.0  0.09944  0.82701  0.62936  1.0000
  H   H401      1.0  0.45288  0.76778  0.98769  1.0000
  C   C332      1.0  0.02446  0.78327  0.72834  1.0000
  C   C333      1.0  0.41441  0.94711  0.68008  1.0000
  H   H402      1.0  0.08356  0.75138  0.77756  1.0000
  H   H403      1.0  0.06829  0.84107  0.65678  1.0000
  H   H404      1.0  0.07511  0.69977  0.68341  1.0000
  S   S95       1.0  0.19188  0.70187  0.66901  1.0000
  C   C334      1.0  0.34748  0.00125  0.68649  1.0000
  C   C335      1.0  0.42023  0.92448  0.70524  1.0000
  S   S96       1.0  0.18479  0.69532  0.82887  1.0000
  N   N22       1.0  0.10058  0.80436  0.67731  1.0000
  H   H405      1.0  0.14040  0.83921  0.67075  1.0000
  H   H406      1.0  0.10983  0.85127  0.70027  1.0000
  H   H407      1.0  0.13555  0.76477  0.68343  1.0000
  H   H408      1.0  0.02319  0.75623  0.77367  1.0000
  H   H409      1.0  0.02664  0.76028  0.53946  1.0000
  C   C336      1.0  0.19213  0.71749  0.57169  1.0000
  N   N23       1.0  0.44573  0.90840  0.75921  1.0000
  C   C337      1.0  0.12345  0.82985  0.69011  1.0000
  C   C338      1.0  0.12006  0.77638  0.66437  1.0000
  C   C339      1.0  0.07893  0.79270  0.70412  1.0000
  H   H410      1.0  0.47869  0.87832  0.73084  1.0000
  H   H411      1.0  0.43676  0.86412  0.73053  1.0000
  H   H412      1.0  0.32361  0.71102  0.97175  1.0000
  H   H413      1.0  0.49535  0.92277  0.77120  1.0000
  C   C340      1.0  0.03862  0.76710  0.75492  1.0000
  H   H414      1.0  0.40592  0.92807  0.78776  1.0000
  H   H415      1.0  0.13947  0.82036  0.71000  1.0000
  H   H416      1.0  0.10385  0.75662  0.65454  1.0000
  H   H417      1.0  0.18315  0.71787  0.59747  1.0000
  C   C341      1.0  0.28842  0.75758  0.59513  1.0000
  H   H418      1.0  0.27663  0.68264  0.99807  1.0000
  C   C342      1.0  0.09257  0.77713  0.73218  1.0000
  C   C343      1.0  0.47835  0.75985  0.98824  1.0000
  C   C344      1.0  0.47117  0.91872  0.78333  1.0000
  H   H419      1.0  0.46386  0.94131  0.79689  1.0000
  H   H420      1.0  0.11881  0.77415  0.73487  1.0000
  C   C345      1.0  0.45601  0.87594  0.74589  1.0000
  C   C346      1.0  0.07262  0.76427  0.75697  1.0000
  H   H421      1.0  0.29162  0.70560  0.66007  1.0000
  C   C347      1.0  0.41430  0.90432  0.77702  1.0000
  C   C348      1.0  0.44088  0.93239  0.73226  1.0000
  C   C349      1.0  0.29850  0.74443  0.62499  1.0000
  C   C350      1.0  0.22668  0.68683  0.83516  1.0000
  H   H422      1.0  0.17171  0.70844  0.55584  1.0000
  H   H423      1.0  0.48266  0.84651  0.82341  1.0000
  H   H424      1.0  0.19685  0.74341  0.56442  1.0000
  C   C351      1.0  0.26406  0.74181  0.57666  1.0000
  C   C352      1.0  0.48404  0.79615  0.83966  1.0000
  C   C353      1.0  0.27975  0.70342  0.85712  1.0000
  N   N24       1.0  0.22194  0.69691  0.56839  1.0000
  C   C354      1.0  0.04928  0.70574  0.68491  1.0000
  C   C355      1.0  0.24906  0.71212  0.58748  1.0000
  C   C356      1.0  0.49641  0.82385  0.82296  1.0000
  C   C357      1.0  0.42852  0.97835  0.68125  1.0000
  H   H425      1.0  0.47531  0.89952  0.80235  1.0000
  H   H426      1.0  0.39787  0.94085  0.66015  1.0000
  C   C358      1.0  0.21521  0.79475  0.51327  1.0000
  H   H427      1.0  0.47172  0.72576  0.94834  1.0000
  H   H428      1.0  0.25496  0.68271  0.52965  1.0000
  C   C359      1.0  0.27050  0.81716  0.50913  1.0000
  H   H429      1.0  0.23173  0.71944  0.52108  1.0000
  C   C360      1.0  0.44832  0.98722  0.70770  1.0000
  H   H430      1.0  0.50551  0.81539  0.91128  1.0000
  C   C361      1.0  0.48884  0.73602  0.96608  1.0000
  C   C362      1.0  0.36938  0.00392  0.74207  1.0000
  H   H431      1.0  0.42305  0.99615  0.66223  1.0000
  H   H432      1.0  0.21206  0.68090  0.51863  1.0000
  H   H433      1.0  0.24926  0.67768  0.62911  1.0000
  H   H434      1.0  0.34841  0.89632  0.53327  1.0000
  H   H435      1.0  0.34744  0.93662  0.51684  1.0000
  C   C363      1.0  0.29436  0.67540  0.84366  1.0000
  H   H436      1.0  0.38447  0.91269  0.51383  1.0000
  C   C364      1.0  0.00906  0.75778  0.51962  1.0000
  C   C365      1.0  0.35719  0.91152  0.51226  1.0000
  Fe  Fe49      1.0  0.65270  0.11913  0.25290  1.0000
  S   S97       1.0  0.61809  0.13886  0.29098  1.0000
  S   S98       1.0  0.66833  0.06545  0.25087  1.0000
  Fe  Fe50      1.0  0.65995  0.18663  0.21951  1.0000
  S   S99       1.0  0.62624  0.21129  0.25536  1.0000
  S   S100      1.0  0.68736  0.21267  0.17873  1.0000
  Fe  Fe51      1.0  0.65331  0.18155  0.29309  1.0000
  S   S101      1.0  0.67427  0.20568  0.33824  1.0000
  Fe  Fe52      1.0  0.59428  0.16664  0.24916  1.0000
  S   S102      1.0  0.53897  0.16785  0.24041  1.0000
  S   S103      1.0  0.68929  0.16015  0.25772  1.0000
  S   S104      1.0  0.62643  0.14348  0.21072  1.0000
  H   H437      1.0  0.55765  0.23722  0.23617  1.0000
  Fe  Fe53      1.0  0.92151  0.24842  0.38344  1.0000
  C   C366      1.0  0.94885  0.26272  0.27261  1.0000
  Fe  Fe54      1.0  0.85421  0.21416  0.38004  1.0000
  S   S105      1.0  0.83141  0.25036  0.41471  1.0000
  S   S106      1.0  0.82475  0.17210  0.35843  1.0000
  Fe  Fe55      1.0  0.85903  0.28790  0.38499  1.0000
  Fe  Fe56      1.0  0.87774  0.24525  0.44378  1.0000
  C   C367      1.0  0.64202  0.20725  0.07790  1.0000
  S   S107      1.0  0.87903  0.25191  0.34841  1.0000
  S   S108      1.0  0.89897  0.20629  0.41128  1.0000
  H   H438      1.0  0.81487  0.22331  0.47920  1.0000
  H   H439      1.0  0.95797  0.32081  0.16391  1.0000
  C   C368      1.0  0.98839  0.33508  0.32654  1.0000
  H   H440      1.0  0.89127  0.31901  0.32765  1.0000
  H   H441      1.0  0.64383  0.30660  0.10737  1.0000
  H   H442      1.0  0.96233  0.24905  0.43891  1.0000
  C   C369      1.0  0.72067  0.11872  0.42500  1.0000
  C   C370      1.0  0.70147  0.01607  0.28291  1.0000
  H   H443      1.0  0.91035  0.30166  0.19497  1.0000
  S   S109      1.0  0.88234  0.23651  0.49839  1.0000
  C   C371      1.0  0.99317  0.28105  0.35171  1.0000
  C   C372      1.0  0.69183  0.04926  0.28353  1.0000
  C   C373      1.0  0.70150  0.06908  0.30983  1.0000
  C   C374      1.0  0.72080  0.05589  0.33522  1.0000
  C   C375      1.0  0.68158  0.25051  0.08361  1.0000
  H   H444      1.0  0.98498  0.27697  0.46451  1.0000
  H   H445      1.0  0.69420  0.09462  0.31043  1.0000
  H   H446      1.0  0.72875  0.07172  0.35500  1.0000
  C   C376      1.0  0.75086  0.12072  0.47643  1.0000
  C   C377      1.0  0.69098  0.25580  0.18283  1.0000
  C   C378      1.0  0.67353  0.27292  0.20686  1.0000
  C   C379      1.0  0.67730  0.30709  0.21033  1.0000
  C   C380      1.0  0.69891  0.32439  0.18996  1.0000
  C   C381      1.0  0.71561  0.30752  0.16521  1.0000
  C   C382      1.0  0.71201  0.27329  0.16194  1.0000
  H   H447      1.0  0.65689  0.26005  0.22271  1.0000
  H   H448      1.0  0.66394  0.32003  0.22927  1.0000
  H   H449      1.0  0.73115  0.32078  0.14840  1.0000
  H   H450      1.0  0.72614  0.26039  0.14364  1.0000
  C   C383      1.0  0.71592  0.19606  0.34384  1.0000
  C   C384      1.0  0.72818  0.16522  0.33492  1.0000
  C   C385      1.0  0.76154  0.15790  0.33945  1.0000
  C   C386      1.0  0.78309  0.18183  0.35184  1.0000
  C   C387      1.0  0.77084  0.21289  0.36010  1.0000
  C   C388      1.0  0.73723  0.21967  0.35703  1.0000
  H   H451      1.0  0.71170  0.14669  0.32538  1.0000
  H   H452      1.0  0.77039  0.13361  0.33344  1.0000
  H   H453      1.0  0.78711  0.23180  0.36889  1.0000
  H   H454      1.0  0.72786  0.24357  0.36409  1.0000
  C   C389      1.0  0.70936  0.31925  0.01425  1.0000
  C   C390      1.0  0.72978  0.02251  0.33508  1.0000
  H   H455      1.0  0.80397  0.28918  0.29685  1.0000
  C   C391      1.0  0.88099  0.33762  0.27928  1.0000
  H   H456      1.0  0.64350  0.08507  0.37775  1.0000
  C   C392      1.0  0.53497  0.23376  0.22279  1.0000
  H   H457      1.0  0.73528  0.17979  0.45304  1.0000
  H   H458      1.0  0.53072  0.28504  0.20928  1.0000
  S   S110      1.0  0.90322  0.28717  0.41798  1.0000
  N   N25       1.0  0.82358  0.06599  0.30675  1.0000
  H   H459      1.0  0.83094  0.01389  0.31591  1.0000
  C   C393      1.0  0.85965  0.07000  0.30257  1.0000
  C   C394      1.0  0.81501  0.07359  0.34120  1.0000
  C   C395      1.0  0.80539  0.08876  0.28489  1.0000
  C   C396      1.0  0.77676  0.07898  0.26733  1.0000
  C   C397      1.0  0.81477  0.12242  0.28237  1.0000
  C   C398      1.0  0.75960  0.10123  0.24755  1.0000
  C   C399      1.0  0.79751  0.14442  0.26241  1.0000
  C   C400      1.0  0.77017  0.13376  0.24478  1.0000
  C   C401      1.0  0.91936  0.25095  0.25984  1.0000
  H   H460      1.0  0.65354  0.19941  0.05442  1.0000
  H   H461      1.0  0.95853  0.18927  0.45454  1.0000
  H   H462      1.0  0.86884  0.09395  0.31214  1.0000
  N   N26       1.0  0.64587  0.24323  0.08350  1.0000
  H   H463      1.0  0.87365  0.05092  0.31634  1.0000
  H   H464      1.0  0.78809  0.07124  0.34523  1.0000
  H   H465      1.0  0.94676  0.25946  0.47804  1.0000
  H   H466      1.0  0.82210  0.09920  0.34806  1.0000
  C   C402      1.0  0.81581  0.03071  0.30051  1.0000
  H   H467      1.0  0.83474  0.13243  0.29675  1.0000
  H   H468      1.0  0.73747  0.09330  0.23480  1.0000
  H   H469      1.0  0.75664  0.15090  0.22953  1.0000
  H   H470      1.0  0.76836  0.32879  0.26838  1.0000
  H   H471      1.0  0.95881  0.25193  0.29486  1.0000
  C   C403      1.0  0.92253  0.29116  0.21603  1.0000
  H   H472      1.0  0.86664  0.06808  0.27626  1.0000
  H   H473      1.0  0.81273  0.24294  0.15793  1.0000
  H   H474      1.0  0.77899  0.17468  0.45142  1.0000
  H   H475      1.0  0.88302  0.25620  0.22204  1.0000
  H   H476      1.0  0.81060  0.30472  0.24244  1.0000
  N   N27       1.0  0.75772  0.27668  0.27360  1.0000
  C   C404      1.0  0.72824  0.25697  0.28249  1.0000
  C   C405      1.0  0.78202  0.27328  0.30052  1.0000
  C   C406      1.0  0.77294  0.26638  0.24228  1.0000
  C   C407      1.0  0.76145  0.23906  0.22364  1.0000
  C   C408      1.0  0.77594  0.23067  0.19372  1.0000
  H   H477      1.0  0.58867  0.22814  0.18232  1.0000
  H   H478      1.0  0.73430  0.23050  0.28603  1.0000
  H   H479      1.0  0.71693  0.26549  0.30584  1.0000
  H   H480      1.0  0.70873  0.25888  0.26346  1.0000
  H   H481      1.0  0.79082  0.24742  0.30254  1.0000
  H   H482      1.0  0.77145  0.28047  0.32466  1.0000
  C   C409      1.0  0.70695  0.33262  0.04595  1.0000
  H   H483      1.0  0.74055  0.22435  0.23097  1.0000
  H   H484      1.0  0.76574  0.21058  0.17934  1.0000
  C   C410      1.0  0.80034  0.28388  0.22957  1.0000
  C   C411      1.0  0.75543  0.16675  0.43999  1.0000
  H   H485      1.0  0.80486  0.17009  0.26131  1.0000
  H   H486      1.0  0.61815  0.32641  0.15760  1.0000
  H   H487      1.0  0.63594  0.28733  0.05536  1.0000
  C   C412      1.0  0.97417  0.30851  0.34358  1.0000
  H   H488      1.0  0.94837  0.30899  0.34982  1.0000
  H   H489      1.0  0.61375  0.20692  0.13337  1.0000
  H   H490      1.0  0.69328  0.24400  0.05980  1.0000
  C   C413      1.0  0.95268  0.30391  0.22852  1.0000
  C   C414      1.0  0.61486  0.23324  0.13687  1.0000
  H   H491      1.0  0.75638  0.17571  0.41432  1.0000
  C   C415      1.0  0.95660  0.34202  0.18114  1.0000
  H   H492      1.0  0.63952  0.25105  0.03143  1.0000
  C   C416      1.0  0.71301  0.08456  0.42423  1.0000
  H   H493      1.0  0.68046  0.04641  0.40673  1.0000
  C   C417      1.0  0.96987  0.25412  0.46464  1.0000
  H   H494      1.0  0.72885  0.06658  0.43568  1.0000
  H   H495      1.0  0.78024  0.08813  0.42728  1.0000
  C   C418      1.0  0.66446  0.09440  0.39135  1.0000
  H   H496      1.0  0.82721  0.05645  0.35868  1.0000
  H   H497      1.0  0.68346  0.33285  0.05829  1.0000
  C   C419      1.0  0.69846  0.14025  0.40870  1.0000
  C   C420      1.0  0.00522  0.32689  0.21075  1.0000
  C   C421      1.0  0.96528  0.28878  0.25730  1.0000
  C   C422      1.0  0.87359  0.33145  0.31227  1.0000
  C   C423      1.0  0.78004  0.11542  0.42513  1.0000
  H   H498      1.0  0.83475  0.29000  0.19003  1.0000
  N   N28       1.0  0.75109  0.13043  0.44133  1.0000
  C   C424      1.0  0.63156  0.28879  0.12279  1.0000
  C   C425      1.0  0.81459  0.27537  0.19961  1.0000
  C   C426      1.0  0.68523  0.07271  0.40776  1.0000
  H   H499      1.0  0.78047  0.12160  0.39852  1.0000
  H   H500      1.0  0.65419  0.19275  0.09771  1.0000
  H   H501      1.0  0.61564  0.20005  0.07666  1.0000
  S   S111      1.0  0.97557  0.24627  0.37090  1.0000
  C   C427      1.0  0.80225  0.24895  0.18158  1.0000
  C   C428      1.0  0.63041  0.26049  0.05540  1.0000
  C   C429      1.0  0.60024  0.24518  0.16544  1.0000
  H   H502      1.0  0.70192  0.16662  0.40787  1.0000
  H   H503      1.0  0.90644  0.23112  0.27215  1.0000
  H   H504      1.0  0.75057  0.09359  0.47986  1.0000
  H   H505      1.0  0.90418  0.32952  0.26963  1.0000
  H   H506      1.0  0.65502  0.14494  0.37880  1.0000
  C   C430      1.0  0.74738  0.31166  0.27152  1.0000
  C   C431      1.0  0.76760  0.33282  0.01428  1.0000
  C   C432      1.0  0.63087  0.25480  0.11449  1.0000
  H   H507      1.0  0.72897  0.13087  0.48930  1.0000
  H   H508      1.0  0.77296  0.13001  0.48975  1.0000
  H   H509      1.0  0.60323  0.25756  0.05578  1.0000
  C   C433      1.0  0.90628  0.26506  0.23157  1.0000
  H   H510      1.0  0.73419  0.31978  0.29399  1.0000
  C   C434      1.0  0.67101  0.12807  0.39193  1.0000
  H   H511      1.0  0.73071  0.31566  0.25030  1.0000
  C   C435      1.0  0.51960  0.26087  0.20768  1.0000
  H   H512      1.0  0.80354  0.12449  0.43594  1.0000
  C   C436      1.0  0.52074  0.20241  0.22093  1.0000
  C   C437      1.0  0.60101  0.27870  0.17263  1.0000
  H   H513      1.0  0.59005  0.28771  0.19508  1.0000
  H   H514      1.0  0.69417  0.23640  0.10334  1.0000
  H   H515      1.0  0.68698  0.27701  0.08781  1.0000
  C   C438      1.0  0.61677  0.30046  0.15143  1.0000
  S   S112      1.0  0.83361  0.33331  0.36632  1.0000
  N   N29       1.0  0.98827  0.22603  0.47886  1.0000
  N   N30       1.0  0.96937  0.33301  0.21411  1.0000
  H   H516      1.0  0.81988  0.02407  0.27436  1.0000
  H   H517      1.0  0.98760  0.29742  0.26875  1.0000
  H   H518      1.0  0.79008  0.02455  0.30704  1.0000
  C   C439      1.0  0.96642  0.19674  0.47965  1.0000
  H   H519      1.0  0.76660  0.05443  0.26888  1.0000
  C   C440      1.0  0.81949  0.21125  0.50234  1.0000
  H   H520      1.0  0.94348  0.20133  0.49370  1.0000
  C   C441      1.0  0.84371  0.34189  0.32541  1.0000
  H   H521      1.0  0.97889  0.17533  0.49124  1.0000
  H   H522      1.0  0.00690  0.21350  0.43081  1.0000
  H   H523      1.0  0.70658  0.32823  0.78136  1.0000
  C   C442      1.0  0.73231  0.32245  0.77775  1.0000
  C   C443      1.0  0.86984  0.24594  0.61881  1.0000
  H   H524      1.0  0.75226  0.23953  0.82640  1.0000
  Fe  Fe57      1.0  0.73650  0.15073  0.68690  1.0000
  S   S113      1.0  0.77739  0.12567  0.71378  1.0000
  S   S114      1.0  0.69213  0.17127  0.71297  1.0000
  Fe  Fe58      1.0  0.77089  0.14366  0.62043  1.0000
  S   S115      1.0  0.81397  0.11758  0.64285  1.0000
  S   S116      1.0  0.76708  0.15592  0.56632  1.0000
  Fe  Fe59      1.0  0.77601  0.08955  0.67213  1.0000
  S   S117      1.0  0.77797  0.03426  0.68144  1.0000
  Fe  Fe60      1.0  0.81038  0.15651  0.68209  1.0000
  S   S118      1.0  0.85469  0.18289  0.70339  1.0000
  S   S119      1.0  0.73302  0.11292  0.64676  1.0000
  S   S120      1.0  0.76943  0.18403  0.65779  1.0000
  Fe  Fe61      1.0  0.69464  0.32176  0.87571  1.0000
  S   S121      1.0  0.71737  0.28490  0.90967  1.0000
  H   H525      1.0  0.85215  0.27525  0.54728  1.0000
  Fe  Fe62      1.0  0.62612  0.28966  0.88054  1.0000
  S   S122      1.0  0.64410  0.25135  0.91595  1.0000
  S   S123      1.0  0.57235  0.29052  0.86478  1.0000
  Fe  Fe63      1.0  0.67252  0.29249  0.94035  1.0000
  H   H526      1.0  0.82201  0.30729  0.54532  1.0000
  Fe  Fe64      1.0  0.68705  0.24801  0.88160  1.0000
  S   S124      1.0  0.70856  0.19976  0.86487  1.0000
  C   C444      1.0  0.89306  0.30087  0.61748  1.0000
  S   S125      1.0  0.66789  0.28449  0.84503  1.0000
  C   C445      1.0  0.79941  0.17856  0.54835  1.0000
  C   C446      1.0  0.83033  0.18105  0.56321  1.0000
  C   C447      1.0  0.85576  0.19865  0.54759  1.0000
  C   C448      1.0  0.81548  0.32381  0.85886  1.0000
  C   C449      1.0  0.74366  0.01673  0.70157  1.0000
  C   C450      1.0  0.51269  0.23651  0.80500  1.0000
  H   H527      1.0  0.83471  0.16924  0.58659  1.0000
  H   H528      1.0  0.87961  0.20050  0.55919  1.0000
  C   C451      1.0  0.82562  0.24567  0.78777  1.0000
  C   C452      1.0  0.69606  0.17800  0.75547  1.0000
  C   C453      1.0  0.71925  0.16090  0.77418  1.0000
  C   C454      1.0  0.72236  0.16711  0.80791  1.0000
  C   C455      1.0  0.70219  0.19037  0.82318  1.0000
  C   C456      1.0  0.67797  0.20634  0.80479  1.0000
  C   C457      1.0  0.67494  0.20022  0.77104  1.0000
  H   H529      1.0  0.73465  0.14266  0.76287  1.0000
  H   H530      1.0  0.74073  0.15417  0.82209  1.0000
  H   H531      1.0  0.66124  0.22310  0.81654  1.0000
  H   H532      1.0  0.65636  0.21298  0.75693  1.0000
  H   H533      1.0  0.78080  0.23249  0.74022  1.0000
  H   H534      1.0  0.98232  0.25852  0.73577  1.0000
  C   C458      1.0  0.71320  0.03255  0.70138  1.0000
  C   C459      1.0  0.68580  0.01749  0.71606  1.0000
  H   H535      1.0  0.71061  0.05617  0.68944  1.0000
  H   H536      1.0  0.66218  0.02943  0.71481  1.0000
  H   H537      1.0  0.80243  0.26234  0.62183  1.0000
  H   H538      1.0  0.52183  0.01415  0.76426  1.0000
  H   H539      1.0  0.72614  0.27282  0.79293  1.0000
  H   H540      1.0  0.74730  0.22537  0.76752  1.0000
  C   C460      1.0  0.54091  0.03279  0.76414  1.0000
  C   C461      1.0  0.84380  0.29835  0.55920  1.0000
  C   C462      1.0  0.00482  0.26745  0.74695  1.0000
  H   H541      1.0  0.60217  0.23105  0.83798  1.0000
  H   H542      1.0  0.54973  0.11517  0.77184  1.0000
  H   H543      1.0  0.83485  0.25033  0.76260  1.0000
  C   C463      1.0  0.85940  0.29560  0.69854  1.0000
  C   C464      1.0  0.88611  0.27754  0.71045  1.0000
  C   C465      1.0  0.88417  0.24300  0.71263  1.0000
  C   C466      1.0  0.85566  0.22633  0.70257  1.0000
  C   C467      1.0  0.82862  0.24458  0.69190  1.0000
  C   C468      1.0  0.83038  0.27903  0.69015  1.0000
  H   H544      1.0  0.90881  0.28993  0.71645  1.0000
  H   H545      1.0  0.90517  0.22910  0.72108  1.0000
  H   H546      1.0  0.80627  0.23231  0.68505  1.0000
  H   H547      1.0  0.80911  0.29279  0.68224  1.0000
  C   C469      1.0  0.55778  0.25970  0.83752  1.0000
  H   H548      1.0  0.51744  0.19331  0.90971  1.0000
  H   H549      1.0  0.78751  0.21438  0.82960  1.0000
  C   C470      1.0  0.77929  0.23972  0.82319  1.0000
  C   C471      1.0  0.56455  0.20792  0.80826  1.0000
  C   C472      1.0  0.57727  0.23277  0.82882  1.0000
  C   C473      1.0  0.74394  0.29091  0.78493  1.0000
  H   H550      1.0  0.57997  0.18746  0.80147  1.0000
  N   N31       1.0  0.61646  0.10787  0.76324  1.0000
  C   C474      1.0  0.60686  0.13527  0.74099  1.0000
  C   C475      1.0  0.62022  0.12109  0.79689  1.0000
  C   C476      1.0  0.64911  0.09590  0.75221  1.0000
  C   C477      1.0  0.59089  0.08180  0.76333  1.0000
  H   H551      1.0  0.94572  0.24703  0.65375  1.0000
  C   C478      1.0  0.59842  0.04772  0.76029  1.0000
  H   H552      1.0  0.89238  0.32679  0.61169  1.0000
  H   H553      1.0  0.79116  0.33200  0.00222  1.0000
  H   H554      1.0  0.82653  0.30092  0.86670  1.0000
  H   H555      1.0  0.58530  0.14936  0.75001  1.0000
  H   H556      1.0  0.62686  0.15386  0.73831  1.0000
  H   H557      1.0  0.60097  0.12594  0.71600  1.0000
  H   H558      1.0  0.59679  0.13141  0.80634  1.0000
  H   H559      1.0  0.63891  0.14122  0.79788  1.0000
  H   H560      1.0  0.62812  0.10149  0.81427  1.0000
  H   H561      1.0  0.64772  0.08528  0.72711  1.0000
  H   H562      1.0  0.66749  0.11615  0.75109  1.0000
  H   H563      1.0  0.65975  0.07743  0.76933  1.0000
  C   C479      1.0  0.53275  0.06585  0.76804  1.0000
  H   H564      1.0  0.62323  0.03875  0.75791  1.0000
  C   C480      1.0  0.97536  0.24348  0.53659  1.0000
  H   H565      1.0  0.51016  0.23830  0.94675  1.0000
  C   C481      1.0  0.92142  0.28914  0.63291  1.0000
  C   C482      1.0  0.80775  0.26947  0.59598  1.0000
  H   H566      1.0  0.78311  0.20007  0.77004  1.0000
  H   H567      1.0  0.81200  0.24668  0.58144  1.0000
  S   S126      1.0  0.92642  0.33951  0.76325  1.0000
  C   C483      1.0  0.53206  0.20938  0.79667  1.0000
  H   H568      1.0  0.76987  0.19304  0.50715  1.0000
  C   C484      1.0  0.77453  0.22577  0.76588  1.0000
  N   N32       1.0  0.83611  0.29260  0.59419  1.0000
  H   H569      1.0  0.78955  0.25698  0.84171  1.0000
  H   H570      1.0  0.90027  0.20863  0.64076  1.0000
  H   H571      1.0  0.83363  0.22024  0.79411  1.0000
  C   C485      1.0  0.77775  0.28292  0.78184  1.0000
  H   H572      1.0  0.80134  0.33268  0.59899  1.0000
  H   H573      1.0  0.76610  0.30779  0.86887  1.0000
  H   H574      1.0  0.51735  0.23434  0.89214  1.0000
  H   H575      1.0  0.85074  0.22791  0.61477  1.0000
  H   H576      1.0  0.51049  0.28263  0.83102  1.0000
  C   C486      1.0  0.99890  0.23418  0.51266  1.0000
  H   H577      1.0  0.96627  0.25872  0.58627  1.0000
  C   C487      1.0  0.86596  0.27980  0.61070  1.0000
  C   C488      1.0  0.79894  0.30817  0.76996  1.0000
  H   H578      1.0  0.83824  0.26295  0.80493  1.0000
  C   C489      1.0  0.92411  0.25595  0.64105  1.0000
  C   C490      1.0  0.52555  0.26160  0.82520  1.0000
  H   H579      1.0  0.51176  0.32520  0.98005  1.0000
  N   N33       1.0  0.78937  0.24924  0.78952  1.0000
  C   C491      1.0  0.89855  0.23434  0.63363  1.0000
  S   S127      1.0  0.65082  0.33140  0.90774  1.0000
  H   H580      1.0  0.74217  0.30876  0.97433  1.0000
  H   H581      1.0  0.82496  0.30457  0.76635  1.0000
  S   S128      1.0  0.51654  0.17693  0.77197  1.0000
  C   C492      1.0  0.98469  0.25147  0.56861  1.0000
  C   C493      1.0  0.85048  0.21354  0.51697  1.0000
  H   H582      1.0  0.53814  0.31635  0.92607  1.0000
  C   C494      1.0  0.55732  0.08999  0.76799  1.0000
  C   C495      1.0  0.78122  0.32774  0.86028  1.0000
  C   C496      1.0  0.79404  0.19403  0.51811  1.0000
  C   C497      1.0  0.00373  0.28407  0.77677  1.0000
  H   H583      1.0  0.98487  0.33743  0.70334  1.0000
  H   H584      1.0  0.94107  0.30608  0.63926  1.0000
  H   H585      1.0  0.78490  0.28035  0.58566  1.0000
  H   H586      1.0  0.83885  0.34173  0.95780  1.0000
  S   S129      1.0  0.67393  0.30230  0.99531  1.0000
  H   H587      1.0  0.98029  0.28792  0.78879  1.0000
  H   H588      1.0  0.94942  0.24445  0.53077  1.0000
  C   C498      1.0  0.51198  0.32130  0.92758  1.0000
  S   S130      1.0  0.86239  0.33838  0.69157  1.0000
  H   H589      1.0  0.86385  0.31673  0.55607  1.0000
  C   C499      1.0  0.57370  0.02373  0.76051  1.0000
  C   C500      1.0  0.82538  0.32431  0.60892  1.0000
  H   H590      1.0  0.82273  0.32209  0.63590  1.0000
  H   H591      1.0  0.51101  0.19940  0.86673  1.0000
  C   C501      1.0  0.73985  0.31942  0.99849  1.0000
  C   C502      1.0  0.78688  0.33945  0.76227  1.0000
  H   H592      1.0  0.50723  0.07293  0.77122  1.0000
  Fe  Fe65      1.0  0.75367  0.38507  0.17610  1.0000
  C   C503      1.0  0.82875  0.36475  0.27238  1.0000
  Fe  Fe66      1.0  0.79676  0.44465  0.16087  1.0000
  S   S131      1.0  0.83719  0.41254  0.14144  1.0000
  S   S132      1.0  0.80490  0.49999  0.16088  1.0000
  Fe  Fe67      1.0  0.79686  0.38370  0.11640  1.0000
  S   S133      1.0  0.86784  0.36006  0.21726  1.0000
  Fe  Fe68      1.0  0.82712  0.38133  0.18583  1.0000
  H   H593      1.0  0.84131  0.44724  0.27039  1.0000
  S   S134      1.0  0.75708  0.41837  0.13225  1.0000
  S   S135      1.0  0.78889  0.41503  0.20647  1.0000
  H   H594      1.0  0.84794  0.43049  0.32369  1.0000
  H   H595      1.0  0.97322  0.35580  0.31984  1.0000
  Fe  Fe69      1.0  0.87868  0.62305  0.28640  1.0000
  S   S136      1.0  0.90894  0.63981  0.24359  1.0000
  S   S137      1.0  0.85715  0.57135  0.29000  1.0000
  C   C504      1.0  0.96456  0.36171  0.23603  1.0000
  C   C505      1.0  0.87508  0.42867  0.32075  1.0000
  C   C506      1.0  0.73468  0.34630  0.06165  1.0000
  Fe  Fe70      1.0  0.94017  0.66628  0.28114  1.0000
  S   S138      1.0  0.91221  0.64614  0.32411  1.0000
  H   H596      1.0  0.87434  0.42354  0.25346  1.0000
  C   C507      1.0  0.93829  0.46532  0.26266  1.0000
  N   N34       1.0  0.88783  0.45223  0.29589  1.0000
  H   H597      1.0  0.79843  0.36740  0.31568  1.0000
  H   H598      1.0  0.93542  0.41556  0.33046  1.0000
  H   H599      1.0  0.88042  0.40279  0.31359  1.0000
  S   S139      1.0  0.79150  0.34903  0.15892  1.0000
  H   H600      1.0  0.77712  0.58618  0.28392  1.0000
  H   H601      1.0  0.81107  0.37714  0.25719  1.0000
  C   C508      1.0  0.82042  0.51897  0.19679  1.0000
  C   C509      1.0  0.83803  0.54866  0.19437  1.0000
  C   C510      1.0  0.84943  0.56494  0.22269  1.0000
  C   C511      1.0  0.84309  0.55179  0.25374  1.0000
  C   C512      1.0  0.82510  0.52231  0.25614  1.0000
  C   C513      1.0  0.81409  0.50580  0.22783  1.0000
  H   H602      1.0  0.84313  0.55908  0.17051  1.0000
  H   H603      1.0  0.86293  0.58776  0.22042  1.0000
  H   H604      1.0  0.81874  0.51271  0.27998  1.0000
  H   H605      1.0  0.79966  0.48356  0.23008  1.0000
  H   H606      1.0  0.88844  0.50513  0.28968  1.0000
  N   N35       1.0  0.74503  0.58494  0.15528  1.0000
  C   C514      1.0  0.72714  0.55494  0.14430  1.0000
  C   C515      1.0  0.72385  0.61378  0.14825  1.0000
  C   C516      1.0  0.77536  0.58759  0.13529  1.0000
  C   C517      1.0  0.75359  0.58461  0.19060  1.0000
  C   C518      1.0  0.77116  0.61136  0.20466  1.0000
  C   C519      1.0  0.74451  0.55848  0.21206  1.0000
  C   C520      1.0  0.77929  0.61186  0.23793  1.0000
  C   C521      1.0  0.75246  0.55947  0.24543  1.0000
  C   C522      1.0  0.76991  0.58604  0.25831  1.0000
  H   H607      1.0  0.72144  0.55574  0.11761  1.0000
  H   H608      1.0  0.74216  0.53235  0.14830  1.0000
  H   H609      1.0  0.70331  0.55211  0.15734  1.0000
  H   H610      1.0  0.70200  0.61427  0.16468  1.0000
  H   H611      1.0  0.71499  0.61401  0.12242  1.0000
  H   H612      1.0  0.73703  0.63743  0.15203  1.0000
  H   H613      1.0  0.78932  0.61061  0.14023  1.0000
  H   H614      1.0  0.79212  0.56659  0.14036  1.0000
  H   H615      1.0  0.76988  0.58739  0.10855  1.0000
  H   H616      1.0  0.77896  0.63207  0.18997  1.0000
  H   H617      1.0  0.73185  0.53668  0.20363  1.0000
  H   H618      1.0  0.79345  0.63214  0.24784  1.0000
  H   H619      1.0  0.74594  0.53902  0.26122  1.0000
  C   C523      1.0  0.82155  0.35910  0.30556  1.0000
  C   C524      1.0  0.88241  0.48605  0.30837  1.0000
  H   H620      1.0  0.89801  0.49130  0.33021  1.0000
  H   H621      1.0  0.97411  0.35690  0.26107  1.0000
  H   H622      1.0  0.87203  0.46725  0.24715  1.0000
  C   C525      1.0  0.94429  0.42900  0.30940  1.0000
  C   C526      1.0  0.85841  0.35381  0.25900  1.0000
  C   C527      1.0  0.99175  0.44343  0.27663  1.0000
  C   C528      1.0  0.86821  0.44736  0.26547  1.0000
  C   C529      1.0  0.92329  0.44810  0.28904  1.0000
  H   H623      1.0  0.85645  0.49008  0.31576  1.0000
  H   H624      1.0  0.92419  0.48155  0.24704  1.0000
  H   H625      1.0  0.88559  0.43335  0.34553  1.0000
  S   S140      1.0  0.70610  0.36652  0.19725  1.0000
  C   C530      1.0  0.97799  0.42708  0.30329  1.0000
  C   C531      1.0  0.97194  0.46260  0.25637  1.0000
  H   H626      1.0  0.97757  0.38400  0.22685  1.0000
  S   S141      1.0  0.80025  0.36510  0.06385  1.0000
  S   S142      1.0  0.84495  0.66663  0.28623  1.0000
  S   S143      1.0  0.99593  0.66544  0.28400  1.0000
  H   H627      1.0  0.98279  0.47590  0.23600  1.0000
  H   H628      1.0  0.73242  0.35679  0.08594  1.0000
  H   H629      1.0  0.93805  0.36793  0.23848  1.0000
  H   H630      1.0  0.72366  0.39868  0.01263  1.0000
  H   H631      1.0  0.99371  0.41291  0.31948  1.0000
  C   C532      1.0  0.76512  0.34665  0.04576  1.0000
  H   H632      1.0  0.74443  0.45568  0.00732  1.0000
  H   H633      1.0  0.97070  0.36276  0.17009  1.0000
  H   H634      1.0  0.93069  0.35076  0.18228  1.0000
  Fe  Fe71      1.0  0.95960  0.38347  0.75727  1.0000
  S   S144      1.0  0.92803  0.40836  0.71946  1.0000
  Fe  Fe72      1.0  0.90032  0.36922  0.80159  1.0000
  S   S145      1.0  0.86526  0.39314  0.76688  1.0000
  Fe  Fe73      1.0  0.89327  0.36602  0.72834  1.0000
  Fe  Fe74      1.0  0.90328  0.43274  0.76252  1.0000
  S   S146      1.0  0.89314  0.48769  0.76515  1.0000
  S   S147      1.0  0.93710  0.41058  0.80000  1.0000
  C   C533      1.0  0.72159  0.41153  0.98938  1.0000
  S   S148      1.0  0.77396  0.62417  0.82171  1.0000
  C   C534      1.0  0.87662  0.44352  0.88276  1.0000
  Fe  Fe75      1.0  0.77552  0.65130  0.91332  1.0000
  S   S149      1.0  0.73518  0.61959  0.89256  1.0000
  H   H635      1.0  0.74473  0.37122  0.76132  1.0000
  Fe  Fe76      1.0  0.77601  0.59230  0.86656  1.0000
  S   S150      1.0  0.77975  0.53674  0.86099  1.0000
  H   H636      1.0  0.99208  0.64427  0.78969  1.0000
  S   S151      1.0  0.81630  0.62110  0.89114  1.0000
  H   H637      1.0  0.74213  0.46772  0.85328  1.0000
  C   C535      1.0  0.74319  0.45641  0.87816  1.0000
  C   C536      1.0  0.93947  0.63308  0.68042  1.0000
  C   C537      1.0  0.84806  0.36190  0.94171  1.0000
  S   S152      1.0  0.77822  0.66993  0.96579  1.0000
  C   C538      1.0  0.78679  0.38286  0.83865  1.0000
  C   C539      1.0  0.82100  0.37896  0.83733  1.0000
  C   C540      1.0  0.86258  0.47445  0.88696  1.0000
  C   C541      1.0  0.86129  0.50098  0.79153  1.0000
  C   C542      1.0  0.83928  0.47858  0.80556  1.0000
  C   C543      1.0  0.81413  0.48974  0.82638  1.0000
  C   C544      1.0  0.81086  0.52341  0.83366  1.0000
  C   C545      1.0  0.83292  0.54584  0.81963  1.0000
  C   C546      1.0  0.85795  0.53464  0.79862  1.0000
  H   H638      1.0  0.84154  0.45264  0.80031  1.0000
  H   H639      1.0  0.79764  0.47201  0.83715  1.0000
  H   H640      1.0  0.83088  0.57182  0.82511  1.0000
  H   H641      1.0  0.87498  0.55206  0.78807  1.0000
  H   H642      1.0  0.82596  0.50275  0.91196  1.0000
  H   H643      1.0  0.94520  0.63780  0.82808  1.0000
  H   H644      1.0  0.96882  0.55473  0.77547  1.0000
  H   H645      1.0  0.87070  0.49503  0.87201  1.0000
  H   H646      1.0  0.87437  0.36597  0.94802  1.0000
  C   C547      1.0  0.84073  0.42036  0.92540  1.0000
  H   H647      1.0  0.88013  0.61008  0.69598  1.0000
  H   H648      1.0  0.74744  0.42955  0.87503  1.0000
  C   C548      1.0  0.79423  0.38501  0.93634  1.0000
  C   C549      1.0  0.95642  0.57732  0.69237  1.0000
  H   H649      1.0  0.89259  0.61483  0.80831  1.0000
  C   C550      1.0  0.73751  0.63217  0.71158  1.0000
  Fe  Fe77      1.0  0.73783  0.65446  0.84983  1.0000
  H   H650      1.0  0.92364  0.65412  0.68784  1.0000
  H   H651      1.0  0.81973  0.63719  0.71525  1.0000
  H   H652      1.0  0.81168  0.42114  0.98742  1.0000
  H   H653      1.0  0.98663  0.62800  0.73253  1.0000
  C   C551      1.0  0.94279  0.63016  0.80273  1.0000
  H   H654      1.0  0.81967  0.63780  0.77565  1.0000
  C   C552      1.0  0.70475  0.41215  0.93245  1.0000
  H   H655      1.0  0.80657  0.45653  0.94540  1.0000
  C   C553      1.0  0.70890  0.49894  0.90063  1.0000
  C   C554      1.0  0.91314  0.61718  0.79152  1.0000
  H   H656      1.0  0.95441  0.56981  0.66618  1.0000
  C   C555      1.0  0.83736  0.47871  0.90958  1.0000
  C   C556      1.0  0.76995  0.65110  0.66592  1.0000
  C   C557      1.0  0.86606  0.41680  0.90169  1.0000
  H   H657      1.0  0.68836  0.42551  0.86699  1.0000
  H   H658      1.0  0.98225  0.58540  0.69625  1.0000
  N   N36       1.0  0.82862  0.39258  0.94568  1.0000
  C   C558      1.0  0.68441  0.45079  0.87682  1.0000
  S   S153      1.0  0.72414  0.36404  0.85467  1.0000
  H   H659      1.0  0.68038  0.46619  0.85458  1.0000
  H   H660      1.0  0.77598  0.40574  0.83053  1.0000
  N   N37       1.0  0.71273  0.46268  0.89675  1.0000
  H   H661      1.0  0.72363  0.61280  0.72361  1.0000
  C   C559      1.0  0.83583  0.65414  0.76266  1.0000
  H   H662      1.0  0.69459  0.39811  0.91233  1.0000
  C   C560      1.0  0.73034  0.46042  0.95640  1.0000
  C   C561      1.0  0.71509  0.44545  0.92872  1.0000
  H   H663      1.0  0.66129  0.45089  0.89135  1.0000
  H   H664      1.0  0.76510  0.46694  0.89073  1.0000
  C   C562      1.0  0.89929  0.59116  0.69141  1.0000
  H   H665      1.0  0.93485  0.62861  0.65388  1.0000
  C   C563      1.0  0.90931  0.60840  0.75857  1.0000
  H   H666      1.0  0.83626  0.39924  0.82945  1.0000
  H   H667      1.0  0.79250  0.37855  0.90991  1.0000
  H   H668      1.0  0.73163  0.51112  0.90981  1.0000
  N   N38       1.0  0.93244  0.60348  0.70067  1.0000
  C   C564      1.0  0.96902  0.63380  0.78115  1.0000
  C   C565      1.0  0.96559  0.62460  0.74830  1.0000
  H   H669      1.0  0.85455  0.41055  0.98818  1.0000
  C   C566      1.0  0.93552  0.61202  0.73585  1.0000
  H   H670      1.0  0.77762  0.40616  0.94052  1.0000
  H   H671      1.0  0.95228  0.55496  0.70771  1.0000
  H   H672      1.0  0.88534  0.59944  0.75149  1.0000
  H   H673      1.0  0.69889  0.37053  0.96479  1.0000
  H   H674      1.0  0.74034  0.48504  0.95539  1.0000
  H   H675      1.0  0.89552  0.44009  0.86434  1.0000
  C   C567      1.0  0.74019  0.66317  0.72630  1.0000
  H   H676      1.0  0.89273  0.56829  0.70508  1.0000
  C   C568      1.0  0.82645  0.45211  0.92849  1.0000
  H   H677      1.0  0.68820  0.50496  0.91735  1.0000
  C   C569      1.0  0.70758  0.39575  0.96246  1.0000
  H   H678      1.0  0.70433  0.51142  0.87670  1.0000
  Fe  Fe78      1.0  0.81202  0.65445  0.84752  1.0000
  H   H679      1.0  0.75068  0.60194  0.67035  1.0000
  H   H680      1.0  0.87795  0.39356  0.89689  1.0000
  C   C570      1.0  0.82967  0.40169  0.98096  1.0000
  C   C571      1.0  0.75256  0.62607  0.68156  1.0000
  H   H681      1.0  0.96538  0.64151  0.68260  1.0000
  C   C572      1.0  0.83615  0.65358  0.72828  1.0000
  H   H682      1.0  0.89766  0.58515  0.66483  1.0000
  H   H683      1.0  0.84279  0.34485  0.60426  1.0000
  H   H684      1.0  0.96488  0.49445  0.76837  1.0000
  H   H685      1.0  0.78409  0.36387  0.95051  1.0000
  H   H686      1.0  0.82359  0.38048  0.99718  1.0000
  C   C573      1.0  0.73321  0.44369  0.98630  1.0000
  C   C574      1.0  0.76675  0.35737  0.85045  1.0000
  H   H687      1.0  0.78192  0.64637  0.64265  1.0000
  C   C575      1.0  0.83543  0.34931  0.84707  1.0000
  C   C576      1.0  0.98875  0.50645  0.76735  1.0000
  C   C577      1.0  0.99091  0.54048  0.77124  1.0000
  H   H688      1.0  0.84658  0.35221  0.91621  1.0000
  S   S154      1.0  0.87838  0.34423  0.84586  1.0000
  H   H689      1.0  0.80344  0.35826  0.75318  1.0000
  H   H690      1.0  0.72719  0.66667  0.74912  1.0000
  C   C578      1.0  0.75375  0.34669  0.76651  1.0000
  S   S155      1.0  0.85605  0.67456  0.66761  1.0000
  C   C579      1.0  0.85738  0.67429  0.71084  1.0000
  Fe  Fe79      1.0  0.61003  0.76731  0.14084  1.0000
  S   S156      1.0  0.63697  0.80392  0.10958  1.0000
  S   S157      1.0  0.55466  0.77369  0.14242  1.0000
  Fe  Fe80      1.0  0.67372  0.73026  0.15584  1.0000
  S   S158      1.0  0.70457  0.76376  0.12491  1.0000
  H   H691      1.0  0.56162  0.80952  0.07783  1.0000
  Fe  Fe81      1.0  0.67521  0.80355  0.14943  1.0000
  S   S159      1.0  0.69862  0.84922  0.17131  1.0000
  Fe  Fe82      1.0  0.66322  0.75999  0.08850  1.0000
  S   S160      1.0  0.66434  0.75330  0.03310  1.0000
  S   S161      1.0  0.64621  0.77020  0.18216  1.0000
  S   S162      1.0  0.63429  0.72320  0.11782  1.0000
  Fe  Fe83      1.0  0.76335  0.95182  0.37143  1.0000
  S   S163      1.0  0.72507  0.91824  0.39331  1.0000
  H   H692      1.0  0.81042  0.70668  0.14324  1.0000
  Fe  Fe84      1.0  0.81274  0.89594  0.36409  1.0000
  S   S164      1.0  0.77813  0.85882  0.38491  1.0000
  S   S165      1.0  0.86158  0.87756  0.34578  1.0000
  Fe  Fe85      1.0  0.74034  0.88316  0.35346  1.0000
  S   S166      1.0  0.70779  0.84734  0.32625  1.0000
  Fe  Fe86      1.0  0.76684  0.89686  0.42279  1.0000
  S   S167      1.0  0.76255  0.88332  0.47679  1.0000
  S   S168      1.0  0.77573  0.91797  0.32953  1.0000
  S   S169      1.0  0.80417  0.93306  0.40398  1.0000
  S   S170      1.0  0.91119  0.71303  0.27724  1.0000
  S   S171      1.0  0.86632  0.72241  0.36243  1.0000
  H   H693      1.0  0.65849  0.97327  0.33027  1.0000
  H   H694      1.0  0.92350  0.77735  0.39863  1.0000
  C   C580      1.0  0.86603  0.83485  0.35207  1.0000
  C   C581      1.0  0.85230  0.81961  0.37955  1.0000
  C   C582      1.0  0.85314  0.78523  0.38285  1.0000
  C   C583      1.0  0.86761  0.76571  0.35855  1.0000
  C   C584      1.0  0.88275  0.78108  0.33183  1.0000
  C   C585      1.0  0.88215  0.81556  0.32869  1.0000
  H   H695      1.0  0.84130  0.83440  0.39848  1.0000
  H   H696      1.0  0.84223  0.77391  0.40418  1.0000
  H   H697      1.0  0.89478  0.76663  0.31338  1.0000
  H   H698      1.0  0.89328  0.82720  0.30755  1.0000
  C   C586      1.0  0.81545  0.84141  0.47176  1.0000
  H   H699      1.0  0.74083  0.69274  0.24196  1.0000
  C   C587      1.0  0.72013  0.00263  0.30874  1.0000
  H   H700      1.0  0.81820  0.85094  0.44722  1.0000
  C   C588      1.0  0.79526  0.70393  0.16484  1.0000
  C   C589      1.0  0.69546  0.72888  0.01499  1.0000
  C   C590      1.0  0.63113  0.96803  0.28537  1.0000
  C   C591      1.0  0.72284  0.71855  0.03297  1.0000
  C   C592      1.0  0.77260  0.78129  0.33070  1.0000
  H   H701      1.0  0.72504  0.72507  0.05859  1.0000
  H   H702      1.0  0.80082  0.72316  0.33679  1.0000
  H   H703      1.0  0.66535  0.91318  0.33804  1.0000
  H   H704      1.0  0.80536  0.72505  0.44968  1.0000
  C   C593      1.0  0.75595  0.69606  0.22042  1.0000
  H   H705      1.0  0.90170  0.72142  0.46606  1.0000
  H   H706      1.0  0.83439  0.78966  0.28380  1.0000
  C   C594      1.0  0.61794  0.94608  0.26239  1.0000
  H   H707      1.0  0.88781  0.74095  0.42936  1.0000
  C   C595      1.0  0.77359  0.72245  0.33420  1.0000
  H   H708      1.0  0.99680  0.75884  0.36083  1.0000
  C   C596      1.0  0.70500  0.84805  0.21415  1.0000
  C   C597      1.0  0.70188  0.81855  0.23159  1.0000
  C   C598      1.0  0.70366  0.81852  0.26594  1.0000
  C   C599      1.0  0.70966  0.84779  0.28313  1.0000
  C   C600      1.0  0.71457  0.87709  0.26570  1.0000
  C   C601      1.0  0.71210  0.87722  0.23127  1.0000
  H   H709      1.0  0.69763  0.79572  0.21876  1.0000
  H   H710      1.0  0.69985  0.79579  0.27921  1.0000
  H   H711      1.0  0.71886  0.89988  0.27881  1.0000
  H   H712      1.0  0.71478  0.90015  0.21800  1.0000
  C   C602      1.0  0.53785  0.79278  0.17759  1.0000
  C   C603      1.0  0.55502  0.79322  0.20728  1.0000
  C   C604      1.0  0.54132  0.80849  0.23500  1.0000
  H   H713      1.0  0.79935  0.78350  0.33602  1.0000
  C   C605      1.0  0.94090  0.77856  0.41968  1.0000
  H   H714      1.0  0.58559  0.73076  0.04274  1.0000
  H   H715      1.0  0.57867  0.78133  0.20907  1.0000
  H   H716      1.0  0.55463  0.80848  0.25796  1.0000
  C   C606      1.0  0.62152  0.91145  0.26593  1.0000
  H   H717      1.0  0.55047  0.73446  0.06945  1.0000
  H   H718      1.0  0.61291  0.87912  0.18904  1.0000
  C   C607      1.0  0.79025  0.85329  0.49165  1.0000
  H   H719      1.0  0.72726  0.97698  0.30807  1.0000
  C   C608      1.0  0.72248  0.75103  0.34018  1.0000
  C   C609      1.0  0.76308  0.75653  0.38370  1.0000
  C   C610      1.0  0.74776  0.78285  0.40073  1.0000
  C   C611      1.0  0.78385  0.73554  0.40242  1.0000
  C   C612      1.0  0.75327  0.78816  0.43418  1.0000
  C   C613      1.0  0.78892  0.74090  0.43597  1.0000
  C   C614      1.0  0.77377  0.76720  0.45177  1.0000
  Fe  Fe87      1.0  0.88178  0.69190  0.31862  1.0000
  H   H720      1.0  0.71794  0.74563  0.31378  1.0000
  H   H721      1.0  0.70977  0.77477  0.34503  1.0000
  H   H722      1.0  0.73211  0.80022  0.38808  1.0000
  H   H723      1.0  0.74216  0.80913  0.44642  1.0000
  C   C615      1.0  0.74775  0.70013  0.01765  1.0000
  H   H724      1.0  0.79724  0.71535  0.39161  1.0000
  H   H725      1.0  0.64261  0.87444  0.29932  1.0000
  C   C616      1.0  0.51048  0.82375  0.23326  1.0000
  H   H726      1.0  0.93024  0.71615  0.39873  1.0000
  H   H727      1.0  0.61320  0.92172  0.19943  1.0000
  N   N39       1.0  0.60770  0.88877  0.24096  1.0000
  C   C617      1.0  0.65186  0.92240  0.31699  1.0000
  H   H728      1.0  0.76118  0.80484  0.33838  1.0000
  C   C618      1.0  0.94803  0.71957  0.41931  1.0000
  H   H729      1.0  0.96571  0.78268  0.40906  1.0000
  C   C619      1.0  0.54307  0.80036  0.05982  1.0000
  H   H730      1.0  0.60496  0.95650  0.24174  1.0000
  H   H731      1.0  0.71006  0.73158  0.35492  1.0000
  C   C620      1.0  0.96282  0.75132  0.46772  1.0000
  H   H732      1.0  0.85641  0.80832  0.46773  1.0000
  C   C621      1.0  0.57057  0.74839  0.05717  1.0000
  H   H733      1.0  0.81534  0.84424  0.30327  1.0000
  H   H734      1.0  0.76872  0.71975  0.30744  1.0000
  C   C622      1.0  0.99550  0.71702  0.32825  1.0000
  C   C623      1.0  0.83720  0.81732  0.48358  1.0000
  Fe  Fe88      1.0  0.87646  0.68461  0.24497  1.0000
  H   H735      1.0  0.97256  0.72215  0.40771  1.0000
  C   C624      1.0  0.61537  0.85359  0.24730  1.0000
  H   H736      1.0  0.77836  0.77171  0.47759  1.0000
  C   C625      1.0  0.81001  0.70248  0.19591  1.0000
  C   C626      1.0  0.62107  0.89705  0.20810  1.0000
  S   S172      1.0  0.85305  0.70615  0.19936  1.0000
  C   C627      1.0  0.57143  0.89209  0.24011  1.0000
  C   C628      1.0  0.90473  0.74384  0.45065  1.0000
  N   N40       1.0  0.75813  0.75259  0.34789  1.0000
  H   H737      1.0  0.74979  0.70218  0.13750  1.0000
  H   H738      1.0  0.60323  0.80266  0.03710  1.0000
  H   H739      1.0  0.64229  0.84945  0.24840  1.0000
  H   H740      1.0  0.60410  0.84480  0.27058  1.0000
  C   C629      1.0  0.95275  0.75203  0.50115  1.0000
  H   H741      1.0  0.56032  0.88572  0.26429  1.0000
  H   H742      1.0  0.56008  0.87542  0.22155  1.0000
  H   H743      1.0  0.56341  0.91746  0.23390  1.0000
  H   H744      1.0  0.93456  0.80078  0.43437  1.0000
  H   H745      1.0  0.64843  0.89672  0.20831  1.0000
  H   H746      1.0  0.78882  0.88266  0.26476  1.0000
  N   N41       1.0  0.93935  0.74833  0.44005  1.0000
  C   C630      1.0  0.99704  0.75431  0.46157  1.0000
  C   C631      1.0  0.58508  0.79187  0.01958  1.0000
  N   N42       1.0  0.79977  0.80918  0.17645  1.0000
  C   C632      1.0  0.77258  0.78499  0.17523  1.0000
  C   C633      1.0  0.79141  0.83686  0.15410  1.0000
  C   C634      1.0  0.83004  0.79349  0.16342  1.0000
  C   C635      1.0  0.80452  0.81952  0.21094  1.0000
  C   C636      1.0  0.79344  0.85040  0.22303  1.0000
  C   C637      1.0  0.81880  0.79762  0.23407  1.0000
  C   C638      1.0  0.79752  0.85905  0.25597  1.0000
  C   C639      1.0  0.82301  0.80668  0.26682  1.0000
  C   C640      1.0  0.81237  0.83733  0.27777  1.0000
  H   H747      1.0  0.74875  0.79653  0.18191  1.0000
  H   H748      1.0  0.76992  0.77403  0.15039  1.0000
  H   H749      1.0  0.77640  0.76444  0.19278  1.0000
  H   H750      1.0  0.76700  0.84765  0.15984  1.0000
  H   H751      1.0  0.78943  0.82861  0.12813  1.0000
  H   H752      1.0  0.81027  0.85672  0.15534  1.0000
  H   H753      1.0  0.85198  0.80933  0.16775  1.0000
  H   H754      1.0  0.83493  0.76908  0.17464  1.0000
  H   H755      1.0  0.82828  0.78844  0.13665  1.0000
  H   H756      1.0  0.78108  0.86815  0.20772  1.0000
  H   H757      1.0  0.82656  0.77311  0.22719  1.0000
  H   H758      1.0  0.58707  0.75775  0.07685  1.0000
  H   H759      1.0  0.60588  0.83730  0.22747  1.0000
  C   C641      1.0  0.63866  0.90023  0.29423  1.0000
  H   H760      1.0  0.76416  0.69981  0.34640  1.0000
  H   H761      1.0  0.97029  0.72104  0.32097  1.0000
  N   N43       1.0  0.55738  0.77574  0.03697  1.0000
  H   H762      1.0  0.89577  0.76546  0.46478  1.0000
  C   C642      1.0  0.64808  0.95619  0.31261  1.0000
  H   H763      1.0  0.76914  0.77959  0.30368  1.0000
  C   C643      1.0  0.76094  0.70155  0.16159  1.0000
  C   C644      1.0  0.74126  0.69718  0.18938  1.0000
  H   H764      1.0  0.52292  0.78946  0.07482  1.0000
  H   H765      1.0  0.94820  0.69645  0.43397  1.0000
  S   S173      1.0  0.69865  0.69091  0.18558  1.0000
  C   C645      1.0  0.79014  0.69936  0.22370  1.0000
  H   H766      1.0  0.69434  0.00065  0.26244  1.0000
  H   H767      1.0  0.53374  0.82239  0.04657  1.0000
  S   S174      1.0  0.75499  0.00712  0.36694  1.0000
  H   H768      1.0  0.76905  0.69263  0.03166  1.0000
  H   H769      1.0  0.62856  0.99443  0.28187  1.0000
  H   H770      1.0  0.80097  0.69978  0.24776  1.0000
  C   C646      1.0  0.53353  0.76260  0.01277  1.0000
  H   H771      1.0  0.00662  0.75452  0.43682  1.0000
  H   H772      1.0  0.63406  0.78137  0.84500  1.0000
  H   H773      1.0  0.67343  0.95774  0.67109  1.0000
  Fe  Fe89      1.0  0.92925  0.76678  0.63248  1.0000
  S   S175      1.0  0.90506  0.72745  0.60231  1.0000
  H   H774      1.0  0.75579  0.77977  0.93245  1.0000
  Fe  Fe90      1.0  0.86251  0.79679  0.65103  1.0000
  S   S176      1.0  0.83399  0.75878  0.62307  1.0000
  S   S177      1.0  0.83665  0.83378  0.68295  1.0000
  Fe  Fe91      1.0  0.87034  0.72322  0.64476  1.0000
  Fe  Fe92      1.0  0.87176  0.76775  0.58386  1.0000
  S   S178      1.0  0.86192  0.77445  0.52939  1.0000
  S   S179      1.0  0.89593  0.76085  0.67563  1.0000
  S   S180      1.0  0.89875  0.80780  0.61089  1.0000
  Fe  Fe93      1.0  0.66479  0.85613  0.80863  1.0000
  S   S181      1.0  0.63389  0.82151  0.77856  1.0000
  S   S182      1.0  0.69266  0.83377  0.85117  1.0000
  Fe  Fe94      1.0  0.64986  0.91515  0.76400  1.0000
  S   S183      1.0  0.61871  0.88387  0.73077  1.0000
  S   S184      1.0  0.65315  0.96911  0.74957  1.0000
  Fe  Fe95      1.0  0.59724  0.86248  0.77707  1.0000
  S   S185      1.0  0.54230  0.85825  0.78699  1.0000
  Fe  Fe96      1.0  0.65898  0.84642  0.73621  1.0000
  S   S186      1.0  0.68206  0.81927  0.69357  1.0000
  S   S187      1.0  0.62634  0.89589  0.81028  1.0000
  S   S188      1.0  0.69136  0.87927  0.76636  1.0000
  H   H775      1.0  0.85543  0.85585  0.56790  1.0000
  C   C647      1.0  0.54337  0.73827  0.98975  1.0000
  H   H776      1.0  0.58078  0.73087  0.92006  1.0000
  H   H777      1.0  0.72165  0.94763  0.74451  1.0000
  C   C648      1.0  0.75887  0.68891  0.71165  1.0000
  C   C649      1.0  0.52686  0.82256  0.80682  1.0000
  C   C650      1.0  0.54422  0.79288  0.80653  1.0000
  C   C651      1.0  0.53162  0.76504  0.82292  1.0000
  H   H778      1.0  0.62412  0.77105  0.93471  1.0000
  H   H779      1.0  0.84840  0.98554  0.64095  1.0000
  H   H780      1.0  0.56713  0.79129  0.79331  1.0000
  H   H781      1.0  0.54482  0.74200  0.82222  1.0000
  C   C652      1.0  0.80376  0.78875  0.81872  1.0000
  H   H782      1.0  0.85386  0.74251  0.92465  1.0000
  C   C653      1.0  0.80919  0.81721  0.53580  1.0000
  C   C654      1.0  0.83636  0.92495  0.61266  1.0000
  H   H783      1.0  0.80654  0.80788  0.56051  1.0000
  C   C655      1.0  0.72529  0.82115  0.69131  1.0000
  C   C656      1.0  0.74414  0.83038  0.71850  1.0000
  C   C657      1.0  0.77823  0.83435  0.71565  1.0000
  C   C658      1.0  0.79398  0.82774  0.68592  1.0000
  C   C659      1.0  0.77538  0.81741  0.65889  1.0000
  C   C660      1.0  0.74109  0.81415  0.66159  1.0000
  H   H784      1.0  0.73267  0.83381  0.74199  1.0000
  H   H785      1.0  0.79251  0.84203  0.73673  1.0000
  H   H786      1.0  0.78727  0.81279  0.63566  1.0000
  H   H787      1.0  0.72677  0.80669  0.64046  1.0000
  C   C661      1.0  0.70029  0.72365  0.83157  1.0000
  C   C662      1.0  0.70666  0.73580  0.86311  1.0000
  C   C663      1.0  0.70627  0.76994  0.86895  1.0000
  C   C664      1.0  0.70027  0.79190  0.84313  1.0000
  C   C665      1.0  0.69669  0.77970  0.81131  1.0000
  C   C666      1.0  0.69521  0.74571  0.80581  1.0000
  H   H788      1.0  0.71016  0.71884  0.88324  1.0000
  H   H789      1.0  0.70916  0.77923  0.89362  1.0000
  H   H790      1.0  0.69421  0.79645  0.79095  1.0000
  H   H791      1.0  0.68971  0.73650  0.78162  1.0000
  H   H792      1.0  0.58207  0.87480  0.86992  1.0000
  C   C667      1.0  0.70935  0.92863  0.62005  1.0000
  H   H793      1.0  0.76780  0.85026  0.53940  1.0000
  H   H794      1.0  0.52555  0.86935  0.89132  1.0000
  H   H795      1.0  0.95660  0.72740  0.69023  1.0000
  H   H796      1.0  0.83911  0.74986  0.81292  1.0000
  H   H797      1.0  0.81953  0.71469  0.91937  1.0000
  C   C668      1.0  0.73824  0.92694  0.56714  1.0000
  H   H798      1.0  0.67192  0.72804  0.96761  1.0000
  H   H799      1.0  0.78683  0.70030  0.66699  1.0000
  H   H800      1.0  0.78390  0.75006  0.68827  1.0000
  C   C669      1.0  0.00150  0.73533  0.66361  1.0000
  H   H801      1.0  0.64842  0.94622  0.63650  1.0000
  C   C670      1.0  0.72242  0.96083  0.62453  1.0000
  S   S189      1.0  0.85566  0.67797  0.82298  1.0000
  H   H802      1.0  0.82721  0.73275  0.95817  1.0000
  H   H803      1.0  0.98160  0.69023  0.73112  1.0000
  H   H804      1.0  0.65666  0.88755  0.61214  1.0000
  H   H805      1.0  0.72937  0.76332  0.73522  1.0000
  H   H806      1.0  0.83138  0.95217  0.53286  1.0000
  H   H807      1.0  0.64777  0.79031  0.90297  1.0000
  H   H808      1.0  0.74606  0.70754  0.77648  1.0000
  H   H809      1.0  0.71089  0.88680  0.58575  1.0000
  H   H810      1.0  0.77000  0.97358  0.71740  1.0000
  H   H811      1.0  0.65459  0.87302  0.65363  1.0000
  C   C671      1.0  0.74948  0.95904  0.57177  1.0000
  H   H812      1.0  0.76783  0.82521  0.83179  1.0000
  H   H813      1.0  0.72294  0.92599  0.68408  1.0000
  C   C672      1.0  0.86046  0.92579  0.66737  1.0000
  N   N44       1.0  0.83163  0.93538  0.64715  1.0000
  C   C673      1.0  0.80196  0.91892  0.66036  1.0000
  C   C674      1.0  0.71004  0.90424  0.67380  1.0000
  C   C675      1.0  0.84457  0.89179  0.60522  1.0000
  H   H814      1.0  0.56719  0.72715  0.87794  1.0000
  H   H815      1.0  0.77986  0.92553  0.64578  1.0000
  H   H816      1.0  0.71550  0.69462  0.94090  1.0000
  C   C676      1.0  0.58892  0.73158  0.89409  1.0000
  H   H817      1.0  0.84365  0.80267  0.93067  1.0000
  H   H818      1.0  0.86302  0.89865  0.66986  1.0000
  H   H819      1.0  0.79744  0.92578  0.68640  1.0000
  H   H820      1.0  0.84758  0.87358  0.62431  1.0000
  N   N45       1.0  0.68876  0.91320  0.64577  1.0000
  C   C677      1.0  0.66312  0.93648  0.65736  1.0000
  H   H821      1.0  0.74464  0.91378  0.54480  1.0000
  H   H822      1.0  0.77071  0.74304  0.77514  1.0000
  H   H823      1.0  0.88367  0.93545  0.65660  1.0000
  C   C678      1.0  0.83532  0.93550  0.55327  1.0000
  H   H824      1.0  0.76173  0.73761  0.92078  1.0000
  N   N46       1.0  0.60530  0.76331  0.88598  1.0000
  H   H825      1.0  0.77297  0.75147  0.96092  1.0000
  C   C679      1.0  0.58319  0.79216  0.88810  1.0000
  C   C680      1.0  0.55085  0.79016  0.90116  1.0000
  C   C681      1.0  0.59417  0.82377  0.87786  1.0000
  C   C682      1.0  0.53058  0.81787  0.90265  1.0000
  C   C683      1.0  0.57355  0.85122  0.87911  1.0000
  C   C684      1.0  0.54177  0.84824  0.89130  1.0000
  C   C685      1.0  0.99656  0.70001  0.71153  1.0000
  H   H826      1.0  0.69559  0.89290  0.69405  1.0000
  C   C686      1.0  0.68860  0.98686  0.73171  1.0000
  C   C687      1.0  0.82402  0.76359  0.83007  1.0000
  H   H827      1.0  0.53999  0.76726  0.90914  1.0000
  H   H828      1.0  0.61871  0.82755  0.86841  1.0000
  C   C688      1.0  0.52125  0.72522  0.96684  1.0000
  C   C689      1.0  0.77283  0.68219  0.68044  1.0000
  S   S190      1.0  0.77566  0.68738  0.87193  1.0000
  H   H829      1.0  0.64584  0.92464  0.67496  1.0000
  C   C690      1.0  0.71911  0.97108  0.73220  1.0000
  C   C691      1.0  0.77279  0.75856  0.93453  1.0000
  C   C692      1.0  0.78722  0.84117  0.52379  1.0000
  C   C693      1.0  0.82721  0.97150  0.65109  1.0000
  H   H830      1.0  0.79186  0.76554  0.72798  1.0000
  C   C694      1.0  0.84871  0.88120  0.57290  1.0000
  C   C695      1.0  0.63302  0.76800  0.90911  1.0000
  C   C696      1.0  0.74531  0.69140  0.98440  1.0000
  C   C697      1.0  0.61870  0.76006  0.85230  1.0000
  H   H831      1.0  0.59880  0.75793  0.83386  1.0000
  H   H832      1.0  0.81234  0.72879  0.71490  1.0000
  C   C698      1.0  0.67158  0.88285  0.63453  1.0000
  H   H833      1.0  0.68899  0.86232  0.62966  1.0000
  H   H834      1.0  0.76904  0.81254  0.89002  1.0000
  H   H835      1.0  0.92729  0.75041  0.50842  1.0000
  H   H836      1.0  0.80253  0.81729  0.93653  1.0000
  C   C699      1.0  0.78405  0.80595  0.84068  1.0000
  H   H837      1.0  0.89621  0.71050  0.77564  1.0000
  H   H838      1.0  0.70855  0.72464  0.73008  1.0000
  H   H839      1.0  0.72914  0.88619  0.66637  1.0000
  H   H840      1.0  0.60572  0.71022  0.89067  1.0000
  H   H841      1.0  0.57622  0.81196  0.00327  1.0000
  C   C700      1.0  0.87908  0.69489  0.76251  1.0000
  H   H842      1.0  0.89792  0.70808  0.71524  1.0000
  C   C701      1.0  0.74186  0.97585  0.60056  1.0000
  C   C702      1.0  0.82776  0.73791  0.93132  1.0000
  H   H843      1.0  0.72605  0.74477  0.69535  1.0000
  C   C703      1.0  0.87960  0.69409  0.72813  1.0000
  C   C704      1.0  0.84382  0.90290  0.54696  1.0000
  S   S191      1.0  0.98490  0.76487  0.63626  1.0000
  C   C705      1.0  0.98228  0.72123  0.68833  1.0000
  C   C706      1.0  0.81884  0.79561  0.93982  1.0000
  H   H844      1.0  0.52902  0.70646  0.94959  1.0000
  C   C707      1.0  0.83433  0.80520  0.51570  1.0000
  H   H845      1.0  0.84108  0.73578  0.87035  1.0000
  H   H846      1.0  0.71793  0.97473  0.64670  1.0000
  H   H847      1.0  0.76428  0.97078  0.55302  1.0000
  H   H848      1.0  0.80414  0.89166  0.65960  1.0000
  C   C708      1.0  0.71859  0.91175  0.59090  1.0000
  N   N47       1.0  0.80630  0.76611  0.92232  1.0000
  C   C709      1.0  0.74647  0.98583  0.71686  1.0000
  C   C710      1.0  0.82497  0.75576  0.86348  1.0000
  C   C711      1.0  0.78854  0.74223  0.71400  1.0000
  C   C712      1.0  0.80530  0.77298  0.88662  1.0000
  C   C713      1.0  0.83174  0.94659  0.58559  1.0000
  C   C714      1.0  0.71768  0.70129  0.96649  1.0000
  C   C715      1.0  0.78482  0.79835  0.87411  1.0000
  H   H849      1.0  0.85857  0.93523  0.69295  1.0000
  H   H850      1.0  0.82511  0.97212  0.58870  1.0000
  C   C716      1.0  0.69302  0.72022  0.98168  1.0000
  C   C717      1.0  0.76709  0.71866  0.76326  1.0000
  N   N48       1.0  0.76132  0.72174  0.72736  1.0000
  H   H851      1.0  0.84637  0.89430  0.52188  1.0000
  C   C718      1.0  0.73003  0.73942  0.72185  1.0000
  H   H852      1.0  0.78916  0.70344  0.76846  1.0000
  H   H853      1.0  0.80325  0.79489  0.79286  1.0000
  H   H854      1.0  0.80423  0.98034  0.63925  1.0000
  H   H855      1.0  0.82494  0.97875  0.67737  1.0000
  H   H856      1.0  0.82077  0.79119  0.96671  1.0000
  H   H857      1.0  0.65017  0.74667  0.90865  1.0000
  H   H858      1.0  0.58022  0.99792  0.75799  1.0000
  H   H859      1.0  0.63451  0.73789  0.84966  1.0000
  H   H860      1.0  0.75095  0.00075  0.60442  1.0000
  H   H861      1.0  0.99793  0.78488  0.72646  1.0000
  H   H862      1.0  0.56825  0.72900  0.98955  1.0000
  S   S192      1.0  0.69726  0.68115  0.82405  1.0000
  C   C719      1.0  0.97567  0.75516  0.52658  1.0000
  H   H863      1.0  0.96745  0.75573  0.55192  1.0000
  H   H864      1.0  0.59931  0.77425  0.00435  1.0000
  C   C720      1.0  0.85668  0.67544  0.77989  1.0000
