data_image0
_chemical_formula_structural       FeS2FeS2FeSFeHS3H2CSFeS2FeSHFeSHFeSFeHSFeS2HCFeS2FeNFeS3C4HCH3C4H3C4HCHC5H6C2H2C6H4C6H4C6H7C2SHNC9H16CH2NC9H14NHC7H8NHCH4C2SH2CHCHSCSHC4HCHCSC2HCFeCH2SCHFeH2SH2SFeH2C2H5C4HSC3HSHC4HSCH5C2NH2C2HCHNC2HFeSH2C2HNCHCHC2SHFeH4CHCHSCH2CFeH4C2HSHCFeSH3SH2CHFeCSFeCH2CSHC2S2CHSHC5HCH2C3HC11H3S2FeS2FeS2FeS2CFeCFeHSHFeCFeS2FeCFeS2C2H4C3H2SCH2FeHC6H4NC6NH6CH2CHFeS2H3CH6C2HC3H2SC2HCHCFe2H2CH2CSC2HC3HSC2HNCHC7HCH2SCH2C3HSHSC8H5CHCNHCH2CH3CH2CH2CFeCH2C2SH4C2HCH3C2NCH3C2H5CHC2HC2H3C2H3C2H2FeCFeHCNC2HCHCNHSH3NH4FeHSCH2CHC4HCH3FeS2FeS2FeSFeS3FeS2CHCHSFeSNSHFeHSFeHSH2S3HC2H3CHSH2C7H3C3HSCH6C4H4SHCH2SC3HC2H3C6H4C3NC8H8C2H2C6H4FeH10CHCSCHSHC2HCH5C2HC2SHC2H3NC2H2NH2CHC2H2FeSCHC3H3C2HCSH2FeHFeH3SHNHCHC2H2CH2C4FeCH2C2NCH2C6H4C2HCSFeCH3C2H2SCHCHNHC3HC3HC2HCHCH2CH3CH6CFeH5NHCHC3HSC2H2CHSHCHCH3FeS2CH2CHCHFeHC2HC2HSHNC2H4C6H4SH6CHC3HSHCHC2H2C2H3CHC2SCNHCH4SHSHCH3C2HCH2FeHC2FeH2CHC2HSC3HCHC2HC2H2C2HC3SH3CH2CHC2SCSCHC7HCH5Fe2SH4S2HC2SCHSC6H7CH2C3FeNFeS2HSHSCH2CH2C2NCHC3HFeC2FeH3CHCH3CH2C2SCHSHSH6CNH10C2HCH5CHFeSHCH5SHCH3NH3CH2C3HS2HSC6H6C2H4CHS2H2NHCHC2H4FeC2H3CNH3CH6SCH2CSC2HFeCSH2CH5SHSC2H2CHC2H3CHSHC2HCNSHSCH3CHC2HC2FeCH2C2HFeHC2HC3NHCH2CHCH3S2HC2HC2SHCHC2H2C3H6C2H2NCH3CSH7CHSCHSH4CHCH3CH2C2HC2SH2C4HC3FeSHC2H3NHFeS2H2C2SHCH5C3HFeC2HSC4HCH11CHSC2H3CNHCSFeCH2CSFeHCSCH2SH2CH6CSH3CH5NCH3NH2CHCHCHCHCH3C3H2CHSHC2H4NSFeHSC5HC2H2C2HCHFeCHSCHC3H3SCHCH2NFeSHFeH3C2SC3HCH2NSHSHC2HSFeSH2FeS2FeS2FeSFeS2C2HFeS2C6H4FeCNC2HC5H5C3H4C2H2C6H2SHCH6NSHC2HC2H2CSCSH3NC9H12SH2C3HCH3SH2C6H6C3HCH3CH3C2H2SH3NH2CNCH4CH2C2FeCHC2H4CHSHCHNHCHSFeSHCSHCH4CHCSCHCH4C3HNCH2C2FeH2FeC2H3C5HFeC2HNHC4H4C2H3CH2CSHCFeSFeSHS2HFe2S2FeS2H2C5H3C3H2C6H4C2H3C2HCHC3FeC2HCHCHSCH2SHSCSCFeSCFeS2FeS2C6HNH2C3NHC4HCFeSH2C3HCHSHCHCH2SCH2NH4CHCH2CHSC3NCHCHCFeH2CSHCH4C2HCH3CH3FeHCHC2H2FeSHCH2CH2S2FeSCH3CH3FeH5C2HCHC2HNH2CFeH4SCFeHFe2C2HCHC4H2C3H3SC3SCSNC9H6CH8C3H2CSH2CH2C2HCHC2Fe2HFeCNCH2SHC2SFeSCFeHFeS3HSHSHFeS2FeS2FeSFeS3H3FeS2C6H5CH2CHC5H3C7H4C6H4NC3HC5SH2CHC2H2C2FeHSC2SC4HCH2CHC2FeCNH3CHSC3HSFeH2CSHNCHCSH2C3HC2HCH2SCSCH3FeHCH3SH2FeCH2C2H2CNC8H10C2HC2H2CFeCHCHNH3C5HFeHSC2HCHC3HC2H2FeSCH2C2SH4C2HCSCHSCHNCH2CH2CNCH3SH2CH6CH3CH4CHCH2C2HCH2C
_chemical_formula_sum              "Fe128 S256 H1152 C960 N64"
_cell_length_a       45.127
_cell_length_b       44.8338
_cell_length_c       50.5333
_cell_angle_alpha    89.968
_cell_angle_beta     90.1315
_cell_angle_gamma    86.6946

_space_group_name_H-M_alt    "P 1"
_space_group_IT_number       1

loop_
  _space_group_symop_operation_xyz
  'x, y, z'

loop_
  _atom_site_type_symbol
  _atom_site_label
  _atom_site_symmetry_multiplicity
  _atom_site_fract_x
  _atom_site_fract_y
  _atom_site_fract_z
  _atom_site_occupancy
  Fe  Fe1       1.0  0.30653  0.13000  0.21686  1.0000
  S   S1        1.0  0.32582  0.17457  0.22075  1.0000
  S   S2        1.0  0.33596  0.08731  0.21358  1.0000
  Fe  Fe2       1.0  0.24270  0.15773  0.21498  1.0000
  S   S3        1.0  0.25813  0.20430  0.21947  1.0000
  S   S4        1.0  0.19265  0.15361  0.21244  1.0000
  Fe  Fe3       1.0  0.29263  0.18942  0.18968  1.0000
  S   S5        1.0  0.30681  0.21846  0.15601  1.0000
  Fe  Fe4       1.0  0.28958  0.18475  0.25045  1.0000
  H   H1        1.0  0.01967  0.12201  0.99592  1.0000
  S   S6        1.0  0.27568  0.14396  0.18347  1.0000
  S   S7        1.0  0.27177  0.13901  0.24843  1.0000
  S   S8        1.0  0.32586  0.30070  0.98074  1.0000
  H   H2        1.0  0.27248  0.49909  0.25391  1.0000
  H   H3        1.0  0.33152  0.13927  0.29009  1.0000
  C   C1        1.0  0.11671  0.45552  0.29942  1.0000
  S   S9        1.0  0.99935  0.21447  0.15936  1.0000
  Fe  Fe5       1.0  0.30214  0.19632  0.00591  1.0000
  S   S10       1.0  0.27500  0.17869  0.03946  1.0000
  S   S11       1.0  0.34494  0.21863  0.01170  1.0000
  Fe  Fe6       1.0  0.02370  0.18556  0.06400  1.0000
  S   S12       1.0  0.04484  0.13895  0.06532  1.0000
  H   H4        1.0  0.20995  0.43901  0.04244  1.0000
  Fe  Fe7       1.0  0.01844  0.18816  0.12469  1.0000
  S   S13       1.0  0.03911  0.14199  0.13006  1.0000
  H   H5        1.0  0.26361  0.51910  0.97596  1.0000
  Fe  Fe8       1.0  0.07176  0.15571  0.09963  1.0000
  S   S14       1.0  0.12185  0.14639  0.10316  1.0000
  Fe  Fe9       1.0  0.01001  0.13007  0.09593  1.0000
  H   H6        1.0  0.00177  0.28078  0.28159  1.0000
  S   S15       1.0  0.05275  0.20313  0.09620  1.0000
  Fe  Fe10      1.0  0.36174  0.18845  0.97880  1.0000
  S   S16       1.0  0.04762  0.18015  0.27383  1.0000
  S   S17       1.0  0.31508  0.45670  0.27926  1.0000
  H   H7        1.0  0.01209  0.31174  0.24221  1.0000
  C   C2        1.0  0.45183  0.02972  0.03703  1.0000
  Fe  Fe11      1.0  0.34652  0.42910  0.08516  1.0000
  S   S18       1.0  0.29876  0.44599  0.08802  1.0000
  S   S19       1.0  0.35953  0.37955  0.08033  1.0000
  Fe  Fe12      1.0  0.31298  0.48259  0.06132  1.0000
  N   N1        1.0  0.45977  0.05654  0.05216  1.0000
  Fe  Fe13      1.0  0.31386  0.47454  0.12171  1.0000
  S   S20       1.0  0.28624  0.48648  0.15823  1.0000
  S   S21       1.0  0.35999  0.46423  0.05663  1.0000
  S   S22       1.0  0.36066  0.45487  0.12113  1.0000
  C   C3        1.0  0.30749  0.46583  0.24569  1.0000
  C   C4        1.0  0.32381  0.45072  0.22560  1.0000
  C   C5        1.0  0.31828  0.45742  0.19871  1.0000
  C   C6        1.0  0.29589  0.47887  0.19168  1.0000
  H   H8        1.0  0.10013  0.14887  0.29423  1.0000
  C   C7        1.0  0.28547  0.48761  0.23866  1.0000
  H   H9        1.0  0.34081  0.43374  0.23087  1.0000
  H   H10       1.0  0.33092  0.44558  0.18345  1.0000
  H   H11       1.0  0.24973  0.43596  0.01185  1.0000
  C   C8        1.0  0.46271  0.04450  0.13703  1.0000
  C   C9        1.0  0.31570  0.46396  0.99117  1.0000
  C   C10       1.0  0.29459  0.48763  0.99507  1.0000
  C   C11       1.0  0.01918  0.29618  0.15576  1.0000
  H   H12       1.0  0.32625  0.45285  0.00797  1.0000
  H   H13       1.0  0.15271  0.47326  0.03145  1.0000
  H   H14       1.0  0.23398  0.21084  0.28267  1.0000
  C   C12       1.0  0.21145  0.45681  0.99031  1.0000
  C   C13       1.0  0.01797  0.20488  0.99402  1.0000
  C   C14       1.0  0.04243  0.18597  0.98703  1.0000
  C   C15       1.0  0.00090  0.21912  0.97384  1.0000
  H   H15       1.0  0.05585  0.17501  0.00235  1.0000
  C   C16       1.0  0.01460  0.20609  0.19076  1.0000
  H   H16       1.0  0.39897  0.06464  0.28613  1.0000
  C   C17       1.0  0.37917  0.07668  0.98952  1.0000
  C   C18       1.0  0.03559  0.19133  0.24193  1.0000
  C   C19       1.0  0.04965  0.17854  0.21957  1.0000
  C   C20       1.0  0.03918  0.18593  0.19401  1.0000
  C   C21       1.0  0.43752  0.08663  0.20590  1.0000
  H   H17       1.0  0.23246  0.47111  0.04075  1.0000
  H   H18       1.0  0.06835  0.16256  0.22197  1.0000
  H   H19       1.0  0.05018  0.17606  0.17693  1.0000
  H   H20       1.0  0.32507  0.29876  0.10260  1.0000
  H   H21       1.0  0.04935  0.34531  0.10004  1.0000
  H   H22       1.0  0.43519  0.03901  0.20196  1.0000
  C   C22       1.0  0.38978  0.11427  0.21202  1.0000
  C   C23       1.0  0.37249  0.09118  0.13860  1.0000
  H   H23       1.0  0.45150  0.03390  0.01530  1.0000
  H   H24       1.0  0.37413  0.07412  0.12260  1.0000
  C   C24       1.0  0.34858  0.35777  0.05307  1.0000
  C   C25       1.0  0.35736  0.32716  0.05235  1.0000
  C   C26       1.0  0.34959  0.30915  0.03085  1.0000
  C   C27       1.0  0.33309  0.32163  0.00970  1.0000
  C   C28       1.0  0.32380  0.35214  0.01070  1.0000
  C   C29       1.0  0.33149  0.37014  0.03225  1.0000
  H   H25       1.0  0.37069  0.31740  0.06830  1.0000
  H   H26       1.0  0.35712  0.28581  0.03027  1.0000
  H   H27       1.0  0.31089  0.36207  0.99460  1.0000
  H   H28       1.0  0.32451  0.39364  0.03257  1.0000
  C   C30       1.0  0.17333  0.15190  0.18186  1.0000
  C   C31       1.0  0.18816  0.14502  0.15818  1.0000
  C   C32       1.0  0.17203  0.14272  0.13442  1.0000
  C   C33       1.0  0.14100  0.14806  0.13388  1.0000
  C   C34       1.0  0.12618  0.15526  0.15754  1.0000
  C   C35       1.0  0.14225  0.15686  0.18143  1.0000
  H   H29       1.0  0.21200  0.14091  0.15821  1.0000
  H   H30       1.0  0.18377  0.13683  0.11638  1.0000
  H   H31       1.0  0.10235  0.15948  0.15744  1.0000
  H   H32       1.0  0.13051  0.16212  0.19961  1.0000
  C   C36       1.0  0.29802  0.20688  0.12377  1.0000
  C   C37       1.0  0.27777  0.18493  0.11937  1.0000
  C   C38       1.0  0.27110  0.17618  0.09345  1.0000
  C   C39       1.0  0.28444  0.18952  0.07176  1.0000
  C   C40       1.0  0.30445  0.21168  0.07618  1.0000
  C   C41       1.0  0.31130  0.22025  0.10209  1.0000
  H   H33       1.0  0.26651  0.17529  0.13581  1.0000
  H   H34       1.0  0.25517  0.15942  0.09022  1.0000
  H   H35       1.0  0.31435  0.22258  0.05968  1.0000
  H   H36       1.0  0.32693  0.23729  0.10526  1.0000
  H   H37       1.0  0.37217  0.51968  0.14851  1.0000
  H   H38       1.0  0.19691  0.47446  0.05572  1.0000
  H   H39       1.0  0.04714  0.37151  0.19049  1.0000
  C   C42       1.0  0.37506  0.08767  0.21115  1.0000
  C   C43       1.0  0.39173  0.06056  0.20755  1.0000
  S   S23       1.0  0.32323  0.51302  0.09502  1.0000
  H   H40       1.0  0.02137  0.26130  0.12650  1.0000
  N   N2        1.0  0.18129  0.19834  0.05170  1.0000
  C   C44       1.0  0.14862  0.20478  0.05091  1.0000
  C   C45       1.0  0.19341  0.20802  0.02595  1.0000
  C   C46       1.0  0.18748  0.16560  0.05397  1.0000
  C   C47       1.0  0.19433  0.21308  0.07488  1.0000
  C   C48       1.0  0.18322  0.20818  0.10067  1.0000
  C   C49       1.0  0.21910  0.23121  0.07292  1.0000
  C   C50       1.0  0.19630  0.22008  0.12311  1.0000
  C   C51       1.0  0.23177  0.24342  0.09548  1.0000
  C   C52       1.0  0.22059  0.23763  0.12053  1.0000
  H   H41       1.0  0.14296  0.22926  0.05138  1.0000
  H   H42       1.0  0.13844  0.19549  0.03282  1.0000
  H   H43       1.0  0.13705  0.19453  0.06774  1.0000
  H   H44       1.0  0.19021  0.23264  0.02331  1.0000
  H   H45       1.0  0.18249  0.19735  0.00889  1.0000
  H   H46       1.0  0.21748  0.20142  0.02407  1.0000
  H   H47       1.0  0.17698  0.15625  0.07181  1.0000
  H   H48       1.0  0.17878  0.15347  0.03665  1.0000
  H   H49       1.0  0.21183  0.15991  0.05533  1.0000
  H   H50       1.0  0.16473  0.19437  0.10375  1.0000
  H   H51       1.0  0.22986  0.23539  0.05432  1.0000
  H   H52       1.0  0.18790  0.21503  0.14263  1.0000
  H   H53       1.0  0.25124  0.25631  0.09358  1.0000
  H   H54       1.0  0.23128  0.24606  0.13801  1.0000
  H   H55       1.0  0.37678  0.14760  0.15468  1.0000
  H   H56       1.0  0.11182  0.17101  0.25323  1.0000
  C   C53       1.0  0.03562  0.34511  0.14179  1.0000
  H   H57       1.0  0.07770  0.38112  0.12178  1.0000
  H   H58       1.0  0.30503  0.12578  0.12665  1.0000
  N   N3        1.0  0.32629  0.32107  0.14052  1.0000
  C   C54       1.0  0.32429  0.29175  0.15391  1.0000
  C   C55       1.0  0.31412  0.31805  0.11338  1.0000
  C   C56       1.0  0.35819  0.32709  0.13867  1.0000
  C   C57       1.0  0.31019  0.34614  0.15446  1.0000
  C   C58       1.0  0.29596  0.34271  0.17931  1.0000
  C   C59       1.0  0.30895  0.37536  0.14345  1.0000
  C   C60       1.0  0.28154  0.36713  0.19213  1.0000
  C   C61       1.0  0.29429  0.39949  0.15634  1.0000
  C   C62       1.0  0.28070  0.39543  0.18066  1.0000
  H   H59       1.0  0.30086  0.28538  0.15558  1.0000
  H   H60       1.0  0.33665  0.14722  0.04238  1.0000
  H   H61       1.0  0.33444  0.29157  0.17400  1.0000
  H   H62       1.0  0.28987  0.31477  0.11391  1.0000
  H   H63       1.0  0.06504  0.40186  0.17643  1.0000
  H   H64       1.0  0.31747  0.33797  0.10088  1.0000
  H   H65       1.0  0.37111  0.30891  0.12803  1.0000
  H   H66       1.0  0.36185  0.34802  0.12770  1.0000
  H   H67       1.0  0.36816  0.32948  0.15867  1.0000
  H   H68       1.0  0.29575  0.32146  0.18936  1.0000
  H   H69       1.0  0.31956  0.37988  0.12483  1.0000
  H   H70       1.0  0.27108  0.36416  0.21117  1.0000
  H   H71       1.0  0.29371  0.42162  0.14758  1.0000
  H   H72       1.0  0.26972  0.41439  0.19069  1.0000
  N   N4        1.0  0.35240  0.11715  0.13081  1.0000
  H   H73       1.0  0.00144  0.22310  0.25547  1.0000
  C   C63       1.0  0.35383  0.14066  0.15133  1.0000
  C   C64       1.0  0.36179  0.12917  0.10502  1.0000
  C   C65       1.0  0.34235  0.13275  0.08289  1.0000
  C   C66       1.0  0.39118  0.13828  0.10163  1.0000
  C   C67       1.0  0.35201  0.14434  0.05889  1.0000
  C   C68       1.0  0.40055  0.14996  0.07756  1.0000
  C   C69       1.0  0.38103  0.15285  0.05619  1.0000
  H   H74       1.0  0.01830  0.33430  0.18083  1.0000
  H   H75       1.0  0.42203  0.07371  0.25917  1.0000
  H   H76       1.0  0.04041  0.29333  0.09147  1.0000
  H   H77       1.0  0.33991  0.16100  0.14569  1.0000
  H   H78       1.0  0.31892  0.08911  0.11566  1.0000
  H   H79       1.0  0.31938  0.12721  0.08357  1.0000
  H   H80       1.0  0.40697  0.13684  0.11777  1.0000
  H   H81       1.0  0.44351  0.10300  0.05353  1.0000
  N   N5        1.0  0.04059  0.37670  0.14810  1.0000
  H   H82       1.0  0.19412  0.18381  0.26280  1.0000
  C   C70       1.0  0.40431  0.12197  0.97984  1.0000
  H   H83       1.0  0.47150  0.09758  0.09067  1.0000
  H   H84       1.0  0.36444  0.07999  0.15670  1.0000
  H   H85       1.0  0.99090  0.51272  0.01945  1.0000
  H   H86       1.0  0.47159  0.05291  0.25432  1.0000
  C   C71       1.0  0.42279  0.06002  0.20487  1.0000
  C   C72       1.0  0.39167  0.38619  0.98321  1.0000
  S   S24       1.0  0.40560  0.16129  0.97963  1.0000
  H   H87       1.0  0.36007  0.06608  0.99729  1.0000
  H   H88       1.0  0.01059  0.28187  0.17093  1.0000
  C   C73       1.0  0.02399  0.32610  0.16124  1.0000
  H   H89       1.0  0.37737  0.13529  0.21486  1.0000
  C   C74       1.0  0.37986  0.10800  0.99001  1.0000
  H   H90       1.0  0.04204  0.39486  0.10844  1.0000
  S   S25       1.0  0.01574  0.45345  0.02658  1.0000
  C   C75       1.0  0.21460  0.20622  0.29436  1.0000
  S   S26       1.0  0.28477  0.50016  0.02709  1.0000
  H   H91       1.0  0.33633  0.27337  0.14278  1.0000
  C   C76       1.0  0.00124  0.21952  0.21304  1.0000
  C   C77       1.0  0.32163  0.10696  0.13063  1.0000
  C   C78       1.0  0.99893  0.32139  0.25827  1.0000
  C   C79       1.0  0.03107  0.47249  0.11499  1.0000
  H   H92       1.0  0.12182  0.20570  0.26730  1.0000
  C   C80       1.0  0.13051  0.18268  0.26223  1.0000
  H   H93       1.0  0.07989  0.36427  0.17070  1.0000
  C   C81       1.0  0.36747  0.51614  0.00065  1.0000
  S   S27       1.0  0.28361  0.22859  0.97531  1.0000
  C   C82       1.0  0.99302  0.30375  0.28054  1.0000
  C   C83       1.0  0.00660  0.45708  0.10671  1.0000
  H   H94       1.0  0.14733  0.18441  0.24633  1.0000
  C   C84       1.0  0.16627  0.18387  0.29815  1.0000
  Fe  Fe14      1.0  0.36923  0.49203  0.09253  1.0000
  C   C85       1.0  0.40303  0.05902  0.97911  1.0000
  H   H95       1.0  0.34052  0.51222  0.26673  1.0000
  H   H96       1.0  0.18673  0.51682  0.02703  1.0000
  S   S28       1.0  0.32024  0.16408  0.97535  1.0000
  C   C86       1.0  0.43791  0.08124  0.04499  1.0000
  H   H97       1.0  0.36156  0.12121  0.99854  1.0000
  Fe  Fe15      1.0  0.01288  0.46859  0.18607  1.0000
  H   H98       1.0  0.36752  0.49752  0.23032  1.0000
  H   H99       1.0  0.18450  0.51287  0.99203  1.0000
  S   S29       1.0  0.47659  0.08703  0.20354  1.0000
  H   H100      1.0  0.02657  0.11889  0.18882  1.0000
  H   H101      1.0  0.11848  0.45959  0.27775  1.0000
  S   S30       1.0  0.30340  0.21050  0.28692  1.0000
  Fe  Fe16      1.0  0.01679  0.47698  0.24665  1.0000
  H   H102      1.0  0.17322  0.13824  0.26301  1.0000
  H   H103      1.0  0.02383  0.09168  0.16336  1.0000
  C   C87       1.0  0.02527  0.28447  0.13071  1.0000
  C   C88       1.0  0.03610  0.30260  0.11101  1.0000
  H   H104      1.0  0.16273  0.43919  0.01384  1.0000
  H   H105      1.0  0.42293  0.15725  0.07550  1.0000
  H   H106      1.0  0.31548  0.09752  0.15019  1.0000
  H   H107      1.0  0.34568  0.13292  0.17080  1.0000
  H   H108      1.0  0.27423  0.41405  0.97346  1.0000
  C   C89       1.0  0.46785  0.07212  0.12590  1.0000
  C   C90       1.0  0.05029  0.48324  0.09577  1.0000
  C   C91       1.0  0.36171  0.52406  0.97429  1.0000
  C   C92       1.0  0.04120  0.33252  0.11630  1.0000
  H   H109      1.0  0.43202  0.13443  0.21018  1.0000
  S   S31       1.0  0.04164  0.49819  0.27982  1.0000
  C   C93       1.0  0.46008  0.05209  0.08123  1.0000
  C   C94       1.0  0.00215  0.45155  0.07955  1.0000
  C   C95       1.0  0.19690  0.50456  0.00986  1.0000
  H   H110      1.0  0.06930  0.49514  0.10198  1.0000
  S   S32       1.0  0.00843  0.21232  0.02753  1.0000
  H   H111      1.0  0.41644  0.42469  0.99123  1.0000
  C   C96       1.0  0.15526  0.13683  0.27787  1.0000
  C   C97       1.0  0.28037  0.50116  0.97310  1.0000
  C   C98       1.0  0.42083  0.11373  0.20932  1.0000
  C   C99       1.0  0.27958  0.49390  0.21179  1.0000
  H   H112      1.0  0.06059  0.48649  0.05407  1.0000
  S   S33       1.0  0.03987  0.47721  0.14894  1.0000
  C   C100      1.0  0.42219  0.06903  0.28079  1.0000
  H   H113      1.0  0.26203  0.51032  0.20652  1.0000
  H   H114      1.0  0.37837  0.48318  0.18498  1.0000
  H   H115      1.0  0.15143  0.47294  0.99647  1.0000
  H   H116      1.0  0.37459  0.49330  0.00557  1.0000
  H   H117      1.0  0.22023  0.51127  0.00798  1.0000
  C   C101      1.0  0.01170  0.21226  0.23853  1.0000
  C   C102      1.0  0.40437  0.41270  0.97645  1.0000
  N   N6        1.0  0.14265  0.16672  0.28599  1.0000
  H   H118      1.0  0.38823  0.16207  0.03756  1.0000
  H   H119      1.0  0.39531  0.09760  0.14343  1.0000
  C   C103      1.0  0.01583  0.09795  0.18358  1.0000
  C   C104      1.0  0.20944  0.46356  0.03904  1.0000
  H   H120      1.0  0.41517  0.07641  0.05165  1.0000
  C   C105      1.0  0.01160  0.39296  0.15278  1.0000
  H   H121      1.0  0.13818  0.12324  0.26855  1.0000
  N   N7        1.0  0.19597  0.47174  0.01297  1.0000
  C   C106      1.0  0.02154  0.46211  0.06037  1.0000
  C   C107      1.0  0.04541  0.47837  0.06859  1.0000
  H   H122      1.0  0.38053  0.03987  0.20665  1.0000
  Fe  Fe17      1.0  0.03132  0.47968  0.99091  1.0000
  S   S34       1.0  0.03422  0.44110  0.21902  1.0000
  H   H123      1.0  0.06039  0.41589  0.13254  1.0000
  H   H124      1.0  0.42806  0.08989  0.29099  1.0000
  C   C108      1.0  0.05898  0.37853  0.17242  1.0000
  C   C109      1.0  0.23867  0.43940  0.99303  1.0000
  H   H125      1.0  0.43686  0.08474  0.02322  1.0000
  N   N8        1.0  0.44348  0.04373  0.28765  1.0000
  C   C110      1.0  0.19166  0.19069  0.28322  1.0000
  H   H126      1.0  0.02457  0.08020  0.19742  1.0000
  C   C111      1.0  0.46661  0.07596  0.09842  1.0000
  H   H127      1.0  0.04043  0.30466  0.97922  1.0000
  C   C112      1.0  0.05589  0.39259  0.12670  1.0000
  C   C113      1.0  0.16445  0.46385  0.01370  1.0000
  S   S35       1.0  0.00020  0.50664  0.21350  1.0000
  H   H128      1.0  0.39373  0.37762  0.00329  1.0000
  Fe  Fe18      1.0  0.32768  0.24958  0.97939  1.0000
  H   H129      1.0  0.11873  0.51383  0.28944  1.0000
  H   H130      1.0  0.99727  0.14734  0.21727  1.0000
  H   H131      1.0  0.16490  0.12420  0.29512  1.0000
  H   H132      1.0  0.47354  0.09036  0.13875  1.0000
  C   C114      1.0  0.99882  0.12970  0.98679  1.0000
  H   H133      1.0  0.01445  0.41696  0.15713  1.0000
  C   C115      1.0  0.47276  0.05022  0.27624  1.0000
  H   H134      1.0  0.46442  0.04141  0.15827  1.0000
  S   S36       1.0  0.40991  0.51920  0.09724  1.0000
  C   C116      1.0  0.37144  0.50621  0.18939  1.0000
  H   H135      1.0  0.16391  0.48221  0.28274  1.0000
  H   H136      1.0  0.99138  0.44903  0.12119  1.0000
  C   C117      1.0  0.36508  0.51486  0.21549  1.0000
  Fe  Fe19      1.0  0.98954  0.42208  0.22408  1.0000
  H   H137      1.0  0.48097  0.07143  0.28404  1.0000
  H   H138      1.0  0.99962  0.38377  0.16991  1.0000
  H   H139      1.0  0.01744  0.44429  0.30054  1.0000
  H   H140      1.0  0.36633  0.35039  0.97060  1.0000
  C   C118      1.0  0.42830  0.10434  0.96965  1.0000
  C   C119      1.0  0.42765  0.07301  0.96924  1.0000
  H   H141      1.0  0.37843  0.52302  0.26934  1.0000
  S   S37       1.0  0.99218  0.37118  0.22655  1.0000
  H   H142      1.0  0.99683  0.39182  0.13518  1.0000
  C   C120      1.0  0.25322  0.42673  0.97096  1.0000
  Fe  Fe20      1.0  0.30321  0.19943  0.44446  1.0000
  S   S38       1.0  0.27847  0.18289  0.40839  1.0000
  H   H143      1.0  0.08113  0.46008  0.39288  1.0000
  H   H144      1.0  0.42522  0.08196  0.54592  1.0000
  H   H145      1.0  0.03221  0.51387  0.37497  1.0000
  S   S39       1.0  0.02781  0.22860  0.33737  1.0000
  H   H146      1.0  0.16688  0.15750  0.56238  1.0000
  H   H147      1.0  0.39180  0.16161  0.53411  1.0000
  C   C121      1.0  0.20727  0.21736  0.54911  1.0000
  H   H148      1.0  0.13630  0.23972  0.47785  1.0000
  Fe  Fe21      1.0  0.30930  0.49216  0.37397  1.0000
  C   C122      1.0  0.00041  0.21663  0.47311  1.0000
  S   S40       1.0  0.32829  0.46656  0.40909  1.0000
  Fe  Fe22      1.0  0.30161  0.48721  0.31378  1.0000
  C   C123      1.0  0.41804  0.03217  0.33044  1.0000
  H   H149      1.0  0.29829  0.34874  0.45140  1.0000
  H   H150      1.0  0.39424  0.17800  0.39187  1.0000
  C   C124      1.0  0.13022  0.47657  0.58253  1.0000
  S   S41       1.0  0.27351  0.47456  0.34840  1.0000
  H   H151      1.0  0.12056  0.19331  0.56523  1.0000
  C   C125      1.0  0.11909  0.50753  0.31077  1.0000
  C   C126      1.0  0.32430  0.39245  0.42882  1.0000
  S   S42       1.0  0.34736  0.22002  0.44468  1.0000
  S   S43       1.0  0.32288  0.51464  0.58899  1.0000
  C   C127      1.0  0.15599  0.45959  0.38674  1.0000
  H   H152      1.0  0.36454  0.08939  0.39812  1.0000
  S   S44       1.0  0.41029  0.51808  0.57936  1.0000
  H   H153      1.0  0.37797  0.07624  0.62043  1.0000
  C   C128      1.0  0.44409  0.03960  0.31676  1.0000
  C   C129      1.0  0.40021  0.15376  0.39475  1.0000
  C   C130      1.0  0.31313  0.47433  0.44060  1.0000
  C   C131      1.0  0.32640  0.46020  0.46272  1.0000
  C   C132      1.0  0.27769  0.50065  0.46973  1.0000
  H   H154      1.0  0.34548  0.44474  0.46024  1.0000
  C   C133      1.0  0.34639  0.13504  0.58126  1.0000
  H   H155      1.0  0.12690  0.45425  0.41988  1.0000
  H   H156      1.0  0.17594  0.45765  0.39876  1.0000
  C   C134      1.0  0.02046  0.47538  0.56185  1.0000
  C   C135      1.0  0.40506  0.14999  0.57401  1.0000
  C   C136      1.0  0.03502  0.50734  0.33294  1.0000
  H   H157      1.0  0.17916  0.22798  0.50580  1.0000
  C   C137      1.0  0.04778  0.17762  0.45840  1.0000
  C   C138      1.0  0.36305  0.15653  0.31722  1.0000
  C   C139      1.0  0.19040  0.49078  0.50758  1.0000
  C   C140      1.0  0.16384  0.47708  0.30431  1.0000
  C   C141      1.0  0.29736  0.20130  0.32055  1.0000
  C   C142      1.0  0.27879  0.17883  0.32793  1.0000
  C   C143      1.0  0.27341  0.17335  0.35491  1.0000
  C   C144      1.0  0.28695  0.18986  0.37477  1.0000
  C   C145      1.0  0.30618  0.21177  0.36741  1.0000
  C   C146      1.0  0.31115  0.21759  0.34042  1.0000
  C   C147      1.0  0.46014  0.03154  0.53540  1.0000
  H   H158      1.0  0.25851  0.15636  0.36043  1.0000
  H   H159      1.0  0.31665  0.22469  0.38249  1.0000
  H   H160      1.0  0.32561  0.23496  0.33488  1.0000
  S   S45       1.0  0.03944  0.14182  0.62993  1.0000
  S   S46       1.0  0.31723  0.16320  0.47335  1.0000
  Fe  Fe23      1.0  0.32944  0.24786  0.47914  1.0000
  S   S47       1.0  0.28401  0.22953  0.47659  1.0000
  S   S48       1.0  0.33175  0.29867  0.47979  1.0000
  Fe  Fe24      1.0  0.30262  0.19519  0.50545  1.0000
  S   S49       1.0  0.27595  0.17737  0.53922  1.0000
  S   S50       1.0  0.34707  0.21488  0.50978  1.0000
  Fe  Fe25      1.0  0.02512  0.18532  0.56358  1.0000
  S   S51       1.0  0.04536  0.13846  0.56510  1.0000
  S   S52       1.0  0.01054  0.21126  0.52652  1.0000
  C   C148      1.0  0.00585  0.21073  0.44610  1.0000
  Fe  Fe26      1.0  0.07252  0.15458  0.59943  1.0000
  C   C149      1.0  0.02571  0.48942  0.61635  1.0000
  Fe  Fe27      1.0  0.01020  0.13062  0.59557  1.0000
  H   H161      1.0  0.01858  0.10066  0.52434  1.0000
  S   S53       1.0  0.05477  0.20229  0.59551  1.0000
  H   H162      1.0  0.20325  0.24202  0.54759  1.0000
  Fe  Fe28      1.0  0.36850  0.49268  0.58461  1.0000
  C   C150      1.0  0.36319  0.13652  0.36255  1.0000
  Fe  Fe29      1.0  0.34480  0.42962  0.58307  1.0000
  S   S54       1.0  0.29765  0.44765  0.58791  1.0000
  S   S55       1.0  0.35445  0.37916  0.58159  1.0000
  Fe  Fe30      1.0  0.30970  0.48193  0.55798  1.0000
  C   C151      1.0  0.10265  0.46122  0.38350  1.0000
  Fe  Fe31      1.0  0.31555  0.47828  0.61878  1.0000
  S   S56       1.0  0.35594  0.46230  0.55151  1.0000
  S   S57       1.0  0.36214  0.45792  0.61616  1.0000
  C   C152      1.0  0.31543  0.46626  0.48822  1.0000
  C   C153      1.0  0.29143  0.48691  0.49192  1.0000
  H   H163      1.0  0.27802  0.50528  0.42713  1.0000
  H   H164      1.0  0.32557  0.45478  0.50494  1.0000
  H   H165      1.0  0.32588  0.39214  0.45079  1.0000
  H   H166      1.0  0.31623  0.31180  0.33695  1.0000
  C   C154      1.0  0.31762  0.38686  0.34506  1.0000
  C   C155      1.0  0.01831  0.20274  0.49290  1.0000
  C   C156      1.0  0.34069  0.13800  0.30997  1.0000
  H   H167      1.0  0.44781  0.11158  0.45753  1.0000
  H   H168      1.0  0.23111  0.22702  0.32932  1.0000
  S   S58       1.0  0.33935  0.50007  0.33963  1.0000
  C   C157      1.0  0.19837  0.52093  0.40408  1.0000
  H   H169      1.0  0.33044  0.13300  0.40727  1.0000
  H   H170      1.0  0.00062  0.37271  0.35015  1.0000
  Fe  Fe32      1.0  0.03076  0.49062  0.49138  1.0000
  H   H171      1.0  0.08569  0.22946  0.49288  1.0000
  C   C158      1.0  0.34688  0.35696  0.55349  1.0000
  C   C159      1.0  0.35037  0.32561  0.55528  1.0000
  C   C160      1.0  0.34524  0.30737  0.53313  1.0000
  C   C161      1.0  0.33685  0.32036  0.50884  1.0000
  C   C162      1.0  0.33309  0.35169  0.50723  1.0000
  C   C163      1.0  0.33790  0.36988  0.52938  1.0000
  H   H172      1.0  0.35736  0.31537  0.57383  1.0000
  H   H173      1.0  0.34832  0.28334  0.53476  1.0000
  H   H174      1.0  0.32648  0.36209  0.48879  1.0000
  H   H175      1.0  0.33509  0.39394  0.52771  1.0000
  N   N9        1.0  0.37430  0.13535  0.39018  1.0000
  C   C164      1.0  0.00939  0.45671  0.58144  1.0000
  C   C165      1.0  0.27756  0.18525  0.61902  1.0000
  C   C166      1.0  0.27071  0.17656  0.59314  1.0000
  C   C167      1.0  0.28544  0.18838  0.57146  1.0000
  C   C168      1.0  0.30711  0.20888  0.57585  1.0000
  C   C169      1.0  0.31432  0.21718  0.60176  1.0000
  N   N10       1.0  0.46848  0.05915  0.54920  1.0000
  H   H176      1.0  0.25389  0.16071  0.58995  1.0000
  H   H177      1.0  0.31829  0.21852  0.55936  1.0000
  H   H178      1.0  0.33136  0.23283  0.60499  1.0000
  H   H179      1.0  0.07840  0.20644  0.53655  1.0000
  H   H180      1.0  0.35976  0.11577  0.48984  1.0000
  H   H181      1.0  0.36093  0.06044  0.49094  1.0000
  C   C170      1.0  0.02891  0.49865  0.35894  1.0000
  H   H182      1.0  0.19151  0.51039  0.44521  1.0000
  H   H183      1.0  0.13063  0.47158  0.60354  1.0000
  C   C171      1.0  0.31978  0.33408  0.37457  1.0000
  H   H184      1.0  0.44886  0.05627  0.45837  1.0000
  Fe  Fe33      1.0  0.02737  0.48754  0.43033  1.0000
  S   S59       1.0  0.00484  0.16027  0.33854  1.0000
  S   S60       1.0  0.03859  0.18430  0.40493  1.0000
  H   H185      1.0  0.29797  0.32330  0.42473  1.0000
  H   H186      1.0  0.30674  0.36715  0.61586  1.0000
  H   H187      1.0  0.34273  0.16985  0.40327  1.0000
  C   C172      1.0  0.29799  0.34753  0.42939  1.0000
  H   H188      1.0  0.41910  0.14683  0.38159  1.0000
  H   H189      1.0  0.17360  0.48897  0.49161  1.0000
  H   H190      1.0  0.31686  0.40736  0.33351  1.0000
  H   H191      1.0  0.40858  0.15163  0.41549  1.0000
  H   H192      1.0  0.00328  0.29275  0.37499  1.0000
  H   H193      1.0  0.06638  0.16266  0.45277  1.0000
  C   C173      1.0  0.12843  0.48982  0.52858  1.0000
  C   C174      1.0  0.04188  0.18293  0.48543  1.0000
  H   H194      1.0  0.35501  0.34630  0.44759  1.0000
  C   C175      1.0  0.39608  0.13925  0.59857  1.0000
  C   C176      1.0  0.01917  0.47019  0.36407  1.0000
  C   C177      1.0  0.42947  0.06905  0.46540  1.0000
  H   H195      1.0  0.35792  0.14619  0.42924  1.0000
  H   H196      1.0  0.47141  0.10458  0.58585  1.0000
  S   S61       1.0  0.01394  0.45767  0.39674  1.0000
  C   C178      1.0  0.37914  0.10294  0.48279  1.0000
  C   C179      1.0  0.15002  0.52409  0.42628  1.0000
  H   H197      1.0  0.04276  0.51581  0.55487  1.0000
  C   C180      1.0  0.01215  0.32734  0.40401  1.0000
  H   H198      1.0  0.39109  0.17136  0.34740  1.0000
  C   C181      1.0  0.33996  0.11840  0.35458  1.0000
  Fe  Fe34      1.0  0.36031  0.18513  0.47539  1.0000
  Fe  Fe35      1.0  0.01128  0.19705  0.36813  1.0000
  H   H199      1.0  0.12517  0.43218  0.30355  1.0000
  H   H200      1.0  0.08471  0.47262  0.52928  1.0000
  C   C182      1.0  0.15803  0.46567  0.35965  1.0000
  H   H201      1.0  0.22311  0.52558  0.53685  1.0000
  H   H202      1.0  0.32065  0.31306  0.38515  1.0000
  C   C183      1.0  0.01311  0.29772  0.39390  1.0000
  S   S62       1.0  0.40358  0.15697  0.47208  1.0000
  C   C184      1.0  0.10523  0.47059  0.56767  1.0000
  C   C185      1.0  0.38492  0.15301  0.55310  1.0000
  H   H203      1.0  0.18011  0.46820  0.35207  1.0000
  C   C186      1.0  0.42878  0.10047  0.46482  1.0000
  C   C187      1.0  0.18848  0.20911  0.33591  1.0000
  C   C188      1.0  0.37992  0.07152  0.48355  1.0000
  H   H204      1.0  0.16563  0.23522  0.58616  1.0000
  S   S63       1.0  0.12255  0.14542  0.60217  1.0000
  C   C189      1.0  0.46837  0.08294  0.59447  1.0000
  C   C190      1.0  0.28854  0.49440  0.44410  1.0000
  H   H205      1.0  0.04774  0.31053  0.46290  1.0000
  N   N11       1.0  0.17986  0.20265  0.55680  1.0000
  C   C191      1.0  0.18617  0.16990  0.55561  1.0000
  H   H206      1.0  0.00681  0.42887  0.34657  1.0000
  C   C192      1.0  0.17329  0.21124  0.58470  1.0000
  C   C193      1.0  0.15424  0.21073  0.53927  1.0000
  C   C194      1.0  0.15769  0.22338  0.51369  1.0000
  C   C195      1.0  0.12495  0.20428  0.54675  1.0000
  C   C196      1.0  0.13317  0.23013  0.49728  1.0000
  C   C197      1.0  0.10060  0.21132  0.53028  1.0000
  C   C198      1.0  0.10467  0.22430  0.50563  1.0000
  H   H207      1.0  0.20545  0.16266  0.56832  1.0000
  C   C199      1.0  0.02518  0.33134  0.42935  1.0000
  H   H208      1.0  0.19151  0.16245  0.53506  1.0000
  H   H209      1.0  0.45997  0.03430  0.51349  1.0000
  S   S64       1.0  0.99465  0.50214  0.46175  1.0000
  C   C200      1.0  0.32911  0.11902  0.32862  1.0000
  H   H210      1.0  0.15613  0.19774  0.59381  1.0000
  H   H211      1.0  0.12653  0.49468  0.50768  1.0000
  C   C201      1.0  0.31730  0.33312  0.34698  1.0000
  C   C202      1.0  0.10433  0.47717  0.54075  1.0000
  C   C203      1.0  0.01448  0.45086  0.34283  1.0000
  H   H212      1.0  0.00338  0.44908  0.62340  1.0000
  S   S65       1.0  0.27944  0.49723  0.52405  1.0000
  H   H213      1.0  0.02545  0.35292  0.43880  1.0000
  S   S66       1.0  0.06164  0.47119  0.46005  1.0000
  C   C204      1.0  0.02037  0.45963  0.31674  1.0000
  C   C205      1.0  0.03669  0.50814  0.59673  1.0000
  C   C206      1.0  0.35144  0.34509  0.42579  1.0000
  C   C207      1.0  0.37426  0.15593  0.34307  1.0000
  C   C208      1.0  0.40359  0.11756  0.47342  1.0000
  C   C209      1.0  0.30154  0.32055  0.61902  1.0000
  C   C210      1.0  0.40510  0.05441  0.47494  1.0000
  C   C211      1.0  0.35035  0.14646  0.40825  1.0000
  H   H214      1.0  0.98864  0.40019  0.38906  1.0000
  H   H215      1.0  0.32945  0.10418  0.36858  1.0000
  H   H216      1.0  0.21662  0.20856  0.53009  1.0000
  H   H217      1.0  0.46973  0.10107  0.63413  1.0000
  H   H218      1.0  0.22547  0.21310  0.56378  1.0000
  C   C212      1.0  0.38350  0.10410  0.39759  1.0000
  H   H219      1.0  0.03504  0.35656  0.36325  1.0000
  C   C213      1.0  0.10447  0.46694  0.35638  1.0000
  N   N12       1.0  0.32366  0.36191  0.41754  1.0000
  H   H220      1.0  0.05589  0.17211  0.50041  1.0000
  C   C214      1.0  0.03822  0.30709  0.44348  1.0000
  H   H221      1.0  0.12449  0.14915  0.32199  1.0000
  H   H222      1.0  0.40034  0.09428  0.38355  1.0000
  C   C215      1.0  0.36649  0.13122  0.60291  1.0000
  H   H223      1.0  0.27661  0.35843  0.42242  1.0000
  H   H224      1.0  0.21035  0.49964  0.49804  1.0000
  H   H225      1.0  0.30381  0.40638  0.42384  1.0000
  C   C216      1.0  0.01190  0.46369  0.60855  1.0000
  H   H226      1.0  0.39335  0.10279  0.41782  1.0000
  H   H227      1.0  0.34222  0.52290  0.46771  1.0000
  C   C217      1.0  0.03394  0.50131  0.56963  1.0000
  H   H228      1.0  0.32111  0.41011  0.38115  1.0000
  H   H229      1.0  0.34390  0.40413  0.42170  1.0000
  C   C218      1.0  0.32006  0.38808  0.37265  1.0000
  Fe  Fe36      1.0  0.25563  0.52248  0.34807  1.0000
  C   C219      1.0  0.32115  0.36161  0.38830  1.0000
  H   H230      1.0  0.02055  0.12508  0.49674  1.0000
  H   H231      1.0  0.01600  0.08604  0.49135  1.0000
  C   C220      1.0  0.21302  0.21538  0.32066  1.0000
  C   C221      1.0  0.16529  0.19371  0.32493  1.0000
  S   S67       1.0  0.01735  0.46500  0.52806  1.0000
  H   H232      1.0  0.22206  0.51564  0.40479  1.0000
  H   H233      1.0  0.02324  0.38781  0.40355  1.0000
  H   H234      1.0  0.17591  0.45494  0.30705  1.0000
  H   H235      1.0  0.21491  0.49331  0.55536  1.0000
  C   C222      1.0  0.13216  0.46968  0.34361  1.0000
  C   C223      1.0  0.32651  0.11061  0.62986  1.0000
  H   H236      1.0  0.37114  0.35405  0.41602  1.0000
  C   C224      1.0  0.31621  0.35947  0.33227  1.0000
  H   H237      1.0  0.26812  0.16605  0.31287  1.0000
  H   H238      1.0  0.09565  0.50931  0.31750  1.0000
  H   H239      1.0  0.42758  0.15662  0.57128  1.0000
  C   C225      1.0  0.18095  0.51791  0.42698  1.0000
  C   C226      1.0  0.12838  0.45769  0.39869  1.0000
  N   N13       1.0  0.99737  0.35223  0.38872  1.0000
  C   C227      1.0  0.02980  0.19144  0.43860  1.0000
  H   H240      1.0  0.35122  0.32086  0.42114  1.0000
  H   H241      1.0  0.99174  0.22144  0.43113  1.0000
  H   H242      1.0  0.29719  0.27397  0.62740  1.0000
  C   C228      1.0  0.46529  0.02928  0.59189  1.0000
  C   C229      1.0  0.44843  0.08408  0.53903  1.0000
  H   H243      1.0  0.00748  0.33339  0.35002  1.0000
  H   H244      1.0  0.33978  0.14881  0.54067  1.0000
  H   H245      1.0  0.98867  0.38337  0.42090  1.0000
  H   H246      1.0  0.32319  0.13052  0.58274  1.0000
  H   H247      1.0  0.09248  0.45712  0.30362  1.0000
  C   C230      1.0  0.15432  0.49624  0.54308  1.0000
  H   H248      1.0  0.19685  0.46780  0.51468  1.0000
  C   C231      1.0  0.46967  0.03876  0.35980  1.0000
  C   C232      1.0  0.29962  0.20535  0.62343  1.0000
  H   H249      1.0  0.25902  0.51660  0.47233  1.0000
  C   C233      1.0  0.35566  0.14565  0.55677  1.0000
  C   C234      1.0  0.02644  0.27374  0.40808  1.0000
  H   H250      1.0  0.08639  0.46097  0.57707  1.0000
  H   H251      1.0  0.14697  0.18969  0.33790  1.0000
  H   H252      1.0  0.45558  0.10641  0.54485  1.0000
  C   C235      1.0  0.00925  0.10538  0.50425  1.0000
  C   C236      1.0  0.30585  0.34875  0.62961  1.0000
  H   H253      1.0  0.19309  0.20744  0.59777  1.0000
  H   H254      1.0  0.17318  0.49300  0.58326  1.0000
  H   H255      1.0  0.18759  0.21602  0.35648  1.0000
  C   C237      1.0  0.03115  0.48773  0.31183  1.0000
  C   C238      1.0  0.44393  0.03084  0.37248  1.0000
  H   H256      1.0  0.41230  0.13774  0.61435  1.0000
  H   H257      1.0  0.18503  0.14343  0.61373  1.0000
  Fe  Fe37      1.0  0.02025  0.18864  0.62429  1.0000
  C   C239      1.0  0.03886  0.27838  0.43287  1.0000
  Fe  Fe38      1.0  0.01697  0.19355  0.30770  1.0000
  H   H258      1.0  0.31433  0.35872  0.31089  1.0000
  C   C240      1.0  0.01073  0.35374  0.36196  1.0000
  N   N14       1.0  0.35764  0.11976  0.62907  1.0000
  C   C241      1.0  0.46432  0.02788  0.61953  1.0000
  C   C242      1.0  0.20493  0.51485  0.54749  1.0000
  H   H259      1.0  0.99896  0.43658  0.57564  1.0000
  C   C243      1.0  0.99969  0.38200  0.40123  1.0000
  H   H260      1.0  0.31091  0.10551  0.32312  1.0000
  C   C244      1.0  0.15455  0.48909  0.57054  1.0000
  N   N15       1.0  0.17933  0.51009  0.52973  1.0000
  H   H261      1.0  0.02691  0.25131  0.39993  1.0000
  S   S68       1.0  0.12892  0.51929  0.45547  1.0000
  H   H262      1.0  0.08392  0.46977  0.34555  1.0000
  H   H263      1.0  0.31039  0.12996  0.62633  1.0000
  H   H264      1.0  0.37096  0.17220  0.30284  1.0000
  N   N16       1.0  0.13320  0.47723  0.31506  1.0000
  H   H265      1.0  0.99109  0.15156  0.46746  1.0000
  H   H266      1.0  0.17690  0.49449  0.31390  1.0000
  H   H267      1.0  0.35302  0.51637  0.51097  1.0000
  H   H268      1.0  0.32263  0.09288  0.61508  1.0000
  Fe  Fe39      1.0  0.07850  0.51727  0.45648  1.0000
  H   H269      1.0  0.04879  0.25959  0.44391  1.0000
  S   S69       1.0  0.98851  0.17650  0.59227  1.0000
  C   C245      1.0  0.46764  0.08122  0.62213  1.0000
  H   H270      1.0  0.10583  0.18356  0.31000  1.0000
  H   H271      1.0  0.29946  0.31782  0.59777  1.0000
  C   C246      1.0  0.11734  0.16197  0.30400  1.0000
  H   H272      1.0  0.44791  0.08458  0.51702  1.0000
  C   C247      1.0  0.17338  0.14611  0.63231  1.0000
  C   C248      1.0  0.46663  0.05704  0.57843  1.0000
  C   C249      1.0  0.14216  0.14780  0.63255  1.0000
  C   C250      1.0  0.46997  0.04298  0.33236  1.0000
  H   H273      1.0  0.13119  0.52465  0.32168  1.0000
  C   C251      1.0  0.41810  0.02770  0.35786  1.0000
  H   H274      1.0  0.39751  0.02938  0.31991  1.0000
  H   H275      1.0  0.44424  0.02670  0.39365  1.0000
  H   H276      1.0  0.35580  0.52508  0.42118  1.0000
  Fe  Fe40      1.0  0.30824  0.12674  0.71436  1.0000
  S   S70       1.0  0.32769  0.17102  0.71955  1.0000
  S   S71       1.0  0.33739  0.08428  0.70869  1.0000
  Fe  Fe41      1.0  0.24451  0.15467  0.71353  1.0000
  S   S72       1.0  0.26006  0.20103  0.71927  1.0000
  S   S73       1.0  0.19460  0.14968  0.71087  1.0000
  Fe  Fe42      1.0  0.29440  0.18707  0.68902  1.0000
  S   S74       1.0  0.30929  0.21606  0.65569  1.0000
  Fe  Fe43      1.0  0.29165  0.18026  0.74963  1.0000
  S   S75       1.0  0.30570  0.20509  0.78660  1.0000
  S   S76       1.0  0.27723  0.14199  0.68156  1.0000
  S   S77       1.0  0.27373  0.13462  0.74632  1.0000
  Fe  Fe44      1.0  0.30621  0.19846  0.94480  1.0000
  S   S78       1.0  0.28469  0.17769  0.90882  1.0000
  S   S79       1.0  0.34908  0.22153  0.94648  1.0000
  C   C252      1.0  0.36056  0.14330  0.64936  1.0000
  H   H277      1.0  0.46266  0.04507  0.75010  1.0000
  C   C253      1.0  0.30392  0.29921  0.66283  1.0000
  H   H278      1.0  0.27135  0.49950  0.75196  1.0000
  S   S80       1.0  0.03732  0.23411  0.83750  1.0000
  Fe  Fe45      1.0  0.02110  0.20100  0.80833  1.0000
  S   S81       1.0  0.04975  0.18397  0.77417  1.0000
  N   N17       1.0  0.03126  0.30935  0.68164  1.0000
  S   S82       1.0  0.04333  0.18976  0.90649  1.0000
  H   H279      1.0  0.31997  0.35610  0.94749  1.0000
  Fe  Fe46      1.0  0.30397  0.48557  0.87655  1.0000
  H   H280      1.0  0.41179  0.12039  0.87294  1.0000
  S   S83       1.0  0.31906  0.45605  0.91117  1.0000
  Fe  Fe47      1.0  0.30388  0.49279  0.81545  1.0000
  H   H281      1.0  0.38379  0.15407  0.89582  1.0000
  S   S84       1.0  0.32406  0.47126  0.77802  1.0000
  H   H282      1.0  0.30766  0.35623  0.91394  1.0000
  H   H283      1.0  0.31131  0.32818  0.69483  1.0000
  S   S85       1.0  0.33738  0.50090  0.84746  1.0000
  S   S86       1.0  0.27273  0.47240  0.84442  1.0000
  S   S87       1.0  0.28841  0.48881  0.65616  1.0000
  H   H284      1.0  0.05835  0.49331  0.87705  1.0000
  C   C254      1.0  0.43032  0.09464  0.79002  1.0000
  C   C255      1.0  0.05602  0.49204  0.83446  1.0000
  H   H285      1.0  0.38281  0.41919  0.91260  1.0000
  H   H286      1.0  0.18991  0.47979  0.77531  1.0000
  H   H287      1.0  0.46573  0.05235  0.65603  1.0000
  C   C256      1.0  0.00806  0.21444  0.94697  1.0000
  H   H288      1.0  0.03451  0.27278  0.65382  1.0000
  S   S88       1.0  0.03004  0.49919  0.65017  1.0000
  H   H289      1.0  0.26840  0.39655  0.66625  1.0000
  H   H290      1.0  0.32574  0.13126  0.87672  1.0000
  C   C257      1.0  0.31453  0.47850  0.74432  1.0000
  C   C258      1.0  0.28710  0.49212  0.73689  1.0000
  C   C259      1.0  0.27969  0.49550  0.70984  1.0000
  C   C260      1.0  0.29976  0.48586  0.68990  1.0000
  C   C261      1.0  0.32753  0.47301  0.69734  1.0000
  C   C262      1.0  0.33470  0.46906  0.72437  1.0000
  C   C263      1.0  0.99330  0.35728  0.80119  1.0000
  H   H291      1.0  0.33684  0.36985  0.70425  1.0000
  H   H292      1.0  0.34339  0.46597  0.68228  1.0000
  H   H293      1.0  0.35606  0.45868  0.72990  1.0000
  C   C264      1.0  0.30903  0.46819  0.94335  1.0000
  C   C265      1.0  0.34298  0.39338  0.65649  1.0000
  C   C266      1.0  0.28747  0.49140  0.94736  1.0000
  H   H294      1.0  0.36084  0.32112  0.93613  1.0000
  S   S89       1.0  0.05189  0.49162  0.78037  1.0000
  C   C267      1.0  0.03264  0.19568  0.93998  1.0000
  H   H295      1.0  0.32080  0.10144  0.64963  1.0000
  H   H296      1.0  0.31949  0.12002  0.92275  1.0000
  H   H297      1.0  0.38387  0.14940  0.65215  1.0000
  H   H298      1.0  0.38191  0.03700  0.70191  1.0000
  H   H299      1.0  0.32113  0.40726  0.70419  1.0000
  H   H300      1.0  0.30338  0.27969  0.67553  1.0000
  C   C268      1.0  0.03636  0.19276  0.74208  1.0000
  C   C269      1.0  0.04935  0.17812  0.72008  1.0000
  C   C270      1.0  0.03972  0.18562  0.69431  1.0000
  C   C271      1.0  0.30850  0.32733  0.67364  1.0000
  H   H301      1.0  0.00891  0.11353  0.68486  1.0000
  H   H302      1.0  0.06700  0.16105  0.72294  1.0000
  H   H303      1.0  0.05027  0.17458  0.67754  1.0000
  H   H304      1.0  0.38283  0.14112  0.92937  1.0000
  S   S90       1.0  0.02005  0.44753  0.89555  1.0000
  H   H305      1.0  0.12587  0.20428  0.76492  1.0000
  C   C272      1.0  0.17876  0.52368  0.92850  1.0000
  H   H306      1.0  0.14992  0.51537  0.81549  1.0000
  H   H307      1.0  0.10151  0.14864  0.79199  1.0000
  S   S91       1.0  0.20184  0.52520  0.85035  1.0000
  C   C273      1.0  0.17498  0.14985  0.68036  1.0000
  C   C274      1.0  0.18973  0.14740  0.65605  1.0000
  C   C275      1.0  0.36999  0.14293  0.91056  1.0000
  H   H308      1.0  0.35035  0.15868  0.91408  1.0000
  C   C276      1.0  0.12740  0.15099  0.65679  1.0000
  C   C277      1.0  0.14375  0.15174  0.68058  1.0000
  H   H309      1.0  0.21372  0.14582  0.65558  1.0000
  H   H310      1.0  0.10341  0.15228  0.65729  1.0000
  H   H311      1.0  0.13210  0.15356  0.69923  1.0000
  C   C278      1.0  0.30050  0.19615  0.82041  1.0000
  C   C279      1.0  0.31375  0.21347  0.83988  1.0000
  C   C280      1.0  0.30938  0.20799  0.86703  1.0000
  C   C281      1.0  0.29126  0.18539  0.87496  1.0000
  C   C282      1.0  0.27813  0.16794  0.85550  1.0000
  C   C283      1.0  0.28298  0.17304  0.82836  1.0000
  H   H312      1.0  0.32733  0.23140  0.83390  1.0000
  H   H313      1.0  0.31964  0.22155  0.88177  1.0000
  H   H314      1.0  0.26407  0.15039  0.86146  1.0000
  H   H315      1.0  0.27262  0.15957  0.81361  1.0000
  C   C284      1.0  0.37661  0.08444  0.70864  1.0000
  C   C285      1.0  0.39322  0.05743  0.70458  1.0000
  C   C286      1.0  0.45045  0.03622  0.81582  1.0000
  N   N18       1.0  0.14486  0.16467  0.78391  1.0000
  C   C287      1.0  0.15634  0.13429  0.77603  1.0000
  C   C288      1.0  0.13354  0.18091  0.76000  1.0000
  C   C289      1.0  0.16911  0.18091  0.79612  1.0000
  C   C290      1.0  0.19505  0.18632  0.78139  1.0000
  C   C291      1.0  0.16813  0.19135  0.82273  1.0000
  C   C292      1.0  0.21854  0.20100  0.79259  1.0000
  C   C293      1.0  0.19185  0.20593  0.83375  1.0000
  C   C294      1.0  0.21696  0.21074  0.81872  1.0000
  H   H316      1.0  0.13874  0.12134  0.76673  1.0000
  H   H317      1.0  0.16543  0.12147  0.79339  1.0000
  H   H318      1.0  0.15060  0.18176  0.74421  1.0000
  H   H319      1.0  0.19751  0.17903  0.76109  1.0000
  H   H320      1.0  0.14938  0.18845  0.83552  1.0000
  H   H321      1.0  0.23829  0.20460  0.78104  1.0000
  H   H322      1.0  0.19091  0.21338  0.85416  1.0000
  H   H323      1.0  0.23543  0.22179  0.82737  1.0000
  C   C295      1.0  0.99252  0.38200  0.92315  1.0000
  C   C296      1.0  0.24165  0.43156  0.94564  1.0000
  H   H324      1.0  0.45603  0.08645  0.86951  1.0000
  H   H325      1.0  0.02424  0.32455  0.73391  1.0000
  C   C297      1.0  0.13430  0.45771  0.81552  1.0000
  C   C298      1.0  0.14502  0.46119  0.84169  1.0000
  C   C299      1.0  0.11012  0.43902  0.81224  1.0000
  C   C300      1.0  0.13195  0.44760  0.86328  1.0000
  C   C301      1.0  0.09755  0.42504  0.83393  1.0000
  C   C302      1.0  0.10818  0.42962  0.85942  1.0000
  H   H326      1.0  0.36926  0.08228  0.65466  1.0000
  H   H327      1.0  0.37741  0.37771  0.88388  1.0000
  H   H328      1.0  0.48138  0.06149  0.77717  1.0000
  H   H329      1.0  0.29245  0.42693  0.66882  1.0000
  Fe  Fe48      1.0  0.07802  0.51055  0.95789  1.0000
  H   H330      1.0  0.18640  0.44481  0.79229  1.0000
  H   H331      1.0  0.34178  0.39612  0.63466  1.0000
  H   H332      1.0  0.37914  0.13168  0.71508  1.0000
  H   H333      1.0  0.16313  0.47522  0.84577  1.0000
  H   H334      1.0  0.09976  0.43564  0.79328  1.0000
  H   H335      1.0  0.13991  0.45164  0.88316  1.0000
  H   H336      1.0  0.07860  0.41157  0.83105  1.0000
  H   H337      1.0  0.09751  0.41977  0.87624  1.0000
  H   H338      1.0  0.01550  0.30126  0.88379  1.0000
  H   H339      1.0  0.34422  0.40102  0.89077  1.0000
  C   C303      1.0  0.06310  0.26699  0.70308  1.0000
  H   H340      1.0  0.06590  0.29624  0.65393  1.0000
  C   C304      1.0  0.39074  0.06378  0.77630  1.0000
  S   S92       1.0  0.00700  0.17010  0.84035  1.0000
  C   C305      1.0  0.04137  0.29615  0.65600  1.0000
  H   H341      1.0  0.34889  0.08749  0.76750  1.0000
  S   S93       1.0  0.00426  0.21783  0.65841  1.0000
  H   H342      1.0  0.36686  0.13723  0.77747  1.0000
  C   C306      1.0  0.46854  0.04216  0.77134  1.0000
  C   C307      1.0  0.98959  0.10123  0.67786  1.0000
  H   H343      1.0  0.40032  0.09905  0.64089  1.0000
  C   C308      1.0  0.03515  0.30446  0.95828  1.0000
  H   H344      1.0  0.06857  0.25644  0.68439  1.0000
  H   H345      1.0  0.19093  0.47885  0.81024  1.0000
  H   H346      1.0  0.36462  0.50634  0.95989  1.0000
  H   H347      1.0  0.45285  0.09786  0.79617  1.0000
  H   H348      1.0  0.13961  0.44165  0.76319  1.0000
  C   C309      1.0  0.04451  0.29364  0.70502  1.0000
  C   C310      1.0  0.18144  0.52451  0.88042  1.0000
  H   H349      1.0  0.28912  0.40830  0.63814  1.0000
  C   C311      1.0  0.03892  0.34114  0.68176  1.0000
  C   C312      1.0  0.15030  0.52379  0.87958  1.0000
  S   S94       1.0  0.06464  0.46298  0.96040  1.0000
  H   H350      1.0  0.38845  0.33112  0.91269  1.0000
  C   C313      1.0  0.39151  0.11074  0.71179  1.0000
  C   C314      1.0  0.36434  0.33345  0.91739  1.0000
  H   H351      1.0  0.17446  0.13482  0.76123  1.0000
  H   H352      1.0  0.00400  0.42713  0.84387  1.0000
  H   H353      1.0  0.44593  0.05987  0.96067  1.0000
  N   N19       1.0  0.44155  0.03903  0.78761  1.0000
  C   C315      1.0  0.34638  0.11647  0.87554  1.0000
  C   C316      1.0  0.33868  0.10330  0.92090  1.0000
  H   H354      1.0  0.34840  0.10041  0.94108  1.0000
  H   H355      1.0  0.11436  0.17001  0.75098  1.0000
  N   N20       1.0  0.36107  0.11315  0.90173  1.0000
  H   H356      1.0  0.36077  0.12660  0.86057  1.0000
  H   H357      1.0  0.21942  0.52540  0.90612  1.0000
  C   C317      1.0  0.03818  0.30450  0.73089  1.0000
  H   H358      1.0  0.37235  0.05596  0.92471  1.0000
  C   C318      1.0  0.17989  0.46913  0.79280  1.0000
  C   C319      1.0  0.04884  0.48273  0.86010  1.0000
  H   H359      1.0  0.34009  0.09448  0.86777  1.0000
  H   H360      1.0  0.32919  0.08205  0.91468  1.0000
  Fe  Fe49      1.0  0.03052  0.47761  0.92994  1.0000
  S   S95       1.0  0.04535  0.52434  0.92583  1.0000
  C   C320      1.0  0.02105  0.32965  0.94631  1.0000
  H   H361      1.0  0.07474  0.25106  0.76831  1.0000
  C   C321      1.0  0.42439  0.05665  0.70378  1.0000
  C   C322      1.0  0.02579  0.45450  0.81578  1.0000
  C   C323      1.0  0.01340  0.32968  0.91896  1.0000
  H   H362      1.0  0.31408  0.39104  0.93025  1.0000
  H   H363      1.0  0.20620  0.45261  0.92258  1.0000
  H   H364      1.0  0.34126  0.36465  0.87758  1.0000
  C   C324      1.0  0.38169  0.11744  0.77976  1.0000
  C   C325      1.0  0.01699  0.20776  0.69039  1.0000
  H   H365      1.0  0.00916  0.13454  0.90555  1.0000
  C   C326      1.0  0.38751  0.09208  0.89940  1.0000
  S   S96       1.0  0.00290  0.51502  0.71982  1.0000
  H   H366      1.0  0.01376  0.39044  0.93058  1.0000
  H   H367      1.0  0.36197  0.37708  0.66065  1.0000
  Fe  Fe50      1.0  0.99134  0.25590  0.83361  1.0000
  H   H368      1.0  0.01628  0.34872  0.95895  1.0000
  Fe  Fe51      1.0  0.02018  0.47935  0.74789  1.0000
  H   H369      1.0  0.34728  0.16410  0.64385  1.0000
  H   H370      1.0  0.34850  0.41545  0.66461  1.0000
  H   H371      1.0  0.04291  0.29764  0.77295  1.0000
  S   S97       1.0  0.47863  0.08270  0.70663  1.0000
  H   H372      1.0  0.08779  0.23160  0.72382  1.0000
  N   N21       1.0  0.31496  0.38313  0.66770  1.0000
  H   H373      1.0  0.03051  0.35325  0.66376  1.0000
  C   C327      1.0  0.41484  0.04427  0.90926  1.0000
  H   H374      1.0  0.29696  0.37727  0.70677  1.0000
  C   C328      1.0  0.38959  0.06365  0.91204  1.0000
  C   C329      1.0  0.31755  0.38421  0.69702  1.0000
  H   H375      1.0  0.35217  0.32119  0.90202  1.0000
  H   H376      1.0  0.41895  0.14205  0.79144  1.0000
  C   C330      1.0  0.13361  0.52171  0.90299  1.0000
  H   H377      1.0  0.01824  0.34776  0.86725  1.0000
  H   H378      1.0  0.27568  0.50142  0.93073  1.0000
  C   C331      1.0  0.98881  0.12174  0.90336  1.0000
  C   C332      1.0  0.06708  0.26328  0.75083  1.0000
  C   C333      1.0  0.42273  0.10992  0.71109  1.0000
  C   C334      1.0  0.30962  0.35305  0.65722  1.0000
  Fe  Fe52      1.0  0.01826  0.20575  0.86936  1.0000
  C   C335      1.0  0.04412  0.47828  0.81225  1.0000
  H   H379      1.0  0.99373  0.09837  0.91011  1.0000
  H   H380      1.0  0.25369  0.42282  0.92852  1.0000
  C   C336      1.0  0.04904  0.28936  0.75341  1.0000
  C   C337      1.0  0.41197  0.09942  0.88349  1.0000
  N   N22       1.0  0.35377  0.36542  0.91894  1.0000
  C   C338      1.0  0.35435  0.37779  0.89166  1.0000
  H   H381      1.0  0.35258  0.13610  0.66908  1.0000
  H   H382      1.0  0.02881  0.35384  0.69872  1.0000
  C   C339      1.0  0.00413  0.22244  0.71236  1.0000
  C   C340      1.0  0.42083  0.06566  0.78431  1.0000
  C   C341      1.0  0.02086  0.30309  0.90457  1.0000
  C   C342      1.0  0.13555  0.46598  0.76698  1.0000
  C   C343      1.0  0.01565  0.36519  0.88283  1.0000
  C   C344      1.0  0.41103  0.12009  0.78760  1.0000
  H   H383      1.0  0.43667  0.03575  0.70026  1.0000
  H   H384      1.0  0.43406  0.13033  0.71381  1.0000
  H   H385      1.0  0.10978  0.52051  0.90193  1.0000
  H   H386      1.0  0.33717  0.51977  0.92336  1.0000
  C   C345      1.0  0.01384  0.21505  0.73806  1.0000
  C   C346      1.0  0.02991  0.45942  0.86367  1.0000
  H   H387      1.0  0.25819  0.50556  0.70433  1.0000
  C   C347      1.0  0.43726  0.08000  0.88112  1.0000
  S   S98       1.0  0.03115  0.44628  0.71547  1.0000
  Fe  Fe53      1.0  0.00946  0.48046  0.68760  1.0000
  C   C348      1.0  0.11919  0.16110  0.80178  1.0000
  H   H388      1.0  0.07066  0.51010  0.83191  1.0000
  H   H389      1.0  0.43069  0.03534  0.82889  1.0000
  H   H390      1.0  0.17943  0.47352  0.96067  1.0000
  C   C349      1.0  0.43935  0.08285  0.70721  1.0000
  C   C350      1.0  0.43873  0.05250  0.89406  1.0000
  H   H391      1.0  0.04043  0.25802  0.90531  1.0000
  H   H392      1.0  0.06336  0.34305  0.68286  1.0000
  S   S99       1.0  0.99569  0.48976  0.96039  1.0000
  C   C351      1.0  0.04975  0.18149  0.96015  1.0000
  H   H393      1.0  0.03820  0.37105  0.88925  1.0000
  C   C352      1.0  0.07439  0.25234  0.72573  1.0000
  H   H394      1.0  0.10845  0.18313  0.80758  1.0000
  N   N23       1.0  0.14707  0.47440  0.79336  1.0000
  H   H395      1.0  0.12574  0.14823  0.81990  1.0000
  C   C353      1.0  0.32251  0.36729  0.92804  1.0000
  C   C354      1.0  0.37157  0.08936  0.77426  1.0000
  C   C355      1.0  0.03513  0.27816  0.91669  1.0000
  H   H396      1.0  0.46354  0.05508  0.82247  1.0000
  C   C356      1.0  0.40127  0.42387  0.95078  1.0000
  C   C357      1.0  0.01865  0.44516  0.84140  1.0000
  C   C358      1.0  0.21500  0.44840  0.94232  1.0000
  H   H397      1.0  0.06887  0.16702  0.95496  1.0000
  C   C359      1.0  0.37206  0.38149  0.93804  1.0000
  C   C360      1.0  0.04224  0.27884  0.94349  1.0000
  H   H398      1.0  0.11529  0.51155  0.79853  1.0000
  C   C361      1.0  0.99851  0.30822  0.68262  1.0000
  H   H399      1.0  0.01701  0.44333  0.79879  1.0000
  C   C362      1.0  0.99011  0.37443  0.77785  1.0000
  H   H400      1.0  0.11132  0.47193  0.76505  1.0000
  H   H401      1.0  0.33902  0.43588  0.96262  1.0000
  C   C363      1.0  0.38523  0.40871  0.93180  1.0000
  H   H402      1.0  0.99490  0.22589  0.93175  1.0000
  H   H403      1.0  0.00446  0.22732  0.75463  1.0000
  H   H404      1.0  0.41089  0.44470  0.94564  1.0000
  C   C364      1.0  0.29016  0.40452  0.65987  1.0000
  H   H405      1.0  0.98889  0.31994  0.70025  1.0000
  H   H406      1.0  0.38148  0.04292  0.77102  1.0000
  H   H407      1.0  0.03140  0.30870  0.63884  1.0000
  H   H408      1.0  0.99700  0.39712  0.77748  1.0000
  H   H409      1.0  0.00235  0.36715  0.81874  1.0000
  H   H410      1.0  0.44729  0.11495  0.96167  1.0000
  C   C365      1.0  0.14775  0.52161  0.92765  1.0000
  Fe  Fe54      1.0  0.25247  0.51919  0.84943  1.0000
  H   H411      1.0  0.45854  0.03760  0.89258  1.0000
  H   H412      1.0  0.05296  0.25927  0.95288  1.0000
  H   H413      1.0  0.26547  0.17668  0.63550  1.0000
  H   H414      1.0  0.99181  0.28469  0.68324  1.0000
  H   H415      1.0  0.00503  0.38528  0.87296  1.0000
  N   N24       1.0  0.99786  0.35560  0.90566  1.0000
  H   H416      1.0  0.01366  0.11763  0.94845  1.0000
  C   C366      1.0  0.99499  0.12735  0.95939  1.0000
  H   H417      1.0  0.14627  0.47810  0.75066  1.0000
  C   C367      1.0  0.13977  0.50678  0.79714  1.0000
  C   C368      1.0  0.37721  0.09327  0.63645  1.0000
  C   C369      1.0  0.30047  0.29585  0.63562  1.0000
  H   H418      1.0  0.14810  0.52029  0.78054  1.0000
  S   S100      1.0  0.12763  0.51850  0.95769  1.0000
  C   C370      1.0  0.32287  0.45429  0.96538  1.0000
  C   C371      1.0  0.19557  0.52444  0.90507  1.0000
  H   H419      1.0  0.19002  0.52454  0.94731  1.0000
  H   H420      1.0  0.99424  0.09396  0.65708  1.0000
  C   C372      1.0  0.37592  0.37072  0.96431  1.0000
  H   H421      1.0  0.98885  0.08057  0.68994  1.0000
  S   S101      1.0  0.98951  0.30678  0.83169  1.0000
  H   H422      1.0  0.13889  0.52456  0.86077  1.0000
  C   C373      1.0  0.19993  0.46053  0.96430  1.0000
  H   H423      1.0  0.98759  0.31921  0.66510  1.0000
  C   C374      1.0  0.46548  0.05375  0.63460  1.0000
  H   H424      1.0  0.00204  0.55275  0.28728  1.0000
  H   H425      1.0  0.40203  0.63703  0.13850  1.0000
  H   H426      1.0  0.45205  0.86069  0.06779  1.0000
  Fe  Fe55      1.0  0.45140  0.68638  0.08237  1.0000
  S   S102      1.0  0.46855  0.87515  0.97221  1.0000
  S   S103      1.0  0.40942  0.66059  0.08369  1.0000
  C   C375      1.0  0.31665  0.56477  0.25123  1.0000
  H   H427      1.0  0.42753  0.52881  0.22049  1.0000
  H   H428      1.0  0.44251  0.63517  0.03581  1.0000
  C   C376      1.0  0.44596  0.55654  0.19087  1.0000
  H   H429      1.0  0.45297  0.99897  0.12959  1.0000
  C   C377      1.0  0.42812  0.59515  0.01762  1.0000
  H   H430      1.0  0.46832  0.01064  0.04023  1.0000
  Fe  Fe56      1.0  0.47082  0.92581  0.97000  1.0000
  H   H431      1.0  0.31027  0.58368  0.23781  1.0000
  C   C378      1.0  0.35148  0.56499  0.20012  1.0000
  C   C379      1.0  0.46712  0.81939  0.04895  1.0000
  H   H432      1.0  0.33988  0.59743  0.98457  1.0000
  C   C380      1.0  0.34777  0.57459  0.98829  1.0000
  C   C381      1.0  0.42984  0.57683  0.99536  1.0000
  H   H433      1.0  0.40178  0.63412  0.25718  1.0000
  S   S104      1.0  0.48670  0.00004  0.20814  1.0000
  H   H434      1.0  0.41638  0.71175  0.16103  1.0000
  N   N25       1.0  0.41957  0.66417  0.16943  1.0000
  C   C382      1.0  0.40407  0.69128  0.15787  1.0000
  C   C383      1.0  0.47513  0.80603  0.02478  1.0000
  H   H435      1.0  0.48127  0.78236  0.02404  1.0000
  H   H436      1.0  0.36071  0.60040  0.24349  1.0000
  H   H437      1.0  0.98927  0.55608  0.08003  1.0000
  H   H438      1.0  0.31089  0.57243  0.27169  1.0000
  C   C384      1.0  0.40920  0.55846  0.09305  1.0000
  C   C385      1.0  0.43591  0.57294  0.09497  1.0000
  C   C386      1.0  0.43637  0.60411  0.09185  1.0000
  C   C387      1.0  0.41004  0.62118  0.08681  1.0000
  C   C388      1.0  0.38326  0.60676  0.08513  1.0000
  C   C389      1.0  0.38282  0.57553  0.08815  1.0000
  H   H439      1.0  0.45644  0.55990  0.09870  1.0000
  H   H440      1.0  0.45712  0.61481  0.09333  1.0000
  H   H441      1.0  0.36273  0.61980  0.08142  1.0000
  H   H442      1.0  0.36206  0.56475  0.08674  1.0000
  S   S105      1.0  0.40099  0.01975  0.97850  1.0000
  H   H443      1.0  0.41481  0.58920  0.03445  1.0000
  H   H444      1.0  0.40142  0.68930  0.13598  1.0000
  H   H445      1.0  0.47399  0.57773  0.28854  1.0000
  H   H446      1.0  0.01086  0.53322  0.05764  1.0000
  H   H447      1.0  0.36750  0.53081  0.04122  1.0000
  H   H448      1.0  0.46322  0.64204  0.16747  1.0000
  C   C390      1.0  0.42119  0.66710  0.19861  1.0000
  H   H449      1.0  0.45378  0.89131  0.02699  1.0000
  C   C391      1.0  0.35780  0.55604  0.17410  1.0000
  C   C392      1.0  0.36664  0.58039  0.25575  1.0000
  C   C393      1.0  0.41094  0.65008  0.24381  1.0000
  H   H450      1.0  0.44466  0.70836  0.19799  1.0000
  S   S106      1.0  0.45903  0.95796  0.00282  1.0000
  H   H451      1.0  0.48086  0.81264  0.98287  1.0000
  C   C394      1.0  0.40339  0.63803  0.16048  1.0000
  H   H452      1.0  0.39923  0.62634  0.20947  1.0000
  C   C395      1.0  0.43632  0.69535  0.23760  1.0000
  C   C396      1.0  0.43487  0.69170  0.21015  1.0000
  H   H453      1.0  0.46415  0.62526  0.26770  1.0000
  H   H454      1.0  0.34990  0.58257  0.03038  1.0000
  C   C397      1.0  0.44381  0.62098  0.01838  1.0000
  C   C398      1.0  0.44243  0.54645  0.21669  1.0000
  H   H455      1.0  0.44707  0.71425  0.24600  1.0000
  H   H456      1.0  0.42542  0.67780  0.27566  1.0000
  H   H457      1.0  0.43390  0.54675  0.17471  1.0000
  C   C399      1.0  0.42420  0.67474  0.25438  1.0000
  H   H458      1.0  0.41476  0.61657  0.16683  1.0000
  C   C400      1.0  0.40956  0.64602  0.21634  1.0000
  C   C401      1.0  0.45483  0.02422  0.09332  1.0000
  S   S107      1.0  0.46858  0.79891  0.07915  1.0000
  C   C402      1.0  0.45985  0.86763  0.02624  1.0000
  N   N26       1.0  0.34849  0.55487  0.24907  1.0000
  H   H459      1.0  0.38152  0.69535  0.16648  1.0000
  C   C403      1.0  0.46538  0.57886  0.18575  1.0000
  H   H460      1.0  0.30222  0.54625  0.24625  1.0000
  H   H461      1.0  0.38006  0.63930  0.16765  1.0000
  H   H462      1.0  0.44979  0.65739  0.13654  1.0000
  H   H463      1.0  0.42930  0.02268  0.04221  1.0000
  S   S108      1.0  0.46018  0.72030  0.11385  1.0000
  H   H464      1.0  0.35000  0.53992  0.28981  1.0000
  S   S109      1.0  0.46401  0.71648  0.04891  1.0000
  H   H465      1.0  0.41059  0.01149  0.27936  1.0000
  C   C404      1.0  0.46149  0.62848  0.99697  1.0000
  H   H466      1.0  0.36320  0.58765  0.27667  1.0000
  H   H467      1.0  0.34305  0.58776  0.20316  1.0000
  H   H468      1.0  0.35423  0.57159  0.15779  1.0000
  C   C405      1.0  0.45896  0.85017  0.04941  1.0000
  C   C406      1.0  0.45002  0.66104  0.15838  1.0000
  H   H469      1.0  0.46267  0.68124  0.16180  1.0000
  C   C407      1.0  0.35343  0.56635  0.01460  1.0000
  H   H470      1.0  0.39071  0.57427  0.25327  1.0000
  H   H471      1.0  0.47375  0.64844  0.99884  1.0000
  Fe  Fe57      1.0  0.44220  0.98960  0.97091  1.0000
  H   H472      1.0  0.41791  0.55655  0.99506  1.0000
  C   C408      1.0  0.46788  0.85428  0.00210  1.0000
  C   C409      1.0  0.35509  0.54471  0.22168  1.0000
  Fe  Fe58      1.0  0.47753  0.74827  0.08058  1.0000
  H   H473      1.0  0.48045  0.93771  0.09493  1.0000
  H   H474      1.0  0.45035  0.00456  0.08199  1.0000
  C   C410      1.0  0.45616  0.02067  0.12081  1.0000
  H   H475      1.0  0.46845  0.58627  0.16553  1.0000
  C   C411      1.0  0.35476  0.53142  0.26945  1.0000
  C   C412      1.0  0.47514  0.82334  0.00146  1.0000
  H   H476      1.0  0.44827  0.99635  0.28075  1.0000
  S   S110      1.0  0.04710  0.52629  0.99097  1.0000
  C   C413      1.0  0.44723  0.58424  0.97369  1.0000
  C   C414      1.0  0.36331  0.53718  0.02077  1.0000
  C   C415      1.0  0.43386  0.01621  0.27463  1.0000
  H   H477      1.0  0.43508  0.01775  0.25265  1.0000
  C   C416      1.0  0.46370  0.61037  0.97390  1.0000
  H   H478      1.0  0.45517  0.54906  0.25691  1.0000
  C   C417      1.0  0.45870  0.55822  0.23747  1.0000
  C   C418      1.0  0.48141  0.59115  0.20641  1.0000
  H   H479      1.0  0.99590  0.56762  0.02196  1.0000
  C   C419      1.0  0.98816  0.53695  0.06612  1.0000
  C   C420      1.0  0.47928  0.58055  0.23282  1.0000
  H   H480      1.0  0.48678  0.63829  0.24136  1.0000
  H   H481      1.0  0.48715  0.86029  0.10247  1.0000
  C   C421      1.0  0.36780  0.52671  0.16877  1.0000
  C   C422      1.0  0.48699  0.62415  0.25947  1.0000
  H   H482      1.0  0.47863  0.65855  0.50799  1.0000
  C   C423      1.0  0.37508  0.56772  0.42427  1.0000
  C   C424      1.0  0.47884  0.63757  0.45637  1.0000
  C   C425      1.0  0.47041  0.80477  0.52269  1.0000
  S   S111      1.0  0.34419  0.58662  0.32990  1.0000
  H   H483      1.0  0.39441  0.95433  0.49321  1.0000
  H   H484      1.0  0.43622  0.89979  0.59762  1.0000
  H   H485      1.0  0.36345  0.88187  0.53872  1.0000
  C   C426      1.0  0.36200  0.53687  0.51949  1.0000
  H   H486      1.0  0.38664  0.53473  0.51786  1.0000
  H   H487      1.0  0.46718  0.81078  0.48042  1.0000
  C   C427      1.0  0.46123  0.58758  0.45767  1.0000
  H   H488      1.0  0.34545  0.89391  0.50868  1.0000
  C   C428      1.0  0.47197  0.85296  0.50003  1.0000
  C   C429      1.0  0.41258  0.90685  0.56077  1.0000
  S   S112      1.0  0.04989  0.53567  0.49015  1.0000
  C   C430      1.0  0.47490  0.86693  0.52459  1.0000
  S   S113      1.0  0.47159  0.79849  0.57738  1.0000
  C   C431      1.0  0.42677  0.94647  0.58988  1.0000
  H   H489      1.0  0.41237  0.88304  0.55741  1.0000
  C   C432      1.0  0.35947  0.56570  0.47869  1.0000
  C   C433      1.0  0.38311  0.58654  0.33503  1.0000
  C   C434      1.0  0.39958  0.56099  0.34369  1.0000
  C   C435      1.0  0.43053  0.56156  0.34710  1.0000
  C   C436      1.0  0.44534  0.58769  0.34211  1.0000
  C   C437      1.0  0.42892  0.61326  0.33336  1.0000
  C   C438      1.0  0.39797  0.61262  0.32975  1.0000
  H   H490      1.0  0.40985  0.87468  0.51433  1.0000
  C   C439      1.0  0.40462  0.89588  0.50346  1.0000
  H   H491      1.0  0.44001  0.63353  0.32943  1.0000
  H   H492      1.0  0.38540  0.63255  0.32316  1.0000
  H   H493      1.0  0.44402  0.58429  0.51235  1.0000
  H   H494      1.0  0.38056  0.56866  0.40339  1.0000
  H   H495      1.0  0.34977  0.58902  0.54334  1.0000
  Fe  Fe59      1.0  0.45568  0.68493  0.58366  1.0000
  Fe  Fe60      1.0  0.47913  0.74779  0.57909  1.0000
  S   S114      1.0  0.41350  0.65968  0.58204  1.0000
  H   H496      1.0  0.44827  0.56987  0.41984  1.0000
  H   H497      1.0  0.38001  0.60902  0.47978  1.0000
  H   H498      1.0  0.47894  0.65846  0.41791  1.0000
  H   H499      1.0  0.39193  0.97618  0.53602  1.0000
  S   S115      1.0  0.20570  0.53348  0.35059  1.0000
  S   S116      1.0  0.46291  0.72122  0.61363  1.0000
  H   H500      1.0  0.38299  0.59079  0.52445  1.0000
  C   C440      1.0  0.18506  0.53072  0.38033  1.0000
  C   C441      1.0  0.15426  0.53766  0.37987  1.0000
  S   S117      1.0  0.45633  0.95333  0.43646  1.0000
  C   C442      1.0  0.41414  0.96759  0.57236  1.0000
  H   H501      1.0  0.45919  0.61523  0.39482  1.0000
  S   S118      1.0  0.40538  0.01495  0.47660  1.0000
  C   C443      1.0  0.41104  0.55733  0.58260  1.0000
  C   C444      1.0  0.43826  0.57079  0.58030  1.0000
  C   C445      1.0  0.43952  0.60210  0.58104  1.0000
  C   C446      1.0  0.41343  0.62024  0.58367  1.0000
  C   C447      1.0  0.38629  0.60675  0.58652  1.0000
  C   C448      1.0  0.38511  0.57542  0.58628  1.0000
  H   H502      1.0  0.45849  0.55686  0.57804  1.0000
  H   H503      1.0  0.38852  0.54078  0.34787  1.0000
  H   H504      1.0  0.36605  0.62062  0.58897  1.0000
  H   H505      1.0  0.36411  0.56533  0.58864  1.0000
  H   H506      1.0  0.36486  0.93313  0.48137  1.0000
  H   H507      1.0  0.43740  0.95353  0.60796  1.0000
  H   H508      1.0  0.46061  0.61215  0.57946  1.0000
  C   C449      1.0  0.47271  0.61202  0.47159  1.0000
  H   H509      1.0  0.44334  0.64182  0.51002  1.0000
  H   H510      1.0  0.47682  0.89084  0.52558  1.0000
  C   C450      1.0  0.36111  0.54324  0.43428  1.0000
  C   C451      1.0  0.42609  0.91617  0.58403  1.0000
  C   C452      1.0  0.35342  0.54218  0.46104  1.0000
  Fe  Fe61      1.0  0.01514  0.54624  0.45875  1.0000
  N   N27       1.0  0.34953  0.56463  0.50659  1.0000
  Fe  Fe62      1.0  0.47676  0.92357  0.46869  1.0000
  S   S119      1.0  0.46409  0.95586  0.50125  1.0000
  S   S120      1.0  0.46976  0.87364  0.47002  1.0000
  H   H511      1.0  0.35821  0.95773  0.50862  1.0000
  S   S121      1.0  0.28115  0.53387  0.31124  1.0000
  H   H512      1.0  0.34232  0.91699  0.53783  1.0000
  S   S122      1.0  0.46719  0.71362  0.54897  1.0000
  C   C453      1.0  0.13675  0.53402  0.40259  1.0000
  H   H513      1.0  0.47638  0.01240  0.53923  1.0000
  H   H514      1.0  0.34911  0.61201  0.51482  1.0000
  C   C454      1.0  0.47372  0.63874  0.42910  1.0000
  H   H515      1.0  0.30822  0.56286  0.52795  1.0000
  H   H516      1.0  0.48469  0.95113  0.36861  1.0000
  C   C455      1.0  0.38172  0.59106  0.44108  1.0000
  C   C456      1.0  0.31667  0.56473  0.50733  1.0000
  N   N28       1.0  0.38455  0.91725  0.51828  1.0000
  C   C457      1.0  0.47272  0.81880  0.54728  1.0000
  H   H517      1.0  0.11305  0.53910  0.40180  1.0000
  C   C458      1.0  0.35842  0.59029  0.52279  1.0000
  C   C459      1.0  0.47493  0.84995  0.54809  1.0000
  C   C460      1.0  0.37512  0.94173  0.49970  1.0000
  H   H518      1.0  0.47686  0.86102  0.56699  1.0000
  Fe  Fe63      1.0  0.44817  0.98729  0.46895  1.0000
  C   C461      1.0  0.46263  0.61442  0.41606  1.0000
  C   C462      1.0  0.40091  0.95857  0.54882  1.0000
  Fe  Fe64      1.0  0.31764  0.54613  0.33909  1.0000
  H   H519      1.0  0.00425  0.57965  0.32701  1.0000
  H   H520      1.0  0.14382  0.54583  0.36184  1.0000
  H   H521      1.0  0.46850  0.78085  0.52179  1.0000
  C   C463      1.0  0.37428  0.59015  0.46796  1.0000
  H   H522      1.0  0.30631  0.58545  0.49830  1.0000
  C   C464      1.0  0.45647  0.58888  0.43028  1.0000
  H   H523      1.0  0.39247  0.61014  0.43312  1.0000
  H   H524      1.0  0.44304  0.54165  0.35382  1.0000
  H   H525      1.0  0.39504  0.88928  0.48415  1.0000
  C   C465      1.0  0.39965  0.92776  0.54234  1.0000
  H   H526      1.0  0.42599  0.90592  0.49913  1.0000
  H   H527      1.0  0.30809  0.54564  0.49634  1.0000
  C   C466      1.0  0.35777  0.90184  0.52620  1.0000
  C   C467      1.0  0.46973  0.82182  0.49923  1.0000
  S   S123      1.0  0.04572  0.53269  0.42510  1.0000
  C   C468      1.0  0.46756  0.63806  0.51390  1.0000
  H   H528      1.0  0.15089  0.53805  0.50418  1.0000
  S   S124      1.0  0.48440  0.58699  0.34635  1.0000
  H   H529      1.0  0.41456  0.99110  0.57710  1.0000
  S   S125      1.0  0.29016  0.53945  0.37566  1.0000
  H   H530      1.0  0.45617  0.56703  0.46734  1.0000
  H   H531      1.0  0.48513  0.73737  0.45712  1.0000
  H   H532      1.0  0.01203  0.58200  0.37445  1.0000
  H   H533      1.0  0.46613  0.00816  0.58160  1.0000
  H   H534      1.0  0.47760  0.82320  0.43052  1.0000
  H   H535      1.0  0.47741  0.94286  0.32042  1.0000
  C   C469      1.0  0.46860  0.58456  0.51402  1.0000
  N   N29       1.0  0.48004  0.61081  0.50020  1.0000
  H   H536      1.0  0.48411  0.79883  0.40264  1.0000
  H   H537      1.0  0.46384  0.00644  0.62944  1.0000
  H   H538      1.0  0.47055  0.63662  0.53577  1.0000
  H   H539      1.0  0.35670  0.53633  0.54100  1.0000
  H   H540      1.0  0.47889  0.56309  0.50645  1.0000
  H   H541      1.0  0.47407  0.58473  0.53551  1.0000
  H   H542      1.0  0.16031  0.55482  0.53493  1.0000
  H   H543      1.0  0.39817  0.02127  0.36779  1.0000
  H   H544      1.0  0.04320  0.52917  0.32927  1.0000
  H   H545      1.0  0.18714  0.55074  0.50855  1.0000
  C   C470      1.0  0.99238  0.57209  0.36678  1.0000
  C   C471      1.0  0.98759  0.57051  0.33945  1.0000
  H   H546      1.0  0.99604  0.53156  0.52844  1.0000
  C   C472      1.0  0.16900  0.53968  0.51894  1.0000
  H   H547      1.0  0.04741  0.52809  0.60257  1.0000
  H   H548      1.0  0.19859  0.52991  0.56429  1.0000
  H   H549      1.0  0.43759  0.02522  0.54116  1.0000
  H   H550      1.0  0.46748  0.80583  0.63428  1.0000
  H   H551      1.0  0.34671  0.54648  0.89942  1.0000
  C   C473      1.0  0.47250  0.79582  0.65405  1.0000
  H   H552      1.0  0.44337  0.65327  0.78363  1.0000
  Fe  Fe65      1.0  0.31389  0.54584  0.85159  1.0000
  S   S126      1.0  0.33988  0.58746  0.85709  1.0000
  H   H553      1.0  0.45957  0.80937  0.66896  1.0000
  C   C474      1.0  0.38110  0.55453  0.78673  1.0000
  H   H554      1.0  0.35995  0.60806  0.94474  1.0000
  H   H555      1.0  0.47420  0.93641  0.82079  1.0000
  H   H556      1.0  0.01471  0.54235  0.83361  1.0000
  H   H557      1.0  0.38192  0.54404  0.72031  1.0000
  H   H558      1.0  0.35671  0.52709  0.76053  1.0000
  S   S127      1.0  0.28235  0.53124  0.88286  1.0000
  H   H559      1.0  0.48421  0.73943  0.95389  1.0000
  C   C475      1.0  0.35155  0.53874  0.91997  1.0000
  H   H560      1.0  0.41974  0.58032  0.72301  1.0000
  H   H561      1.0  0.47803  0.66633  0.95767  1.0000
  H   H562      1.0  0.30849  0.58029  0.91601  1.0000
  N   N30       1.0  0.34565  0.56306  0.93956  1.0000
  H   H563      1.0  0.48309  0.61179  0.78838  1.0000
  H   H564      1.0  0.30813  0.59343  0.94929  1.0000
  H   H565      1.0  0.29908  0.55575  0.94254  1.0000
  C   C476      1.0  0.00099  0.55115  0.81667  1.0000
  H   H566      1.0  0.38480  0.53775  0.86064  1.0000
  H   H567      1.0  0.46368  0.77312  0.65360  1.0000
  C   C477      1.0  0.40295  0.57529  0.78885  1.0000
  C   C478      1.0  0.42868  0.01061  0.77960  1.0000
  C   C479      1.0  0.47463  0.64911  0.94237  1.0000
  H   H568      1.0  0.38145  0.63358  0.85757  1.0000
  S   S128      1.0  0.28168  0.53887  0.81822  1.0000
  S   S129      1.0  0.48570  0.00973  0.96473  1.0000
  H   H569      1.0  0.36044  0.59530  0.91152  1.0000
  S   S130      1.0  0.48477  0.99577  0.70841  1.0000
  C   C480      1.0  0.37919  0.58570  0.85874  1.0000
  C   C481      1.0  0.39583  0.55845  0.86050  1.0000
  C   C482      1.0  0.42701  0.55788  0.86176  1.0000
  C   C483      1.0  0.44196  0.58447  0.86112  1.0000
  C   C484      1.0  0.42535  0.61177  0.85980  1.0000
  C   C485      1.0  0.39411  0.61236  0.85874  1.0000
  H   H570      1.0  0.40804  0.58323  0.80837  1.0000
  H   H571      1.0  0.44505  0.99114  0.78178  1.0000
  H   H572      1.0  0.43648  0.63246  0.85955  1.0000
  H   H573      1.0  0.47068  0.63405  0.74677  1.0000
  H   H574      1.0  0.48418  0.02208  0.77291  1.0000
  H   H575      1.0  0.48274  0.79741  0.93166  1.0000
  C   C486      1.0  0.48198  0.59820  0.92860  1.0000
  C   C487      1.0  0.41786  0.58575  0.76628  1.0000
  H   H576      1.0  0.43966  0.53664  0.86276  1.0000
  H   H577      1.0  0.36979  0.54718  0.80430  1.0000
  H   H578      1.0  0.47554  0.57466  0.77767  1.0000
  H   H579      1.0  0.00219  0.57584  0.81567  1.0000
  C   C488      1.0  0.36448  0.58789  0.93234  1.0000
  H   H580      1.0  0.45087  0.65118  0.93630  1.0000
  S   S131      1.0  0.44907  0.95554  0.93824  1.0000
  S   S132      1.0  0.48127  0.58246  0.86188  1.0000
  H   H581      1.0  0.46467  0.01552  0.81948  1.0000
  H   H582      1.0  0.46437  0.69331  0.72554  1.0000
  N   N31       1.0  0.44061  0.60811  0.76926  1.0000
  H   H583      1.0  0.40766  0.64474  0.77071  1.0000
  C   C489      1.0  0.40971  0.57383  0.74135  1.0000
  H   H584      1.0  0.41977  0.63125  0.80264  1.0000
  C   C490      1.0  0.31402  0.57360  0.93681  1.0000
  C   C491      1.0  0.42722  0.63545  0.78210  1.0000
  H   H585      1.0  0.38847  0.58098  0.93421  1.0000
  H   H586      1.0  0.47785  0.94959  0.86845  1.0000
  H   H587      1.0  0.99131  0.57601  0.86128  1.0000
  H   H588      1.0  0.40928  0.00558  0.79203  1.0000
  Fe  Fe66      1.0  0.01296  0.53545  0.95882  1.0000
  C   C492      1.0  0.37364  0.54328  0.76208  1.0000
  C   C493      1.0  0.45368  0.61728  0.74375  1.0000
  H   H589      1.0  0.46523  0.59802  0.73344  1.0000
  H   H590      1.0  0.45925  0.59827  0.91996  1.0000
  H   H591      1.0  0.37520  0.53027  0.92021  1.0000
  C   C494      1.0  0.38792  0.55288  0.73945  1.0000
  N   N32       1.0  0.48320  0.61844  0.95179  1.0000
  H   H592      1.0  0.47619  0.83694  0.92781  1.0000
  H   H593      1.0  0.45793  0.59054  0.80652  1.0000
  H   H594      1.0  0.47937  0.69712  0.67841  1.0000
  C   C495      1.0  0.46529  0.59571  0.78615  1.0000
  H   H595      1.0  0.47792  0.81338  0.89919  1.0000
  H   H596      1.0  0.44771  0.56895  0.95719  1.0000
  H   H597      1.0  0.01212  0.54185  0.79852  1.0000
  H   H598      1.0  0.42192  0.01117  0.75836  1.0000
  H   H599      1.0  0.43654  0.62793  0.73036  1.0000
  H   H600      1.0  0.41616  0.02301  0.91963  1.0000
  S   S133      1.0  0.48691  0.66759  0.84535  1.0000
  C   C496      1.0  0.35179  0.55371  0.96726  1.0000
  H   H601      1.0  0.90722  0.17174  0.27091  1.0000
  H   H602      1.0  0.96551  0.07165  0.98397  1.0000
  C   C497      1.0  0.97043  0.36333  0.27730  1.0000
  S   S134      1.0  0.84258  0.09100  0.10740  1.0000
  C   C498      1.0  0.97272  0.12734  0.16801  1.0000
  C   C499      1.0  0.91001  0.21792  0.25983  1.0000
  H   H603      1.0  0.81578  0.08457  0.20492  1.0000
  Fe  Fe67      1.0  0.95760  0.48434  0.21901  1.0000
  C   C500      1.0  0.95219  0.52361  0.29244  1.0000
  S   S135      1.0  0.91381  0.51189  0.22119  1.0000
  H   H604      1.0  0.93311  0.16530  0.00301  1.0000
  H   H605      1.0  0.98356  0.43900  0.07335  1.0000
  C   C501      1.0  0.98737  0.35114  0.25637  1.0000
  H   H606      1.0  0.87494  0.08379  0.00874  1.0000
  H   H607      1.0  0.95420  0.52094  0.00835  1.0000
  H   H608      1.0  0.97913  0.07079  0.15198  1.0000
  H   H609      1.0  0.93212  0.26872  0.28387  1.0000
  H   H610      1.0  0.94332  0.30807  0.23767  1.0000
  S   S136      1.0  0.96894  0.44772  0.18936  1.0000
  H   H611      1.0  0.86285  0.09576  0.16158  1.0000
  S   S137      1.0  0.78099  0.04455  0.06953  1.0000
  C   C502      1.0  0.82244  0.06710  0.19019  1.0000
  C   C503      1.0  0.97347  0.10670  0.21244  1.0000
  H   H612      1.0  0.91712  0.15256  0.22569  1.0000
  H   H613      1.0  0.95308  0.12058  0.28709  1.0000
  C   C504      1.0  0.89868  0.06298  0.10083  1.0000
  H   H614      1.0  0.94660  0.07579  0.17155  1.0000
  C   C505      1.0  0.97654  0.14327  0.00242  1.0000
  C   C506      1.0  0.91538  0.23877  0.23939  1.0000
  H   H615      1.0  0.86319  0.10723  0.19519  1.0000
  H   H616      1.0  0.97845  0.12358  0.14679  1.0000
  H   H617      1.0  0.88748  0.31071  0.23377  1.0000
  C   C507      1.0  0.92983  0.06290  0.09885  1.0000
  H   H618      1.0  0.96127  0.38613  0.27603  1.0000
  S   S138      1.0  0.78600  0.03551  0.13387  1.0000
  H   H619      1.0  0.86788  0.27712  0.23773  1.0000
  C   C508      1.0  0.88184  0.08983  0.10455  1.0000
  C   C509      1.0  0.89658  0.11651  0.10668  1.0000
  H   H620      1.0  0.88379  0.13741  0.10960  1.0000
  C   C510      1.0  0.94229  0.28381  0.23321  1.0000
  N   N33       1.0  0.85500  0.06050  0.18939  1.0000
  S   S139      1.0  0.98377  0.08831  0.09774  1.0000
  H   H621      1.0  0.50692  0.04698  0.04962  1.0000
  S   S140      1.0  0.97348  0.45644  0.25399  1.0000
  C   C511      1.0  0.92038  0.22695  0.21360  1.0000
  H   H622      1.0  0.86822  0.07481  0.28020  1.0000
  H   H623      1.0  0.85888  0.05469  0.97108  1.0000
  H   H624      1.0  0.93863  0.13722  0.10589  1.0000
  C   C512      1.0  0.98343  0.13157  0.22659  1.0000
  H   H625      1.0  0.94640  0.06777  0.21744  1.0000
  C   C513      1.0  0.92773  0.11646  0.10454  1.0000
  C   C514      1.0  0.95843  0.11685  0.26639  1.0000
  H   H626      1.0  0.89399  0.08458  0.18215  1.0000
  C   C515      1.0  0.91073  0.18721  0.25479  1.0000
  C   C516      1.0  0.88228  0.05845  0.97282  1.0000
  Fe  Fe68      1.0  0.50626  0.04439  0.20439  1.0000
  C   C517      1.0  0.91636  0.17638  0.22937  1.0000
  H   H627      1.0  0.88780  0.04224  0.09924  1.0000
  H   H628      1.0  0.93422  0.07722  0.26364  1.0000
  C   C518      1.0  0.86945  0.08820  0.18190  1.0000
  C   C519      1.0  0.95504  0.08733  0.22640  1.0000
  H   H629      1.0  0.94393  0.28204  0.21135  1.0000
  Fe  Fe69      1.0  0.81588  0.04993  0.10111  1.0000
  H   H630      1.0  0.88969  0.28254  0.20865  1.0000
  C   C520      1.0  0.87144  0.05996  0.26339  1.0000
  C   C521      1.0  0.48967  0.06434  0.04328  1.0000
  H   H631      1.0  0.92806  0.09245  0.01549  1.0000
  C   C522      1.0  0.94775  0.09249  0.25303  1.0000
  C   C523      1.0  0.92121  0.19620  0.20880  1.0000
  C   C524      1.0  0.94451  0.08964  0.10040  1.0000
  N   N34       1.0  0.91498  0.27145  0.24401  1.0000
  H   H632      1.0  0.94258  0.04201  0.09573  1.0000
  C   C525      1.0  0.66752  0.03543  0.26328  1.0000
  H   H633      1.0  0.98470  0.15521  0.26369  1.0000
  H   H634      1.0  0.98312  0.14832  0.17377  1.0000
  C   C526      1.0  0.88888  0.28609  0.23044  1.0000
  H   H635      1.0  0.92587  0.18782  0.18902  1.0000
  C   C527      1.0  0.96427  0.34559  0.29944  1.0000
  H   H636      1.0  0.94911  0.52130  0.27064  1.0000
  H   H637      1.0  0.96090  0.49629  0.03615  1.0000
  H   H638      1.0  0.49615  0.08606  0.05135  1.0000
  S   S141      1.0  0.54050  0.03501  0.23635  1.0000
  S   S142      1.0  0.53727  0.03028  0.17123  1.0000
  H   H639      1.0  0.89211  0.27377  0.28166  1.0000
  C   C528      1.0  0.97121  0.07421  0.17272  1.0000
  C   C529      1.0  0.96776  0.51717  0.02652  1.0000
  H   H640      1.0  0.94823  0.13154  0.16908  1.0000
  C   C530      1.0  0.89125  0.07507  0.99453  1.0000
  C   C531      1.0  0.94222  0.06813  0.98058  1.0000
  S   S143      1.0  0.98732  0.17545  0.09252  1.0000
  H   H641      1.0  0.96248  0.27209  0.24185  1.0000
  C   C532      1.0  0.88424  0.03128  0.26726  1.0000
  H   H642      1.0  0.49099  0.06598  0.02129  1.0000
  C   C533      1.0  0.95011  0.15420  0.99079  1.0000
  C   C534      1.0  0.97622  0.13636  0.25319  1.0000
  H   H643      1.0  0.72030  0.02967  0.00947  1.0000
  H   H644      1.0  0.91481  0.30423  0.27555  1.0000
  C   C535      1.0  0.92115  0.07992  0.99840  1.0000
  C   C536      1.0  0.86224  0.06934  0.23813  1.0000
  C   C537      1.0  0.86558  0.05016  0.21583  1.0000
  H   H645      1.0  0.97181  0.50880  0.29820  1.0000
  H   H646      1.0  0.81374  0.07535  0.17069  1.0000
  H   H647      1.0  0.81067  0.04675  0.19544  1.0000
  H   H648      1.0  0.68468  0.04647  0.25155  1.0000
  H   H649      1.0  0.85189  0.09159  0.23634  1.0000
  H   H650      1.0  0.92399  0.24133  0.19687  1.0000
  C   C538      1.0  0.91335  0.27974  0.27248  1.0000
  C   C539      1.0  0.86122  0.03829  0.16798  1.0000
  H   H651      1.0  0.85324  0.04684  0.14837  1.0000
  H   H652      1.0  0.88539  0.03255  0.16582  1.0000
  N   N35       1.0  0.98294  0.10145  0.18469  1.0000
  C   C540      1.0  0.97520  0.31563  0.30101  1.0000
  H   H653      1.0  0.97883  0.05368  0.18377  1.0000
  H   H654      1.0  0.90561  0.22459  0.28005  1.0000
  H   H655      1.0  0.64734  0.03574  0.25064  1.0000
  C   C541      1.0  0.68036  0.02743  0.13010  1.0000
  S   S144      1.0  0.70303  0.03097  0.10167  1.0000
  H   H656      1.0  0.48967  0.03163  0.28015  1.0000
  H   H657      1.0  0.98381  0.51644  0.07759  1.0000
  H   H658      1.0  0.98268  0.23551  0.21051  1.0000
  H   H659      1.0  0.79315  0.03085  0.00300  1.0000
  H   H660      1.0  0.98012  0.14607  0.02350  1.0000
  H   H661      1.0  0.98207  0.23396  0.97906  1.0000
  H   H662      1.0  0.66190  0.04963  0.28083  1.0000
  C   C542      1.0  0.64945  0.02623  0.12691  1.0000
  H   H663      1.0  0.63997  0.02705  0.10724  1.0000
  S   S145      1.0  0.97010  0.21114  0.30113  1.0000
  C   C543      1.0  0.69230  0.02652  0.15568  1.0000
  H   H664      1.0  0.71599  0.02762  0.15843  1.0000
  S   S146      1.0  0.91691  0.15494  0.32914  1.0000
  H   H665      1.0  0.94370  0.04197  0.60069  1.0000
  H   H666      1.0  0.95046  0.35500  0.31517  1.0000
  H   H667      1.0  0.97681  0.13659  0.54083  1.0000
  H   H668      1.0  0.87968  0.02928  0.52464  1.0000
  C   C544      1.0  0.83571  0.04558  0.45342  1.0000
  H   H669      1.0  0.90198  0.03316  0.48551  1.0000
  C   C545      1.0  0.96536  0.34704  0.38595  1.0000
  H   H670      1.0  0.93485  0.07698  0.47768  1.0000
  H   H671      1.0  0.81255  0.05270  0.45533  1.0000
  H   H672      1.0  0.48988  0.04066  0.37125  1.0000
  C   C546      1.0  0.96434  0.08542  0.51971  1.0000
  H   H673      1.0  0.88908  0.04039  0.59610  1.0000
  H   H674      1.0  0.95477  0.49945  0.62261  1.0000
  C   C547      1.0  0.94460  0.08910  0.59247  1.0000
  C   C548      1.0  0.96572  0.13914  0.43425  1.0000
  H   H675      1.0  0.96155  0.32577  0.37556  1.0000
  C   C549      1.0  0.96496  0.11375  0.47740  1.0000
  C   C550      1.0  0.81512  0.06455  0.50453  1.0000
  S   S147      1.0  0.96397  0.21563  0.36573  1.0000
  H   H676      1.0  0.50248  0.06513  0.51996  1.0000
  H   H677      1.0  0.51524  0.04687  0.54973  1.0000
  C   C551      1.0  0.85587  0.04521  0.47513  1.0000
  C   C552      1.0  0.88896  0.10222  0.33140  1.0000
  C   C553      1.0  0.88549  0.03431  0.46999  1.0000
  C   C554      1.0  0.91286  0.05347  0.34150  1.0000
  H   H678      1.0  0.88312  0.13423  0.57846  1.0000
  C   C555      1.0  0.86348  0.08366  0.50762  1.0000
  C   C556      1.0  0.65217  0.03425  0.63226  1.0000
  C   C557      1.0  0.94144  0.09828  0.34134  1.0000
  Fe  Fe70      1.0  0.97998  0.24441  0.33248  1.0000
  S   S148      1.0  0.84315  0.08692  0.58322  1.0000
  H   H679      1.0  0.85709  0.09329  0.52730  1.0000
  C   C558      1.0  0.88738  0.07118  0.33491  1.0000
  C   C559      1.0  0.91596  0.11593  0.33457  1.0000
  H   H680      1.0  0.84697  0.04041  0.54213  1.0000
  H   H681      1.0  0.95972  0.05368  0.34980  1.0000
  H   H682      1.0  0.80761  0.08296  0.49090  1.0000
  N   N36       1.0  0.84738  0.05650  0.50179  1.0000
  H   H683      1.0  0.93778  0.13595  0.58348  1.0000
  Fe  Fe71      1.0  0.95856  0.18056  0.33433  1.0000
  S   S149      1.0  0.98367  0.08906  0.59632  1.0000
  S   S150      1.0  0.79158  0.03686  0.62849  1.0000
  H   H684      1.0  0.80949  0.07268  0.52487  1.0000
  H   H685      1.0  0.86912  0.11569  0.32626  1.0000
  C   C560      1.0  0.88224  0.08717  0.58696  1.0000
  C   C561      1.0  0.89633  0.11402  0.58325  1.0000
  S   S151      1.0  0.70667  0.03577  0.60795  1.0000
  H   H686      1.0  0.98211  0.23199  0.47870  1.0000
  C   C562      1.0  0.94394  0.09470  0.46646  1.0000
  H   H687      1.0  0.86644  0.06101  0.33241  1.0000
  H   H688      1.0  0.93651  0.51352  0.50581  1.0000
  H   H689      1.0  0.80168  0.04489  0.50084  1.0000
  H   H690      1.0  0.88785  0.07891  0.50822  1.0000
  H   H691      1.0  0.96239  0.10849  0.34382  1.0000
  C   C563      1.0  0.49943  0.06475  0.54184  1.0000
  C   C564      1.0  0.96892  0.13837  0.51993  1.0000
  C   C565      1.0  0.93987  0.06719  0.34472  1.0000
  H   H692      1.0  0.94452  0.14361  0.52033  1.0000
  Fe  Fe72      1.0  0.81751  0.04558  0.59150  1.0000
  C   C566      1.0  0.94529  0.12003  0.42407  1.0000
  C   C567      1.0  0.95145  0.51774  0.58310  1.0000
  H   H693      1.0  0.93804  0.12228  0.40361  1.0000
  S   S152      1.0  0.77964  0.03518  0.56453  1.0000
  C   C568      1.0  0.85539  0.03358  0.52221  1.0000
  C   C569      1.0  0.89955  0.06122  0.59316  1.0000
  C   C570      1.0  0.93056  0.06219  0.59579  1.0000
  C   C571      1.0  0.92735  0.11506  0.58611  1.0000
  H   H694      1.0  0.93994  0.08874  0.52250  1.0000
  C   C572      1.0  0.93431  0.09796  0.44016  1.0000
  H   H695      1.0  0.85854  0.10128  0.49244  1.0000
  H   H696      1.0  0.95339  0.36510  0.37432  1.0000
  H   H697      1.0  0.97399  0.08341  0.54002  1.0000
  H   H698      1.0  0.50654  0.08630  0.54985  1.0000
  H   H699      1.0  0.91843  0.08317  0.43199  1.0000
  H   H700      1.0  0.95452  0.34581  0.40566  1.0000
  H   H701      1.0  0.97924  0.15813  0.51139  1.0000
  H   H702      1.0  0.64390  0.04680  0.61522  1.0000
  H   H703      1.0  0.96976  0.06361  0.50985  1.0000
  H   H704      1.0  0.49097  0.04822  0.32384  1.0000
  H   H705      1.0  0.95722  0.49464  0.53151  1.0000
  C   C573      1.0  0.94018  0.51317  0.52764  1.0000
  H   H706      1.0  0.91882  0.50754  0.53682  1.0000
  S   S153      1.0  0.96499  0.29358  0.32828  1.0000
  C   C574      1.0  0.97527  0.13621  0.46052  1.0000
  C   C575      1.0  0.95727  0.51897  0.61027  1.0000
  H   H707      1.0  0.97444  0.15622  0.42166  1.0000
  H   H708      1.0  0.94437  0.49672  0.57568  1.0000
  H   H709      1.0  0.82902  0.03606  0.41203  1.0000
  C   C576      1.0  0.84490  0.03596  0.42823  1.0000
  N   N37       1.0  0.97647  0.11059  0.50483  1.0000
  H   H710      1.0  0.93223  0.51453  0.30149  1.0000
  C   C577      1.0  0.73086  0.07058  0.66754  1.0000
  S   S154      1.0  0.92043  0.17060  0.83842  1.0000
  Fe  Fe73      1.0  0.50685  0.03898  0.70620  1.0000
  C   C578      1.0  0.94817  0.11717  0.75411  1.0000
  H   H711      1.0  0.69671  0.11826  0.68262  1.0000
  H   H712      1.0  0.60943  0.03587  0.65182  1.0000
  C   C579      1.0  0.98521  0.32745  0.80182  1.0000
  S   S155      1.0  0.97335  0.22984  0.86780  1.0000
  Fe  Fe74      1.0  0.95861  0.49643  0.72608  1.0000
  H   H713      1.0  0.98375  0.15849  0.66524  1.0000
  C   C580      1.0  0.96407  0.14547  0.66083  1.0000
  S   S156      1.0  0.97597  0.22395  0.80291  1.0000
  C   C581      1.0  0.72042  0.07490  0.71468  1.0000
  H   H714      1.0  0.70735  0.07053  0.66105  1.0000
  H   H715      1.0  0.75807  0.07439  0.74259  1.0000
  S   S157      1.0  0.96373  0.46361  0.69233  1.0000
  H   H716      1.0  0.77769  0.10059  0.67730  1.0000
  H   H717      1.0  0.93886  0.09634  0.64944  1.0000
  C   C582      1.0  0.96824  0.13826  0.94687  1.0000
  H   H718      1.0  0.73301  0.05159  0.77878  1.0000
  H   H719      1.0  0.96579  0.06775  0.83420  1.0000
  H   H720      1.0  0.93957  0.09633  0.92124  1.0000
  H   H721      1.0  0.94807  0.50046  0.81861  1.0000
  H   H722      1.0  0.96100  0.17826  0.70184  1.0000
  H   H723      1.0  0.98110  0.50076  0.83854  1.0000
  C   C583      1.0  0.94842  0.14715  0.76125  1.0000
  S   S158      1.0  0.97524  0.46300  0.75668  1.0000
  H   H724      1.0  0.95496  0.16616  0.88496  1.0000
  H   H725      1.0  0.96660  0.29233  0.77930  1.0000
  H   H726      1.0  0.98343  0.49909  0.80308  1.0000
  C   C584      1.0  0.73519  0.06949  0.73929  1.0000
  H   H727      1.0  0.77209  0.10697  0.71178  1.0000
  H   H728      1.0  0.73909  0.04697  0.67069  1.0000
  H   H729      1.0  0.78764  0.04674  0.95600  1.0000
  H   H730      1.0  0.92509  0.16076  0.95538  1.0000
  H   H731      1.0  0.98103  0.40110  0.91241  1.0000
  N   N38       1.0  0.96332  0.13632  0.91793  1.0000
  C   C585      1.0  0.97330  0.31511  0.77901  1.0000
  H   H732      1.0  0.74287  0.07930  0.65021  1.0000
  H   H733      1.0  0.91613  0.13013  0.92040  1.0000
  H   H734      1.0  0.97715  0.18059  0.91084  1.0000
  N   N39       1.0  0.96170  0.12029  0.67970  1.0000
  H   H735      1.0  0.94462  0.10052  0.76921  1.0000
  H   H736      1.0  0.93779  0.17873  0.91486  1.0000
  C   C586      1.0  0.89343  0.11751  0.84244  1.0000
  H   H737      1.0  0.87313  0.13131  0.84486  1.0000
  C   C587      1.0  0.72079  0.11898  0.68728  1.0000
  H   H738      1.0  0.67728  0.07118  0.69534  1.0000
  C   C588      1.0  0.67627  0.05436  0.73452  1.0000
  H   H739      1.0  0.93314  0.11636  0.89088  1.0000
  C   C589      1.0  0.72096  0.05629  0.76048  1.0000
  H   H740      1.0  0.93510  0.08153  0.68175  1.0000
  C   C590      1.0  0.89254  0.08620  0.84355  1.0000
  H   H741      1.0  0.97812  0.37701  0.94024  1.0000
  H   H742      1.0  0.65337  0.04843  0.73269  1.0000
  H   H743      1.0  0.72278  0.13322  0.70518  1.0000
  C   C591      1.0  0.93353  0.05133  0.95884  1.0000
  C   C592      1.0  0.97820  0.36210  0.75501  1.0000
  C   C593      1.0  0.92031  0.13107  0.83833  1.0000
  H   H744      1.0  0.95953  0.32289  0.73861  1.0000
  H   H745      1.0  0.95617  0.36581  0.88561  1.0000
  C   C594      1.0  0.76725  0.09148  0.69533  1.0000
  H   H746      1.0  0.96716  0.12295  0.83165  1.0000
  S   S159      1.0  0.54084  0.02634  0.73771  1.0000
  H   H747      1.0  0.68066  0.03830  0.77449  1.0000
  C   C595      1.0  0.95734  0.16038  0.71555  1.0000
  C   C596      1.0  0.95801  0.16675  0.90679  1.0000
  H   H748      1.0  0.87736  0.06614  0.90919  1.0000
  H   H749      1.0  0.98433  0.12067  0.88169  1.0000
  H   H750      1.0  0.96684  0.13745  0.64006  1.0000
  H   H751      1.0  0.94387  0.16093  0.66117  1.0000
  N   N40       1.0  0.73481  0.08869  0.69174  1.0000
  S   S160      1.0  0.91671  0.52574  0.73405  1.0000
  Fe  Fe75      1.0  0.96295  0.19528  0.83712  1.0000
  H   H752      1.0  0.73116  0.13039  0.67035  1.0000
  S   S161      1.0  0.83191  0.03005  0.84011  1.0000
  C   C597      1.0  0.91858  0.06802  0.84058  1.0000
  C   C598      1.0  0.69159  0.04867  0.75808  1.0000
  C   C599      1.0  0.95256  0.10860  0.72770  1.0000
  C   C600      1.0  0.95703  0.12998  0.70751  1.0000
  C   C601      1.0  0.93691  0.11903  0.91250  1.0000
  H   H753      1.0  0.95459  0.33927  0.91236  1.0000
  C   C602      1.0  0.63254  0.02807  0.65301  1.0000
  C   C603      1.0  0.95308  0.16865  0.74205  1.0000
  H   H754      1.0  0.86265  0.03176  0.89883  1.0000
  H   H755      1.0  0.97060  0.32843  0.88124  1.0000
  C   C604      1.0  0.97055  0.50928  0.81983  1.0000
  C   C605      1.0  0.94552  0.08159  0.83658  1.0000
  H   H756      1.0  0.87169  0.07625  0.84690  1.0000
  C   C606      1.0  0.69031  0.06734  0.71314  1.0000
  H   H757      1.0  0.77889  0.06931  0.69930  1.0000
  Fe  Fe76      1.0  0.98484  0.43172  0.72273  1.0000
  C   C607      1.0  0.94637  0.11293  0.83521  1.0000
  H   H758      1.0  0.95257  0.08503  0.72325  1.0000
  S   S162      1.0  0.91859  0.02852  0.84286  1.0000
  C   C608      1.0  0.86960  0.04452  0.91650  1.0000
  H   H759      1.0  0.94505  0.15375  0.78175  1.0000
  C   C609      1.0  0.96856  0.34693  0.89586  1.0000
  C   C610      1.0  0.96937  0.33252  0.75589  1.0000
  C   C611      1.0  0.93660  0.10278  0.67068  1.0000
  H   H760      1.0  0.91504  0.11591  0.67294  1.0000
  H   H761      1.0  0.98664  0.23967  0.70958  1.0000
  H   H762      1.0  0.84889  0.04916  0.92801  1.0000
  S   S163      1.0  0.97572  0.38220  0.72467  1.0000
  C   C612      1.0  0.94586  0.15163  0.96348  1.0000
  H   H763      1.0  0.95358  0.19193  0.74778  1.0000
  C   C613      1.0  0.90313  0.04613  0.95420  1.0000
  H   H764      1.0  0.92720  0.03785  0.90389  1.0000
  H   H765      1.0  0.95107  0.04240  0.94613  1.0000
  N   N41       1.0  0.89311  0.02768  0.93195  1.0000
  Fe  Fe77      1.0  0.52243  0.98946  0.23824  1.0000
  S   S164      1.0  0.50456  0.95514  0.14470  1.0000
  H   H766      1.0  0.91322  0.65904  0.29326  1.0000
  Fe  Fe78      1.0  0.51999  0.98483  0.17746  1.0000
  H   H767      1.0  0.94483  0.54530  0.09793  1.0000
  H   H768      1.0  0.77798  0.83403  0.27536  1.0000
  H   H769      1.0  0.86054  0.69439  0.06044  1.0000
  C   C614      1.0  0.53958  0.99480  0.08054  1.0000
  C   C615      1.0  0.53556  0.67392  0.23254  1.0000
  S   S165      1.0  0.55416  0.96970  0.20771  1.0000
  C   C616      1.0  0.53866  0.66765  0.20530  1.0000
  C   C617      1.0  0.71307  0.71461  0.06722  1.0000
  C   C618      1.0  0.81365  0.96519  0.97274  1.0000
  H   H770      1.0  0.95793  0.57536  0.01385  1.0000
  C   C619      1.0  0.91045  0.55050  0.03743  1.0000
  H   H771      1.0  0.98377  0.58996  0.28643  1.0000
  H   H772      1.0  0.73231  0.72215  0.07766  1.0000
  N   N42       1.0  0.49760  0.59284  0.25415  1.0000
  S   S166      1.0  0.78480  0.99990  0.27490  1.0000
  H   H773      1.0  0.54561  0.99643  0.12284  1.0000
  S   S167      1.0  0.77226  0.97820  0.09576  1.0000
  H   H774      1.0  0.83236  0.64994  0.05206  1.0000
  C   C620      1.0  0.50502  0.71827  0.22167  1.0000
  C   C621      1.0  0.77845  0.99822  0.22102  1.0000
  H   H775      1.0  0.52655  0.82149  0.09782  1.0000
  S   S168      1.0  0.80913  0.97217  0.02660  1.0000
  Fe  Fe79      1.0  0.80651  0.98982  0.12559  1.0000
  S   S169      1.0  0.82368  0.96026  0.15911  1.0000
  H   H776      1.0  0.54069  0.86396  0.15729  1.0000
  H   H777      1.0  0.68352  0.72334  0.09985  1.0000
  Fe  Fe80      1.0  0.84134  0.74878  0.22697  1.0000
  S   S170      1.0  0.79446  0.73433  0.22325  1.0000
  S   S171      1.0  0.85012  0.79853  0.22905  1.0000
  Fe  Fe81      1.0  0.86766  0.68403  0.22460  1.0000
  S   S172      1.0  0.82294  0.66552  0.22151  1.0000
  S   S173      1.0  0.91009  0.65412  0.22533  1.0000
  Fe  Fe82      1.0  0.81236  0.70221  0.19195  1.0000
  S   S174      1.0  0.78612  0.68647  0.15632  1.0000
  Fe  Fe83      1.0  0.80939  0.69905  0.25273  1.0000
  S   S175      1.0  0.85829  0.71915  0.19321  1.0000
  S   S176      1.0  0.85516  0.71512  0.25829  1.0000
  C   C622      1.0  0.98067  0.56576  0.28340  1.0000
  C   C623      1.0  0.55937  0.90514  0.09034  1.0000
  H   H778      1.0  0.50125  0.63503  0.27420  1.0000
  Fe  Fe84      1.0  0.79408  0.68294  0.99701  1.0000
  S   S177      1.0  0.80448  0.71087  0.03323  1.0000
  S   S178      1.0  0.77494  0.63787  0.99523  1.0000
  C   C624      1.0  0.79846  0.70389  0.06730  1.0000
  C   C625      1.0  0.81088  0.72264  0.08614  1.0000
  C   C626      1.0  0.80784  0.71730  0.11346  1.0000
  C   C627      1.0  0.79166  0.69356  0.12223  1.0000
  C   C628      1.0  0.77886  0.67505  0.10338  1.0000
  C   C629      1.0  0.78257  0.67991  0.07604  1.0000
  H   H779      1.0  0.82321  0.74127  0.07957  1.0000
  H   H780      1.0  0.81767  0.73178  0.12774  1.0000
  H   H781      1.0  0.76620  0.65669  0.11001  1.0000
  H   H782      1.0  0.77290  0.66527  0.06181  1.0000
  Fe  Fe85      1.0  0.56989  0.01627  0.20326  1.0000
  C   C630      1.0  0.63135  0.00533  0.03853  1.0000
  N   N43       1.0  0.67776  0.00473  0.27134  1.0000
  C   C631      1.0  0.62634  0.98585  0.27380  1.0000
  C   C632      1.0  0.49994  0.86983  0.11894  1.0000
  H   H783      1.0  0.90685  0.61290  0.03680  1.0000
  C   C633      1.0  0.88552  0.56782  0.22489  1.0000
  C   C634      1.0  0.88420  0.59931  0.22588  1.0000
  C   C635      1.0  0.91005  0.61475  0.22273  1.0000
  C   C636      1.0  0.93704  0.59845  0.21821  1.0000
  C   C637      1.0  0.93827  0.56707  0.21690  1.0000
  H   H784      1.0  0.86548  0.55606  0.22768  1.0000
  H   H785      1.0  0.86325  0.61152  0.22944  1.0000
  H   H786      1.0  0.95713  0.61019  0.21563  1.0000
  H   H787      1.0  0.51751  0.63286  0.97803  1.0000
  H   H788      1.0  0.49325  0.89407  0.12030  1.0000
  C   C638      1.0  0.84238  0.80730  0.28329  1.0000
  C   C639      1.0  0.84965  0.81970  0.25888  1.0000
  C   C640      1.0  0.90455  0.63761  0.03520  1.0000
  H   H789      1.0  0.77239  0.99568  0.17871  1.0000
  H   H790      1.0  0.83772  0.78393  0.28446  1.0000
  H   H791      1.0  0.55220  0.64827  0.19896  1.0000
  H   H792      1.0  0.97596  0.56307  0.26192  1.0000
  C   C641      1.0  0.80720  0.98543  0.99349  1.0000
  C   C642      1.0  0.62110  0.66268  0.04149  1.0000
  H   H793      1.0  0.86547  0.64574  0.27422  1.0000
  H   H794      1.0  0.72060  0.71131  0.28727  1.0000
  C   C643      1.0  0.79643  0.98965  0.24272  1.0000
  C   C644      1.0  0.82290  0.97260  0.23840  1.0000
  C   C645      1.0  0.83129  0.96407  0.21264  1.0000
  C   C646      1.0  0.81322  0.97244  0.19101  1.0000
  C   C647      1.0  0.78677  0.98958  0.19523  1.0000
  C   C648      1.0  0.67931  0.98987  0.01828  1.0000
  H   H795      1.0  0.83682  0.96566  0.25486  1.0000
  H   H796      1.0  0.85174  0.95072  0.20955  1.0000
  S   S179      1.0  0.83257  0.67008  0.97041  1.0000
  H   H797      1.0  0.50347  0.55195  0.27675  1.0000
  C   C649      1.0  0.79812  0.01498  0.98729  1.0000
  H   H798      1.0  0.72312  0.01736  0.27475  1.0000
  H   H799      1.0  0.66647  0.98733  0.23278  1.0000
  H   H800      1.0  0.72425  0.98646  0.97944  1.0000
  H   H801      1.0  0.71318  0.97446  0.06276  1.0000
  H   H802      1.0  0.70434  0.99544  0.23642  1.0000
  H   H803      1.0  0.54662  0.65947  0.24708  1.0000
  N   N44       1.0  0.71193  0.98464  0.02076  1.0000
  S   S180      1.0  0.50549  0.96501  0.27422  1.0000
  H   H804      1.0  0.57179  0.87344  0.13758  1.0000
  C   C650      1.0  0.51215  0.96628  0.11211  1.0000
  C   C651      1.0  0.53344  0.98694  0.10680  1.0000
  H   H805      1.0  0.54389  0.59940  0.26241  1.0000
  C   C652      1.0  0.52452  0.98201  0.05948  1.0000
  C   C653      1.0  0.92891  0.57341  0.29365  1.0000
  H   H806      1.0  0.69209  0.74089  0.29225  1.0000
  H   H807      1.0  0.65810  0.65269  0.00046  1.0000
  C   C654      1.0  0.54720  0.87615  0.13919  1.0000
  S   S181      1.0  0.51210  0.70723  0.27488  1.0000
  C   C655      1.0  0.65384  0.99095  0.28630  1.0000
  S   S182      1.0  0.78064  0.68446  0.28636  1.0000
  H   H808      1.0  0.62234  0.99185  0.25332  1.0000
  H   H809      1.0  0.85857  0.89150  0.27955  1.0000
  H   H810      1.0  0.63680  0.64327  0.04602  1.0000
  N   N45       1.0  0.79589  0.87103  0.19014  1.0000
  C   C656      1.0  0.82696  0.87894  0.18584  1.0000
  C   C657      1.0  0.79312  0.84018  0.18001  1.0000
  C   C658      1.0  0.77596  0.89136  0.17395  1.0000
  C   C659      1.0  0.78862  0.87432  0.21864  1.0000
  C   C660      1.0  0.78678  0.90301  0.23061  1.0000
  C   C661      1.0  0.78465  0.84950  0.23556  1.0000
  C   C662      1.0  0.78196  0.90666  0.25776  1.0000
  C   C663      1.0  0.77960  0.85339  0.26269  1.0000
  C   C664      1.0  0.77856  0.88185  0.27381  1.0000
  H   H811      1.0  0.83310  0.87796  0.16451  1.0000
  H   H812      1.0  0.83079  0.90197  0.19267  1.0000
  H   H813      1.0  0.84279  0.86334  0.19669  1.0000
  H   H814      1.0  0.80959  0.82400  0.18948  1.0000
  H   H815      1.0  0.79764  0.83859  0.15838  1.0000
  H   H816      1.0  0.77046  0.83242  0.18342  1.0000
  H   H817      1.0  0.78008  0.91532  0.17713  1.0000
  H   H818      1.0  0.77945  0.88772  0.15235  1.0000
  H   H819      1.0  0.75224  0.88813  0.17844  1.0000
  H   H820      1.0  0.78987  0.92284  0.21915  1.0000
  H   H821      1.0  0.78664  0.82669  0.22861  1.0000
  H   H822      1.0  0.78168  0.92879  0.26651  1.0000
  S   S183      1.0  0.61981  0.02231  0.20329  1.0000
  H   H823      1.0  0.54072  0.90014  0.14299  1.0000
  H   H824      1.0  0.56778  0.91470  0.10827  1.0000
  C   C665      1.0  0.66276  0.69483  0.03984  1.0000
  C   C666      1.0  0.66065  0.70583  0.06616  1.0000
  C   C667      1.0  0.69128  0.69432  0.02775  1.0000
  H   H825      1.0  0.97242  0.58993  0.04395  1.0000
  C   C668      1.0  0.71592  0.70419  0.04135  1.0000
  H   H826      1.0  0.49243  0.85903  0.13739  1.0000
  H   H827      1.0  0.65164  0.68923  0.98572  1.0000
  H   H828      1.0  0.53321  0.60781  0.22947  1.0000
  S   S184      1.0  0.49630  0.66307  0.08534  1.0000
  H   H829      1.0  0.73746  0.70376  0.03174  1.0000
  H   H830      1.0  0.88171  0.00456  0.20493  1.0000
  C   C669      1.0  0.88493  0.64345  0.08099  1.0000
  C   C670      1.0  0.91126  0.62856  0.09114  1.0000
  C   C671      1.0  0.86280  0.65252  0.09969  1.0000
  C   C672      1.0  0.91494  0.62339  0.11836  1.0000
  C   C673      1.0  0.86667  0.64727  0.12678  1.0000
  C   C674      1.0  0.89274  0.63279  0.13614  1.0000
  H   H831      1.0  0.92937  0.62086  0.07855  1.0000
  H   H832      1.0  0.84240  0.66419  0.09355  1.0000
  H   H833      1.0  0.93523  0.61229  0.12588  1.0000
  H   H834      1.0  0.84941  0.65480  0.14065  1.0000
  H   H835      1.0  0.89577  0.62912  0.15726  1.0000
  H   H836      1.0  0.49217  0.95065  0.04888  1.0000
  C   C675      1.0  0.54110  0.88029  0.09047  1.0000
  C   C676      1.0  0.88122  0.55446  0.04640  1.0000
  C   C677      1.0  0.53047  0.87084  0.06557  1.0000
  H   H837      1.0  0.49661  0.72444  0.00004  1.0000
  C   C678      1.0  0.53710  0.88558  0.04212  1.0000
  H   H838      1.0  0.51640  0.85227  0.06413  1.0000
  H   H839      1.0  0.75044  0.96615  0.99976  1.0000
  H   H840      1.0  0.56380  0.82792  0.10814  1.0000
  C   C679      1.0  0.91261  0.55151  0.22059  1.0000
  H   H841      1.0  0.56813  0.66585  0.97146  1.0000
  H   H842      1.0  0.52773  0.87853  0.02349  1.0000
  H   H843      1.0  0.60628  0.72096  0.04142  1.0000
  C   C680      1.0  0.68511  0.98686  0.24725  1.0000
  C   C681      1.0  0.87531  0.55532  0.07345  1.0000
  H   H844      1.0  0.95915  0.55504  0.21314  1.0000
  H   H845      1.0  0.93098  0.59716  0.29931  1.0000
  S   S185      1.0  0.83813  0.00460  0.09464  1.0000
  H   H846      1.0  0.59287  0.00462  0.01340  1.0000
  H   H847      1.0  0.90005  0.64285  0.01393  1.0000
  H   H848      1.0  0.62183  0.66519  0.98942  1.0000
  N   N46       1.0  0.88039  0.65027  0.05249  1.0000
  H   H849      1.0  0.60175  0.65413  0.03068  1.0000
  H   H850      1.0  0.59515  0.70644  0.01038  1.0000
  C   C682      1.0  0.66373  0.98551  0.99419  1.0000
  N   N47       1.0  0.53242  0.86508  0.11509  1.0000
  C   C683      1.0  0.61492  0.71198  0.02225  1.0000
  H   H851      1.0  0.68374  0.70663  0.27631  1.0000
  H   H852      1.0  0.84923  0.64067  0.02139  1.0000
  H   H853      1.0  0.87381  0.68937  0.02761  1.0000
  H   H854      1.0  0.55628  0.01059  0.07656  1.0000
  C   C684      1.0  0.52928  0.59230  0.24604  1.0000
  H   H855      1.0  0.55949  0.92180  0.02460  1.0000
  H   H856      1.0  0.49223  0.73818  0.22790  1.0000
  C   C685      1.0  0.56642  0.91933  0.06669  1.0000
  C   C686      1.0  0.52469  0.68645  0.18613  1.0000
  Fe  Fe86      1.0  0.50323  0.97608  0.99438  1.0000
  C   C687      1.0  0.92795  0.54792  0.08277  1.0000
  H   H857      1.0  0.49759  0.72689  0.17992  1.0000
  C   C688      1.0  0.85223  0.63816  0.04317  1.0000
  C   C689      1.0  0.87859  0.68312  0.04862  1.0000
  H   H858      1.0  0.92618  0.64713  0.03989  1.0000
  H   H859      1.0  0.85140  0.61404  0.04795  1.0000
  H   H860      1.0  0.89954  0.69314  0.05471  1.0000
  H   H861      1.0  0.86184  0.85993  0.23931  1.0000
  C   C690      1.0  0.85576  0.85012  0.25787  1.0000
  H   H862      1.0  0.86309  0.55678  0.03220  1.0000
  S   S186      1.0  0.52871  0.67695  0.15219  1.0000
  H   H863      1.0  0.68288  0.02510  0.19744  1.0000
  C   C691      1.0  0.50798  0.71193  0.19445  1.0000
  H   H864      1.0  0.85261  0.55833  0.08041  1.0000
  N   N48       1.0  0.63589  0.68559  0.02584  1.0000
  H   H865      1.0  0.75789  0.01134  0.22416  1.0000
  C   C692      1.0  0.53282  0.69365  0.98892  1.0000
  H   H866      1.0  0.89733  0.98936  0.24909  1.0000
  S   S187      1.0  0.84149  0.58307  0.96860  1.0000
  Fe  Fe87      1.0  0.51003  0.69566  0.05459  1.0000
  S   S188      1.0  0.53333  0.99158  0.02672  1.0000
  H   H867      1.0  0.62574  0.73030  0.01178  1.0000
  C   C693      1.0  0.72619  0.97111  0.99677  1.0000
  S   S189      1.0  0.52440  0.72852  0.08495  1.0000
  H   H868      1.0  0.69527  0.68648  0.00778  1.0000
  C   C694      1.0  0.61674  0.00051  0.01475  1.0000
  H   H869      1.0  0.67482  0.97825  0.97622  1.0000
  H   H870      1.0  0.71737  0.02411  0.04452  1.0000
  H   H871      1.0  0.82053  0.94223  0.97732  1.0000
  H   H872      1.0  0.71531  0.98457  0.29281  1.0000
  C   C695      1.0  0.55505  0.90980  0.04268  1.0000
  H   H873      1.0  0.61875  0.01324  0.05566  1.0000
  C   C696      1.0  0.85401  0.86812  0.28075  1.0000
  S   S190      1.0  0.54043  0.68001  0.02114  1.0000
  C   C697      1.0  0.50321  0.96142  0.06485  1.0000
  H   H874      1.0  0.63967  0.70731  0.07649  1.0000
  C   C698      1.0  0.64223  0.67264  0.99927  1.0000
  H   H875      1.0  0.61194  0.67154  0.06049  1.0000
  H   H876      1.0  0.67246  0.00488  0.05907  1.0000
  H   H877      1.0  0.62133  0.98728  0.97412  1.0000
  H   H878      1.0  0.84959  0.01741  0.17140  1.0000
  C   C699      1.0  0.51837  0.69910  0.24088  1.0000
  C   C700      1.0  0.53997  0.83246  0.11312  1.0000
  C   C701      1.0  0.66215  0.00028  0.04030  1.0000
  H   H879      1.0  0.53745  0.56944  0.23989  1.0000
  N   N49       1.0  0.96547  0.54283  0.04509  1.0000
  C   C702      1.0  0.71926  0.96424  0.04330  1.0000
  H   H880      1.0  0.92391  0.57304  0.27209  1.0000
  H   H881      1.0  0.53539  0.82064  0.13193  1.0000
  C   C703      1.0  0.50956  0.71488  0.98387  1.0000
  C   C704      1.0  0.63288  0.99071  0.99263  1.0000
  Fe  Fe88      1.0  0.80156  0.99803  0.06512  1.0000
  H   H882      1.0  0.57966  0.93877  0.06707  1.0000
  H   H883      1.0  0.51150  0.58481  0.29469  1.0000
  Fe  Fe89      1.0  0.50598  0.69797  0.11563  1.0000
  C   C705      1.0  0.86880  0.64484  0.29550  1.0000
  C   C706      1.0  0.70570  0.00696  0.28667  1.0000
  H   H884      1.0  0.74358  0.95826  0.04449  1.0000
  H   H885      1.0  0.77602  0.88459  0.29501  1.0000
  H   H886      1.0  0.71669  0.94950  0.99162  1.0000
  C   C707      1.0  0.63064  0.02419  0.14904  1.0000
  C   C708      1.0  0.68553  0.71532  0.07964  1.0000
  C   C709      1.0  0.87880  0.02103  0.22045  1.0000
  C   C710      1.0  0.49646  0.57597  0.27943  1.0000
  C   C711      1.0  0.88793  0.01190  0.24584  1.0000
  H   H887      1.0  0.89385  0.55271  0.11263  1.0000
  Fe  Fe90      1.0  0.75348  0.02508  0.10196  1.0000
  C   C712      1.0  0.60329  0.97316  0.28747  1.0000
  C   C713      1.0  0.89861  0.55212  0.09157  1.0000
  H   H888      1.0  0.69088  0.96308  0.25239  1.0000
  N   N50       1.0  0.95637  0.55506  0.30011  1.0000
  H   H889      1.0  0.70765  0.94311  0.04142  1.0000
  C   C714      1.0  0.49699  0.95365  0.09106  1.0000
  C   C715      1.0  0.97320  0.57013  0.03069  1.0000
  C   C716      1.0  0.93475  0.54690  0.05529  1.0000
  C   C717      1.0  0.69685  0.71628  0.29258  1.0000
  H   H890      1.0  0.91386  0.55034  0.01629  1.0000
  H   H891      1.0  0.49589  0.60875  0.20144  1.0000
  H   H892      1.0  0.75002  0.01041  0.02750  1.0000
  H   H893      1.0  0.58249  0.96948  0.27743  1.0000
  C   C718      1.0  0.64253  0.02379  0.17465  1.0000
  C   C719      1.0  0.72543  0.01346  0.02577  1.0000
  H   H894      1.0  0.68452  0.66009  0.30108  1.0000
  H   H895      1.0  0.89098  0.02393  0.28698  1.0000
  H   H896      1.0  0.60692  0.02340  0.14628  1.0000
  C   C720      1.0  0.67344  0.02500  0.17780  1.0000
  H   H897      1.0  0.52178  0.59461  0.96810  1.0000
  H   H898      1.0  0.77132  0.92084  0.43679  1.0000
  C   C721      1.0  0.84588  0.63695  0.31202  1.0000
  S   S191      1.0  0.52665  0.98702  0.39716  1.0000
  H   H899      1.0  0.52304  0.58846  0.49425  1.0000
  C   C722      1.0  0.92686  0.56564  0.53049  1.0000
  Fe  Fe91      1.0  0.81252  0.97771  0.37045  1.0000
  S   S192      1.0  0.78396  0.98911  0.40661  1.0000
  Fe  Fe92      1.0  0.84231  0.92844  0.33558  1.0000
  S   S193      1.0  0.84488  0.87742  0.33462  1.0000
  H   H900      1.0  0.82460  0.63210  0.30343  1.0000
  S   S194      1.0  0.79602  0.94964  0.33719  1.0000
  S   S195      1.0  0.62405  0.63944  0.35329  1.0000
  H   H901      1.0  0.51658  0.78758  0.61911  1.0000
  Fe  Fe93      1.0  0.51144  0.62835  0.34573  1.0000
  Fe  Fe94      1.0  0.75135  0.66126  0.46119  1.0000
  S   S196      1.0  0.76854  0.70721  0.46581  1.0000
  S   S197      1.0  0.70070  0.66142  0.45757  1.0000
  Fe  Fe95      1.0  0.80263  0.69127  0.43606  1.0000
  S   S198      1.0  0.81851  0.71960  0.40255  1.0000
  S   S199      1.0  0.78420  0.64644  0.42991  1.0000
  H   H902      1.0  0.97642  0.56146  0.40552  1.0000
  H   H903      1.0  0.69113  0.65910  0.33582  1.0000
  C   C723      1.0  0.82054  0.72363  0.34844  1.0000
  C   C724      1.0  0.80877  0.70901  0.37023  1.0000
  C   C725      1.0  0.78902  0.68660  0.36595  1.0000
  C   C726      1.0  0.78103  0.67886  0.34015  1.0000
  C   C727      1.0  0.60675  0.96546  0.31404  1.0000
  H   H904      1.0  0.83569  0.74115  0.35155  1.0000
  H   H905      1.0  0.77904  0.67585  0.38244  1.0000
  H   H906      1.0  0.76578  0.66146  0.33716  1.0000
  C   C728      1.0  0.94672  0.58878  0.45916  1.0000
  C   C729      1.0  0.92973  0.61495  0.46562  1.0000
  C   C730      1.0  0.89851  0.61542  0.46571  1.0000
  H   H907      1.0  0.94077  0.63495  0.47081  1.0000
  H   H908      1.0  0.88585  0.63560  0.47115  1.0000
  C   C731      1.0  0.67993  0.65509  0.42827  1.0000
  C   C732      1.0  0.69209  0.63896  0.40680  1.0000
  C   C733      1.0  0.67444  0.63343  0.38441  1.0000
  C   C734      1.0  0.64467  0.64463  0.38285  1.0000
  C   C735      1.0  0.63255  0.66083  0.40428  1.0000
  C   C736      1.0  0.65000  0.66580  0.42688  1.0000
  H   H909      1.0  0.71494  0.63024  0.40765  1.0000
  H   H910      1.0  0.68396  0.62042  0.36820  1.0000
  H   H911      1.0  0.60972  0.66958  0.40342  1.0000
  H   H912      1.0  0.64020  0.67826  0.44323  1.0000
  C   C737      1.0  0.69001  0.72263  0.57955  1.0000
  C   C738      1.0  0.66559  0.70056  0.54130  1.0000
  H   H913      1.0  0.88099  0.01788  0.40430  1.0000
  H   H914      1.0  0.85120  0.90839  0.41952  1.0000
  H   H915      1.0  0.90905  0.56532  0.30375  1.0000
  C   C739      1.0  0.79422  0.98342  0.44026  1.0000
  C   C740      1.0  0.77474  0.99423  0.46019  1.0000
  H   H916      1.0  0.83600  0.95961  0.43248  1.0000
  C   C741      1.0  0.96791  0.54461  0.62151  1.0000
  H   H917      1.0  0.76196  0.76254  0.35575  1.0000
  C   C742      1.0  0.53146  0.99240  0.31700  1.0000
  C   C743      1.0  0.53609  0.99641  0.34431  1.0000
  C   C744      1.0  0.51941  0.98144  0.36311  1.0000
  Fe  Fe96      1.0  0.57432  0.65169  0.34945  1.0000
  C   C745      1.0  0.52492  0.86213  0.36150  1.0000
  C   C746      1.0  0.86821  0.63964  0.61914  1.0000
  H   H918      1.0  0.84848  0.61370  0.39143  1.0000
  C   C747      1.0  0.97778  0.54825  0.52309  1.0000
  H   H919      1.0  0.56790  0.66158  0.47148  1.0000
  C   C748      1.0  0.84301  0.63740  0.57606  1.0000
  H   H920      1.0  0.74856  0.83278  0.63409  1.0000
  S   S200      1.0  0.53653  0.99037  0.52696  1.0000
  C   C749      1.0  0.49780  0.96261  0.35435  1.0000
  H   H921      1.0  0.84605  0.87571  0.62225  1.0000
  H   H922      1.0  0.91168  0.65846  0.61644  1.0000
  S   S201      1.0  0.52267  0.93965  0.46330  1.0000
  H   H923      1.0  0.62216  0.67049  0.49282  1.0000
  S   S202      1.0  0.77319  0.97366  0.59907  1.0000
  C   C750      1.0  0.54998  0.67833  0.46843  1.0000
  S   S203      1.0  0.55710  0.69944  0.34387  1.0000
  C   C751      1.0  0.84358  0.63212  0.60336  1.0000
  Fe  Fe97      1.0  0.80008  0.98839  0.56419  1.0000
  S   S204      1.0  0.81398  0.96105  0.52770  1.0000
  C   C752      1.0  0.96600  0.56867  0.57860  1.0000
  Fe  Fe98      1.0  0.81473  0.63164  0.46334  1.0000
  S   S205      1.0  0.83516  0.67556  0.46726  1.0000
  S   S206      1.0  0.84467  0.58930  0.45886  1.0000
  Fe  Fe99      1.0  0.79920  0.68676  0.49702  1.0000
  S   S207      1.0  0.81536  0.71182  0.53321  1.0000
  S   S208      1.0  0.77991  0.64164  0.49479  1.0000
  C   C753      1.0  0.80917  0.70667  0.56757  1.0000
  C   C754      1.0  0.82622  0.72204  0.58588  1.0000
  C   C755      1.0  0.82152  0.71942  0.61335  1.0000
  C   C756      1.0  0.79928  0.70176  0.62276  1.0000
  C   C757      1.0  0.78241  0.68617  0.60448  1.0000
  C   C758      1.0  0.78749  0.68835  0.57704  1.0000
  H   H924      1.0  0.84311  0.73619  0.57873  1.0000
  N   N51       1.0  0.52369  0.81217  0.42247  1.0000
  H   H925      1.0  0.76516  0.67241  0.61157  1.0000
  H   H926      1.0  0.77437  0.67620  0.56324  1.0000
  C   C759      1.0  0.88391  0.58975  0.45907  1.0000
  C   C760      1.0  0.90093  0.56358  0.45249  1.0000
  C   C761      1.0  0.93217  0.56306  0.45252  1.0000
  N   N52       1.0  0.63818  0.69060  0.52867  1.0000
  H   H927      1.0  0.55272  0.01118  0.35095  1.0000
  C   C762      1.0  0.82062  0.96765  0.44757  1.0000
  C   C763      1.0  0.82675  0.96161  0.47448  1.0000
  C   C764      1.0  0.80694  0.97189  0.49438  1.0000
  C   C765      1.0  0.78116  0.98873  0.48713  1.0000
  H   H928      1.0  0.84669  0.94845  0.47990  1.0000
  C   C766      1.0  0.79247  0.69368  0.31838  1.0000
  Fe  Fe100     1.0  0.50853  0.97383  0.49385  1.0000
  S   S209      1.0  0.91198  0.01421  0.34553  1.0000
  H   H929      1.0  0.83070  0.63093  0.35105  1.0000
  H   H930      1.0  0.50317  0.83703  0.62090  1.0000
  C   C767      1.0  0.52809  0.97826  0.55906  1.0000
  C   C768      1.0  0.53916  0.99331  0.58091  1.0000
  C   C769      1.0  0.53130  0.98531  0.60670  1.0000
  H   H931      1.0  0.72102  0.66585  0.31359  1.0000
  C   C770      1.0  0.95574  0.54265  0.56637  1.0000
  H   H932      1.0  0.68879  0.73152  0.59950  1.0000
  S   S210      1.0  0.85778  0.95442  0.37094  1.0000
  H   H933      1.0  0.91033  0.62176  0.40931  1.0000
  C   C771      1.0  0.74409  0.74780  0.35901  1.0000
  H   H934      1.0  0.92117  0.65795  0.34131  1.0000
  C   C772      1.0  0.97233  0.56047  0.38437  1.0000
  H   H935      1.0  0.50031  0.72312  0.50262  1.0000
  H   H936      1.0  0.87283  0.69187  0.38172  1.0000
  S   S211      1.0  0.82492  0.01428  0.34282  1.0000
  C   C773      1.0  0.90639  0.62235  0.38753  1.0000
  H   H937      1.0  0.64170  0.64811  0.54857  1.0000
  H   H938      1.0  0.85412  0.88525  0.39050  1.0000
  N   N53       1.0  0.68968  0.70334  0.31872  1.0000
  H   H939      1.0  0.63579  0.96444  0.34775  1.0000
  H   H940      1.0  0.59594  0.71027  0.51532  1.0000
  H   H941      1.0  0.83473  0.73150  0.62710  1.0000
  H   H942      1.0  0.56543  0.79250  0.40839  1.0000
  C   C774      1.0  0.71701  0.72137  0.56619  1.0000
  H   H943      1.0  0.51708  0.81649  0.36845  1.0000
  C   C775      1.0  0.66461  0.71253  0.56733  1.0000
  H   H944      1.0  0.71163  0.71083  0.40882  1.0000
  H   H945      1.0  0.64922  0.69637  0.34042  1.0000
  C   C776      1.0  0.89216  0.65229  0.60579  1.0000
  H   H946      1.0  0.48834  0.65668  0.46531  1.0000
  S   S212      1.0  0.50639  0.71821  0.40608  1.0000
  C   C777      1.0  0.61620  0.71638  0.52621  1.0000
  C   C778      1.0  0.54166  0.68674  0.44253  1.0000
  C   C779      1.0  0.53161  0.86765  0.41623  1.0000
  N   N54       1.0  0.88179  0.64427  0.38035  1.0000
  C   C780      1.0  0.88971  0.67452  0.38877  1.0000
  H   H947      1.0  0.93408  0.58855  0.53419  1.0000
  C   C781      1.0  0.50980  0.95453  0.56316  1.0000
  H   H948      1.0  0.53291  0.90895  0.35973  1.0000
  C   C782      1.0  0.51243  0.96212  0.61083  1.0000
  Fe  Fe101     1.0  0.52722  0.68178  0.31226  1.0000
  H   H949      1.0  0.69676  0.69060  0.50855  1.0000
  H   H950      1.0  0.55372  0.01137  0.57791  1.0000
  C   C783      1.0  0.71882  0.70975  0.54066  1.0000
  S   S213      1.0  0.49036  0.67435  0.34107  1.0000
  H   H951      1.0  0.73666  0.72936  0.57564  1.0000
  C   C784      1.0  0.51179  0.71275  0.48602  1.0000
  H   H952      1.0  0.83576  0.81528  0.32507  1.0000
  H   H953      1.0  0.55651  0.82339  0.45136  1.0000
  H   H954      1.0  0.64411  0.71423  0.57839  1.0000
  H   H955      1.0  0.65101  0.73267  0.32566  1.0000
  C   C785      1.0  0.54217  0.78644  0.41174  1.0000
  C   C786      1.0  0.96233  0.55700  0.32891  1.0000
  H   H956      1.0  0.91699  0.01600  0.44127  1.0000
  C   C787      1.0  0.69361  0.69938  0.52830  1.0000
  H   H957      1.0  0.98560  0.57084  0.52712  1.0000
  H   H958      1.0  0.76555  0.99648  0.50220  1.0000
  H   H959      1.0  0.85959  0.63713  0.41758  1.0000
  C   C788      1.0  0.53475  0.69096  0.49025  1.0000
  H   H960      1.0  0.55352  0.67682  0.42588  1.0000
  H   H961      1.0  0.90126  0.59940  0.38133  1.0000
  H   H962      1.0  0.60843  0.72499  0.54578  1.0000
  Fe  Fe102     1.0  0.50160  0.97174  0.43342  1.0000
  H   H963      1.0  0.62575  0.73513  0.51529  1.0000
  C   C789      1.0  0.89111  0.65791  0.57855  1.0000
  H   H964      1.0  0.83625  0.65295  0.39218  1.0000
  C   C790      1.0  0.70023  0.70757  0.36749  1.0000
  C   C791      1.0  0.97217  0.56947  0.60573  1.0000
  H   H965      1.0  0.52297  0.62824  0.49349  1.0000
  H   H966      1.0  0.65173  0.69468  0.48794  1.0000
  Fe  Fe103     1.0  0.51347  0.69403  0.55561  1.0000
  S   S214      1.0  0.85892  0.96119  0.30614  1.0000
  H   H967      1.0  0.88986  0.54360  0.44732  1.0000
  C   C792      1.0  0.84676  0.85573  0.30513  1.0000
  H   H968      1.0  0.78497  0.89400  0.51676  1.0000
  H   H969      1.0  0.54444  0.00407  0.30278  1.0000
  C   C793      1.0  0.51809  0.70788  0.43830  1.0000
  H   H970      1.0  0.91156  0.68058  0.38104  1.0000
  H   H971      1.0  0.75922  0.92589  0.48316  1.0000
  S   S215      1.0  0.83894  0.99946  0.58957  1.0000
  S   S216      1.0  0.50133  0.66291  0.58828  1.0000
  Fe  Fe104     1.0  0.75561  0.02161  0.60161  1.0000
  S   S217      1.0  0.54387  0.67801  0.52238  1.0000
  C   C794      1.0  0.94211  0.54581  0.34747  1.0000
  H   H972      1.0  0.53806  0.91419  0.40805  1.0000
  H   H973      1.0  0.98099  0.58916  0.61451  1.0000
  H   H974      1.0  0.94488  0.54282  0.44722  1.0000
  C   C795      1.0  0.52638  0.83898  0.40566  1.0000
  H   H975      1.0  0.82368  0.63229  0.56445  1.0000
  H   H976      1.0  0.54282  0.76685  0.42536  1.0000
  H   H977      1.0  0.77378  0.89854  0.39579  1.0000
  Fe  Fe105     1.0  0.81013  0.98960  0.62428  1.0000
  H   H978      1.0  0.51865  0.83348  0.46069  1.0000
  H   H979      1.0  0.90619  0.56285  0.54199  1.0000
  H   H980      1.0  0.86086  0.86910  0.42226  1.0000
  H   H981      1.0  0.53335  0.77783  0.39284  1.0000
  H   H982      1.0  0.73577  0.74358  0.31807  1.0000
  C   C796      1.0  0.65721  0.70851  0.32287  1.0000
  C   C797      1.0  0.89576  0.65228  0.30636  1.0000
  H   H983      1.0  0.82410  0.62283  0.61163  1.0000
  C   C798      1.0  0.86649  0.65063  0.56375  1.0000
  H   H984      1.0  0.67662  0.98581  0.32472  1.0000
  C   C799      1.0  0.81235  0.71604  0.32256  1.0000
  C   C800      1.0  0.53094  0.88965  0.37241  1.0000
  H   H985      1.0  0.86521  0.65586  0.54278  1.0000
  N   N55       1.0  0.95015  0.54220  0.53747  1.0000
  H   H986      1.0  0.53197  0.79566  0.46224  1.0000
  H   H987      1.0  0.52193  0.86022  0.34027  1.0000
  C   C801      1.0  0.69691  0.67071  0.31729  1.0000
  Fe  Fe106     1.0  0.50945  0.70080  0.61622  1.0000
  H   H988      1.0  0.83590  0.84821  0.45657  1.0000
  H   H989      1.0  0.60538  0.65819  0.53545  1.0000
  H   H990      1.0  0.53992  0.99716  0.62329  1.0000
  H   H991      1.0  0.75078  0.74633  0.40118  1.0000
  S   S218      1.0  0.54711  0.63479  0.31540  1.0000
  C   C802      1.0  0.53325  0.81648  0.45032  1.0000
  Fe  Fe107     1.0  0.81330  0.98368  0.30958  1.0000
  H   H992      1.0  0.65902  0.65800  0.50214  1.0000
  Fe  Fe108     1.0  0.86949  0.98967  0.34138  1.0000
  Fe  Fe109     1.0  0.52206  0.68736  0.37285  1.0000
  C   C803      1.0  0.53402  0.89247  0.39969  1.0000
  C   C804      1.0  0.84972  0.63649  0.33952  1.0000
  H   H993      1.0  0.68372  0.69184  0.37181  1.0000
  C   C805      1.0  0.64307  0.67793  0.50178  1.0000
  H   H994      1.0  0.82273  0.85480  0.50315  1.0000
  C   C806      1.0  0.87698  0.64395  0.35131  1.0000
  C   C807      1.0  0.51276  0.60918  0.50329  1.0000
  C   C808      1.0  0.89997  0.65169  0.33382  1.0000
  C   C809      1.0  0.71599  0.71852  0.38889  1.0000
  H   H995      1.0  0.93178  0.53821  0.38857  1.0000
  H   H996      1.0  0.53358  0.87164  0.43722  1.0000
  C   C810      1.0  0.52244  0.83718  0.37781  1.0000
  C   C811      1.0  0.85532  0.63663  0.39586  1.0000
  C   C812      1.0  0.72874  0.73661  0.33741  1.0000
  H   H997      1.0  0.61750  0.67569  0.56470  1.0000
  H   H998      1.0  0.89085  0.67654  0.41074  1.0000
  H   H999      1.0  0.75425  0.00645  0.45475  1.0000
  S   S219      1.0  0.54051  0.64050  0.37997  1.0000
  C   C813      1.0  0.50345  0.72111  0.46015  1.0000
  C   C814      1.0  0.62524  0.66719  0.54510  1.0000
  C   C815      1.0  0.70614  0.71614  0.34105  1.0000
  S   S220      1.0  0.52628  0.72972  0.58362  1.0000
  C   C816      1.0  0.73787  0.73863  0.38466  1.0000
  S   S221      1.0  0.98592  0.58919  0.45966  1.0000
  N   N56       1.0  0.81449  0.88054  0.41371  1.0000
  C   C817      1.0  0.80981  0.84984  0.40420  1.0000
  C   C818      1.0  0.79804  0.90171  0.39558  1.0000
  C   C819      1.0  0.84651  0.88603  0.41148  1.0000
  C   C820      1.0  0.80510  0.88372  0.44169  1.0000
  C   C821      1.0  0.81891  0.86524  0.46154  1.0000
  C   C822      1.0  0.78284  0.90537  0.45022  1.0000
  C   C823      1.0  0.81150  0.86877  0.48827  1.0000
  C   C824      1.0  0.77553  0.90857  0.47698  1.0000
  C   C825      1.0  0.79005  0.89059  0.49598  1.0000
  H   H1000     1.0  0.82351  0.83252  0.41516  1.0000
  H   H1001     1.0  0.78616  0.84446  0.40630  1.0000
  H   H1002     1.0  0.81600  0.84709  0.38291  1.0000
  H   H1003     1.0  0.80536  0.89853  0.37472  1.0000
  H   H1004     1.0  0.80179  0.92535  0.40071  1.0000
  H   H1005     1.0  0.82096  0.72793  0.30593  1.0000
  C   C826      1.0  0.51061  0.97274  0.30825  1.0000
  H   H1006     1.0  0.92088  0.56492  0.50911  1.0000
  H   H1007     1.0  0.90918  0.66853  0.56890  1.0000
  H   H1008     1.0  0.51952  0.60979  0.52451  1.0000
  H   H1009     1.0  0.92778  0.62760  0.37828  1.0000
  H   H1010     1.0  0.73998  0.70873  0.53038  1.0000
  H   H1011     1.0  0.96988  0.58840  0.56712  1.0000
  H   H1012     1.0  0.51996  0.88792  0.62298  1.0000
  H   H1013     1.0  0.84582  0.01197  0.51729  1.0000
  C   C827      1.0  0.94721  0.54740  0.37475  1.0000
  C   C828      1.0  0.49224  0.80434  0.42275  1.0000
  C   C829      1.0  0.63333  0.97028  0.32699  1.0000
  H   H1014     1.0  0.92225  0.53557  0.34097  1.0000
  H   H1015     1.0  0.97459  0.54719  0.50131  1.0000
  C   C830      1.0  0.65668  0.98274  0.31344  1.0000
  S   S222      1.0  0.49183  0.00754  0.46388  1.0000
  H   H1016     1.0  0.70241  0.02131  0.30451  1.0000
  H   H1017     1.0  0.48904  0.78441  0.43533  1.0000
  C   C831      1.0  0.68239  0.02462  0.63346  1.0000
  H   H1018     1.0  0.50194  0.94214  0.54650  1.0000
  H   H1019     1.0  0.64418  0.70030  0.30588  1.0000
  C   C832      1.0  0.84117  0.82519  0.30630  1.0000
  C   C833      1.0  0.49369  0.95804  0.32703  1.0000
  H   H1020     1.0  0.58868  0.95592  0.32464  1.0000
  C   C834      1.0  0.50222  0.94635  0.58900  1.0000
  H   H1021     1.0  0.48849  0.92771  0.59207  1.0000
  C   C835      1.0  0.89435  0.02451  0.44476  1.0000
  C   C836      1.0  0.87412  0.02549  0.42388  1.0000
  Fe  Fe110     1.0  0.51994  0.98208  0.73821  1.0000
  Fe  Fe111     1.0  0.57106  0.64625  0.84921  1.0000
  H   H1022     1.0  0.89791  0.98650  0.95396  1.0000
  Fe  Fe112     1.0  0.51703  0.98030  0.67697  1.0000
  C   C837      1.0  0.52216  0.87351  0.64024  1.0000
  N   N57       1.0  0.96982  0.54234  0.81867  1.0000
  C   C838      1.0  0.50922  0.77715  0.68515  1.0000
  H   H1023     1.0  0.68317  0.66027  0.80583  1.0000
  H   H1024     1.0  0.80326  0.91198  0.78711  1.0000
  S   S223      1.0  0.55025  0.96185  0.70676  1.0000
  H   H1025     1.0  0.88270  0.87873  0.67419  1.0000
  C   C839      1.0  0.48765  0.69115  0.72039  1.0000
  C   C840      1.0  0.91716  0.01829  0.91315  1.0000
  S   S224      1.0  0.51522  0.99140  0.89607  1.0000
  Fe  Fe113     1.0  0.81844  0.99867  0.80822  1.0000
  S   S225      1.0  0.86347  0.97491  0.80505  1.0000
  C   C841      1.0  0.95427  0.55237  0.79402  1.0000
  Fe  Fe114     1.0  0.81885  0.99558  0.86965  1.0000
  H   H1026     1.0  0.82938  0.57555  0.85942  1.0000
  Fe  Fe115     1.0  0.84592  0.94408  0.83552  1.0000
  S   S226      1.0  0.84758  0.89317  0.83352  1.0000
  S   S227      1.0  0.76629  0.70169  0.96322  1.0000
  S   S228      1.0  0.80021  0.96691  0.83768  1.0000
  H   H1027     1.0  0.78705  0.86551  0.77900  1.0000
  S   S229      1.0  0.82877  0.96319  0.65914  1.0000
  H   H1028     1.0  0.79442  0.95022  0.78091  1.0000
  S   S230      1.0  0.62100  0.63462  0.85180  1.0000
  H   H1029     1.0  0.86542  0.66078  0.77402  1.0000
  Fe  Fe116     1.0  0.84194  0.76110  0.72983  1.0000
  S   S231      1.0  0.79551  0.74614  0.72403  1.0000
  S   S232      1.0  0.85106  0.81058  0.73045  1.0000
  Fe  Fe117     1.0  0.86902  0.69691  0.72869  1.0000
  S   S233      1.0  0.82491  0.67765  0.72343  1.0000
  S   S234      1.0  0.91171  0.66775  0.73051  1.0000
  Fe  Fe118     1.0  0.81556  0.71421  0.69360  1.0000
  S   S235      1.0  0.79093  0.69904  0.65696  1.0000
  Fe  Fe119     1.0  0.80913  0.71097  0.75409  1.0000
  S   S236      1.0  0.77925  0.69446  0.78606  1.0000
  S   S237      1.0  0.86105  0.73173  0.69691  1.0000
  S   S238      1.0  0.85426  0.72778  0.76182  1.0000
  H   H1030     1.0  0.72504  0.94428  0.74595  1.0000
  H   H1031     1.0  0.68765  0.74212  0.80110  1.0000
  H   H1032     1.0  0.54198  0.01329  0.84921  1.0000
  Fe  Fe120     1.0  0.80291  0.68427  0.93651  1.0000
  S   S239      1.0  0.82211  0.71199  0.90418  1.0000
  S   S240      1.0  0.78453  0.63932  0.93051  1.0000
  C   C842      1.0  0.79187  0.69900  0.81872  1.0000
  C   C843      1.0  0.81079  0.72155  0.82510  1.0000
  C   C844      1.0  0.82027  0.72506  0.85135  1.0000
  C   C845      1.0  0.81074  0.70617  0.87134  1.0000
  C   C846      1.0  0.79220  0.68332  0.86485  1.0000
  C   C847      1.0  0.78289  0.67968  0.83859  1.0000
  H   H1033     1.0  0.81757  0.73679  0.80999  1.0000
  H   H1034     1.0  0.83452  0.74286  0.85629  1.0000
  H   H1035     1.0  0.78477  0.66863  0.88006  1.0000
  H   H1036     1.0  0.76877  0.66181  0.83377  1.0000
  H   H1037     1.0  0.74452  0.93781  0.80182  1.0000
  C   C848      1.0  0.76300  0.89285  0.74927  1.0000
  H   H1038     1.0  0.89898  0.68755  0.79826  1.0000
  H   H1039     1.0  0.55644  0.82935  0.94314  1.0000
  C   C849      1.0  0.79334  0.92762  0.77204  1.0000
  H   H1040     1.0  0.73918  0.91042  0.71398  1.0000
  C   C850      1.0  0.88818  0.58143  0.73413  1.0000
  C   C851      1.0  0.88653  0.61286  0.73324  1.0000
  C   C852      1.0  0.91242  0.62830  0.73051  1.0000
  C   C853      1.0  0.93983  0.61204  0.72833  1.0000
  C   C854      1.0  0.84186  0.61133  0.88450  1.0000
  H   H1041     1.0  0.86811  0.56961  0.73651  1.0000
  H   H1042     1.0  0.86526  0.62501  0.73485  1.0000
  H   H1043     1.0  0.95998  0.62381  0.72620  1.0000
  C   C855      1.0  0.78915  0.85079  0.64789  1.0000
  C   C856      1.0  0.67761  0.64942  0.92635  1.0000
  C   C857      1.0  0.68923  0.63251  0.90511  1.0000
  C   C858      1.0  0.67133  0.62728  0.88281  1.0000
  C   C859      1.0  0.64186  0.63930  0.88125  1.0000
  C   C860      1.0  0.63026  0.65612  0.90251  1.0000
  C   C861      1.0  0.64797  0.66098  0.92494  1.0000
  H   H1044     1.0  0.71186  0.62316  0.90599  1.0000
  H   H1045     1.0  0.68041  0.61388  0.86664  1.0000
  H   H1046     1.0  0.60769  0.66563  0.90157  1.0000
  H   H1047     1.0  0.63865  0.67414  0.94107  1.0000
  C   C862      1.0  0.84983  0.87045  0.80470  1.0000
  C   C863      1.0  0.85691  0.88186  0.77985  1.0000
  C   C864      1.0  0.85759  0.86317  0.75739  1.0000
  C   C865      1.0  0.85136  0.83287  0.75950  1.0000
  C   C866      1.0  0.84458  0.82138  0.78437  1.0000
  C   C867      1.0  0.84388  0.84008  0.80681  1.0000
  H   H1048     1.0  0.86199  0.90506  0.77799  1.0000
  H   H1049     1.0  0.86318  0.87226  0.73836  1.0000
  H   H1050     1.0  0.83978  0.79812  0.78634  1.0000
  H   H1051     1.0  0.83857  0.83098  0.82596  1.0000
  N   N58       1.0  0.83754  0.86968  0.66382  1.0000
  C   C868      1.0  0.80153  0.00367  0.93988  1.0000
  C   C869      1.0  0.81098  0.97425  0.94608  1.0000
  C   C870      1.0  0.92778  0.55254  0.96063  1.0000
  H   H1052     1.0  0.81584  0.95835  0.93034  1.0000
  C   C871      1.0  0.80232  0.00025  0.74073  1.0000
  C   C872      1.0  0.82861  0.98261  0.73736  1.0000
  C   C873      1.0  0.83651  0.97125  0.71230  1.0000
  C   C874      1.0  0.81848  0.97797  0.69026  1.0000
  C   C875      1.0  0.79212  0.99555  0.69350  1.0000
  S   S241      1.0  0.61997  0.00728  0.70353  1.0000
  H   H1053     1.0  0.84297  0.97761  0.75398  1.0000
  H   H1054     1.0  0.85695  0.95769  0.70996  1.0000
  C   C876      1.0  0.53599  0.89649  0.86783  1.0000
  H   H1055     1.0  0.64237  0.69856  0.81498  1.0000
  C   C877      1.0  0.53253  0.82464  0.94399  1.0000
  C   C878      1.0  0.75023  0.89129  0.72354  1.0000
  H   H1056     1.0  0.83272  0.60183  0.90225  1.0000
  H   H1057     1.0  0.81492  0.76847  0.66246  1.0000
  C   C879      1.0  0.51439  0.61742  0.96118  1.0000
  C   C880      1.0  0.53811  0.84280  0.87402  1.0000
  Fe  Fe121     1.0  0.87574  0.00426  0.83920  1.0000
  H   H1058     1.0  0.74920  0.96787  0.76288  1.0000
  S   S242      1.0  0.55300  0.69289  0.83904  1.0000
  C   C881      1.0  0.89470  0.61330  0.65470  1.0000
  C   C882      1.0  0.81815  0.84482  0.65831  1.0000
  S   S243      1.0  0.53716  0.02471  0.67259  1.0000
  C   C883      1.0  0.51034  0.98218  0.86222  1.0000
  C   C884      1.0  0.53903  0.68355  0.73354  1.0000
  C   C885      1.0  0.52458  0.98957  0.81597  1.0000
  C   C886      1.0  0.92372  0.54901  0.84643  1.0000
  H   H1059     1.0  0.75474  0.74118  0.90639  1.0000
  C   C887      1.0  0.74554  0.91699  0.78971  1.0000
  H   H1060     1.0  0.55576  0.68085  0.92540  1.0000
  H   H1061     1.0  0.75585  0.89909  0.80259  1.0000
  C   C888      1.0  0.70631  0.71417  0.84735  1.0000
  H   H1062     1.0  0.85094  0.59592  0.81945  1.0000
  C   C889      1.0  0.53429  0.88443  0.66340  1.0000
  C   C890      1.0  0.70268  0.70350  0.87353  1.0000
  Fe  Fe122     1.0  0.81214  0.62611  0.96643  1.0000
  C   C891      1.0  0.49092  0.96079  0.85398  1.0000
  N   N59       1.0  0.76253  0.92078  0.76496  1.0000
  H   H1063     1.0  0.54151  0.90710  0.66402  1.0000
  H   H1064     1.0  0.72239  0.91116  0.78535  1.0000
  H   H1065     1.0  0.54538  0.77704  0.64252  1.0000
  C   C892      1.0  0.75151  0.86454  0.70921  1.0000
  H   H1066     1.0  0.52984  0.62387  0.94526  1.0000
  S   S244      1.0  0.50011  0.95323  0.64281  1.0000
  C   C893      1.0  0.92320  0.57503  0.88842  1.0000
  C   C894      1.0  0.78400  0.00644  0.71869  1.0000
  C   C895      1.0  0.51868  0.71055  0.93644  1.0000
  H   H1067     1.0  0.84363  0.62013  0.68118  1.0000
  S   S245      1.0  0.54071  0.63993  0.88365  1.0000
  Fe  Fe123     1.0  0.49395  0.97426  0.93371  1.0000
  H   H1068     1.0  0.76188  0.76113  0.86151  1.0000
  H   H1069     1.0  0.76103  0.95163  0.73219  1.0000
  C   C896      1.0  0.74880  0.94713  0.75074  1.0000
  S   S246      1.0  0.86332  0.97056  0.86980  1.0000
  H   H1070     1.0  0.54595  0.87529  0.70385  1.0000
  N   N60       1.0  0.86953  0.63483  0.64816  1.0000
  C   C897      1.0  0.74083  0.73426  0.89023  1.0000
  H   H1071     1.0  0.96267  0.56842  0.72702  1.0000
  C   C898      1.0  0.50903  0.68621  0.74051  1.0000
  S   S247      1.0  0.79712  0.01614  0.90670  1.0000
  H   H1072     1.0  0.71654  0.71400  0.79268  1.0000
  H   H1073     1.0  0.53772  0.00071  0.80151  1.0000
  C   C899      1.0  0.89609  0.60812  0.96359  1.0000
  C   C900      1.0  0.67325  0.00295  0.67674  1.0000
  C   C901      1.0  0.94142  0.58061  0.72880  1.0000
  H   H1074     1.0  0.80805  0.92674  0.75438  1.0000
  C   C902      1.0  0.52325  0.90034  0.89274  1.0000
  C   C903      1.0  0.77669  0.86604  0.75965  1.0000
  H   H1075     1.0  0.87385  0.66102  0.68363  1.0000
  C   C904      1.0  0.84211  0.62296  0.65930  1.0000
  H   H1076     1.0  0.68692  0.68702  0.87789  1.0000
  H   H1077     1.0  0.71582  0.00067  0.65687  1.0000
  S   S248      1.0  0.79106  0.01363  0.77226  1.0000
  C   C905      1.0  0.77988  0.79811  0.64748  1.0000
  S   S249      1.0  0.98262  0.57786  0.95962  1.0000
  C   C906      1.0  0.91561  0.56516  0.73188  1.0000
  H   H1078     1.0  0.90868  0.00497  0.89644  1.0000
  H   H1079     1.0  0.91156  0.58240  0.90623  1.0000
  H   H1080     1.0  0.54000  0.91583  0.85569  1.0000
  Fe  Fe124     1.0  0.74926  0.65566  0.95933  1.0000
  H   H1081     1.0  0.82210  0.87371  0.70397  1.0000
  C   C907      1.0  0.53417  0.79137  0.90703  1.0000
  H   H1082     1.0  0.55250  0.86499  0.83874  1.0000
  H   H1083     1.0  0.77766  0.00014  0.67672  1.0000
  H   H1084     1.0  0.74161  0.86381  0.68968  1.0000
  S   S250      1.0  0.54076  0.62413  0.82024  1.0000
  H   H1085     1.0  0.68166  0.99119  0.69414  1.0000
  H   H1086     1.0  0.78869  0.81932  0.75339  1.0000
  Fe  Fe125     1.0  0.50848  0.62270  0.85405  1.0000
  C   C908      1.0  0.88081  0.00025  0.94275  1.0000
  H   H1087     1.0  0.85566  0.65048  0.90446  1.0000
  H   H1088     1.0  0.76549  0.78013  0.64318  1.0000
  C   C909      1.0  0.95398  0.55473  0.84222  1.0000
  C   C910      1.0  0.82685  0.81440  0.66368  1.0000
  H   H1089     1.0  0.80273  0.89861  0.68097  1.0000
  H   H1090     1.0  0.93975  0.53101  0.95929  1.0000
  C   C911      1.0  0.92728  0.60642  0.96173  1.0000
  N   N61       1.0  0.87900  0.64839  0.81372  1.0000
  C   C912      1.0  0.88994  0.67881  0.81709  1.0000
  C   C913      1.0  0.90444  0.62824  0.80532  1.0000
  C   C914      1.0  0.85668  0.65013  0.79207  1.0000
  C   C915      1.0  0.86585  0.63639  0.83810  1.0000
  C   C916      1.0  0.86682  0.65113  0.86300  1.0000
  C   C917      1.0  0.85230  0.60857  0.83756  1.0000
  C   C918      1.0  0.85510  0.63857  0.88577  1.0000
  C   C919      1.0  0.84013  0.59653  0.86037  1.0000
  H   H1091     1.0  0.50145  0.75413  0.68311  1.0000
  H   H1092     1.0  0.90826  0.67906  0.83185  1.0000
  H   H1093     1.0  0.87170  0.69510  0.82337  1.0000
  H   H1094     1.0  0.89740  0.60572  0.79973  1.0000
  H   H1095     1.0  0.92119  0.62533  0.82147  1.0000
  H   H1096     1.0  0.91573  0.63721  0.78763  1.0000
  H   H1097     1.0  0.83640  0.66352  0.79822  1.0000
  H   H1098     1.0  0.84969  0.62791  0.78573  1.0000
  H   H1099     1.0  0.87594  0.67271  0.86549  1.0000
  H   H1100     1.0  0.72054  0.66667  0.81590  1.0000
  C   C920      1.0  0.69318  0.71768  0.79965  1.0000
  C   C921      1.0  0.77776  0.83945  0.74516  1.0000
  H   H1101     1.0  0.71703  0.70415  0.91425  1.0000
  C   C922      1.0  0.52740  0.83719  0.68516  1.0000
  C   C923      1.0  0.52691  0.99668  0.84304  1.0000
  H   H1102     1.0  0.93906  0.62677  0.96136  1.0000
  H   H1103     1.0  0.64962  0.72971  0.83618  1.0000
  C   C924      1.0  0.72805  0.73555  0.84360  1.0000
  Fe  Fe126     1.0  0.52046  0.67035  0.81256  1.0000
  C   C925      1.0  0.94330  0.57866  0.96039  1.0000
  H   H1104     1.0  0.57080  0.68461  0.70167  1.0000
  C   C926      1.0  0.65641  0.70603  0.83161  1.0000
  H   H1105     1.0  0.95250  0.57715  0.79252  1.0000
  N   N62       1.0  0.68857  0.70247  0.82533  1.0000
  H   H1106     1.0  0.69336  0.65711  0.83981  1.0000
  H   H1107     1.0  0.55573  0.67976  0.74875  1.0000
  H   H1108     1.0  0.89579  0.60831  0.67630  1.0000
  C   C927      1.0  0.74479  0.74551  0.86486  1.0000
  C   C928      1.0  0.54751  0.68631  0.70680  1.0000
  C   C929      1.0  0.90874  0.55887  0.86928  1.0000
  C   C930      1.0  0.49608  0.69336  0.69362  1.0000
  C   C931      1.0  0.71978  0.71330  0.89457  1.0000
  H   H1109     1.0  0.65024  0.69224  0.84880  1.0000
  Fe  Fe127     1.0  0.52128  0.68527  0.87234  1.0000
  H   H1110     1.0  0.76683  0.81810  0.70867  1.0000
  S   S251      1.0  0.53813  0.69612  0.65352  1.0000
  C   C932      1.0  0.52613  0.69126  0.68669  1.0000
  C   C933      1.0  0.69272  0.00840  0.65566  1.0000
  H   H1111     1.0  0.73328  0.74426  0.82436  1.0000
  C   C934      1.0  0.69678  0.67027  0.82158  1.0000
  H   H1112     1.0  0.78070  0.87343  0.64398  1.0000
  C   C935      1.0  0.76544  0.83873  0.71992  1.0000
  C   C936      1.0  0.54269  0.69025  0.94158  1.0000
  C   C937      1.0  0.86841  0.85955  0.67121  1.0000
  H   H1113     1.0  0.67907  0.70883  0.78369  1.0000
  C   C938      1.0  0.64304  0.01272  0.67557  1.0000
  C   C939      1.0  0.51501  0.82528  0.66177  1.0000
  H   H1114     1.0  0.86210  0.00538  0.95657  1.0000
  H   H1115     1.0  0.52357  0.78414  0.88834  1.0000
  Fe  Fe128     1.0  0.56918  0.00727  0.70398  1.0000
  S   S252      1.0  0.50232  0.95749  0.77403  1.0000
  C   C940      1.0  0.95285  0.58107  0.88496  1.0000
  H   H1116     1.0  0.49674  0.60516  0.91238  1.0000
  H   H1117     1.0  0.96425  0.59291  0.90036  1.0000
  C   C941      1.0  0.54314  0.86780  0.85839  1.0000
  C   C942      1.0  0.82480  0.88779  0.68602  1.0000
  S   S253      1.0  0.69871  0.65589  0.95537  1.0000
  H   H1118     1.0  0.85631  0.68073  0.65623  1.0000
  H   H1119     1.0  0.93479  0.00363  0.92272  1.0000
  H   H1120     1.0  0.84811  0.80765  0.67231  1.0000
  H   H1121     1.0  0.52999  0.82451  0.70326  1.0000
  C   C943      1.0  0.51783  0.87553  0.90841  1.0000
  C   C944      1.0  0.52098  0.77779  0.63904  1.0000
  H   H1122     1.0  0.87203  0.98603  0.92681  1.0000
  C   C945      1.0  0.50578  0.96761  0.80780  1.0000
  S   S254      1.0  0.50760  0.71930  0.90373  1.0000
  C   C946      1.0  0.87410  0.66355  0.66173  1.0000
  H   H1123     1.0  0.51734  0.92274  0.89987  1.0000
  S   S255      1.0  0.51638  0.94239  0.96309  1.0000
  C   C947      1.0  0.79507  0.02394  0.96062  1.0000
  H   H1124     1.0  0.83921  0.90621  0.69145  1.0000
  N   N63       1.0  0.50469  0.79456  0.66028  1.0000
  C   C948      1.0  0.80790  0.79153  0.65825  1.0000
  H   H1125     1.0  0.91170  0.53601  0.83244  1.0000
  H   H1126     1.0  0.86921  0.84722  0.69031  1.0000
  C   C949      1.0  0.53680  0.86639  0.68581  1.0000
  H   H1127     1.0  0.89579  0.67272  0.65700  1.0000
  H   H1128     1.0  0.89264  0.59173  0.64412  1.0000
  C   C950      1.0  0.50266  0.72349  0.95769  1.0000
  N   N64       1.0  0.52034  0.82006  0.91704  1.0000
  C   C951      1.0  0.96818  0.57112  0.86227  1.0000
  H   H1129     1.0  0.82236  0.63855  0.65554  1.0000
  H   H1130     1.0  0.55842  0.79274  0.90381  1.0000
  H   H1131     1.0  0.53146  0.77278  0.92128  1.0000
  S   S256      1.0  0.49685  0.68427  0.77390  1.0000
  H   H1132     1.0  0.96619  0.54369  0.77603  1.0000
  H   H1133     1.0  0.85601  0.90635  0.64277  1.0000
  C   C952      1.0  0.52579  0.84598  0.89985  1.0000
  H   H1134     1.0  0.52074  0.84342  0.95465  1.0000
  H   H1135     1.0  0.53022  0.80475  0.95689  1.0000
  H   H1136     1.0  0.97368  0.54479  0.64238  1.0000
  H   H1137     1.0  0.50708  0.87978  0.92722  1.0000
  H   H1138     1.0  0.76311  0.01905  0.72113  1.0000
  H   H1139     1.0  0.87898  0.84502  0.65564  1.0000
  C   C953      1.0  0.83948  0.88906  0.64007  1.0000
  H   H1140     1.0  0.88417  0.62965  0.96455  1.0000
  H   H1141     1.0  0.51442  0.75430  0.63797  1.0000
  H   H1142     1.0  0.53316  0.77431  0.69055  1.0000
  C   C954      1.0  0.48889  0.95337  0.82693  1.0000
  H   H1143     1.0  0.91650  0.62193  0.64939  1.0000
  H   H1144     1.0  0.54386  0.82124  0.86536  1.0000
  H   H1145     1.0  0.93158  0.54411  0.79233  1.0000
  H   H1146     1.0  0.83786  0.60062  0.65102  1.0000
  C   C955      1.0  0.48793  0.81681  0.91904  1.0000
  H   H1147     1.0  0.81829  0.90197  0.63561  1.0000
  C   C956      1.0  0.77045  0.82771  0.64239  1.0000
  H   H1148     1.0  0.49657  0.78766  0.70193  1.0000
  H   H1149     1.0  0.88596  0.55340  0.87253  1.0000
  C   C957      1.0  0.88057  0.58203  0.96445  1.0000
  C   C958      1.0  0.89657  0.55425  0.96276  1.0000
  H   H1150     1.0  0.88476  0.53391  0.96323  1.0000
  C   C959      1.0  0.51258  0.84441  0.63934  1.0000
  H   H1151     1.0  0.48977  0.57486  0.93354  1.0000
  H   H1152     1.0  0.48805  0.65550  0.92497  1.0000
  C   C960      1.0  0.54987  0.68202  0.96774  1.0000
