data_image0
_chemical_formula_structural       FeS2FeH2CS2FeSFeS2FeSFeS3HCFeHCFeSFeS3H3CFeH2FeCHC8H4C6H4C6H4C2H3CHSNC8H11SH3NH3CHCH2CH2C2HCHNCH2C2H2CH2SHC3S2HCNHNH3SC5H2CHCH2C2HFeCHCH2CHC2NC8FeCH8S2H7CH2CSH3C3HCHCFeSC2H4CHCHCHC4H4CFeHSFeC2HS2FeSFeS2FeSFeS3HSC3FeSFeS4HSHCH2CH4C6H4C6H4C6H4CH3C3HNHCHFeC2H3CH3CHCSC4H4C2NHNH2C3H4C2HNHC2H2CH3C2H2SC2H6SH5C3HC2HCHNH2FeC7HSHCHNH3C2HCHSHSH4CHC3FeHFeCHC3H11FeCHC2SFeHCHC2H4CFeS2FeS2FeSFeS3HC2HCH2FeSFeS3C6H4C6H4C6H4C3H2C2SH3SC2HCHNSNC9H17CNH2SHC3HCHFeC2H2C2H4C2H3SCNCSH3SH2C7HFeSCHCHNH3C3HCHCH4SH9C3HCH2CHCH2FeHFeHC2H3C2HCHCH2CHSNSHC2HC3HCNH3CHCNH5C3H2CHC2SH2FeS2FeSCFeSFeS3HCHCHCSFeSFeS3C8H2C6H4C6H5CFeHSCHCHC3SHCH2CHCSHNCH2SH2CH2SHC2HCHC2HNC9H16C5HNCH2SC3H2NCHCNCH2CHC2HCNHCHSH2CHCH2CFeCH2SC2HSH2C2SHNHCFeH5CH6SC2H2C2HC2H2CHFeH2C2HCH2CH3CH3CH3CHFeH2CHC2H2SH2SC2SHFe2SCH2N3C2H2SH2FeCSFeS2FeSFeCS2FeCSFeCH4CHCHC2HCH2SNH2C2H4CHC6HCH4SC2FeCH3CH3C4HC2HCH2C2HCH2SH5C2H3C4SHCHCSHC2HFeC2H5CH4CH3C2H2C3HC2HNSH3C2SC2SHCSHCSCHFeSCH4SCH3SC2FeHSFeS2FeCFeHS2HCSCHC2H2CHCHC2HFeH2CHCH2NFeCH3SC2HFeHCHC8HCH3CSHCNCHSHC3HFeH2NHSC2HCFeC2H6C2HFeC2H2CH2C2H6C2HC2H2C4H2FeCH3C2SHSC2NCH2C4H3CH2CNHC2HCHFeSFeS2FeHS2FeCSFeHSH2CHS2HCH3CHCH2CH3C3H2CH8CH2CHCHCFeHC6H4C2H2SHSCH3CH2C2H2SHSHSCFeC2HCSCH4C3H2C3SC2HC4HCSCNC3HCH4FeHCH2CHCNC9H12CHSFeC2NC4HCH2CH2CH2C2HC2HCHCH2C2SH4NS2H5CHC3H2CHFeHCHSHSH3NH3C2H2FeSFeS2FeHS2FeHSFeHSCHSHS2HCH2CH2C2H2CHSHCHSCHCHC2HSHCSCH3CSFeH2C6H4C2H2CHSNC4H4CH9CH2C2H3CHCH2C3SFeHNC10H4CH4SFeH2CHNC4HSH2FeHC2HC2H2CHC2HFeH2CHC4SH3C2H2CH2NC9H2CH8C4H2C2H2CH6CHNCSC2H2CHCH2Fe2S2FeSHFeSFeS3FeHFeS2H2C2S2HC3NHFeSFeS4H3CSHC2H2CH2C3H6C4H3C6H4C6H4C6H5C2HC3HCH2SH5CH2CNHC8H2NH3C2H4CH3CNC3H3SH3CH2C2HFeNC8H2CH5CH4NHC2HCSHCHCHCSHCSFeCH4C2H8C4H2CNH2C2SC2H4C2FeCHFeCHFeCHCSH3CH2SC2FeS2FeSCFeSFeS3FeCFeHSH2CS3H3CFeHFeSFeS3H2SHNSHSH2CS2HCSH4FeCHC3H4C6H4C6H4C6H5C6H5CH6CHCH2C2HN2C8SH11CNH2C3NH3CH2C3HC2H2C2H2CHCH4CHCHC3H3FeC2HC6HFeSC4H4C2H3CH2CH5C3HCH4SHC2HSC2HC4HC4H4NCH2CHC2HCNHFeH2CH3FeH4CHFeHSFeS2HCSH4SHCHSH2FeCSCH2C2HCH2CHC5H2SH3CFeSH4CSCNFeCHCHC2HSC2H3C2HCHCHCH3SC2HCH2CH2C2HCHCH4C3SNCH2CHC4SCHSHCHC2H6CFeCSHS2H2CSC2H2C2H2CH2CH2C3HSH2SHC3S2H5CHFe2H2CH4CH5SCSHCH2CHSCH2NC3HC3SH2CHC4FeCH4C2NSCHSCHCH2C2HC2SH2CHCSHSH2FeH2FeS2HCH2S2FeS2C2HCSFeSCSFeSFeCSHCS2C2HNH3SFeHC2HC6H4C6H4C6H4C4HCHCH2C3H2CH4CH2CH2SHC2FeHCSHFe2H5C2FeNH2CH4C4FeHNH3CSH2FeHC2H3CHC3HSHSC5NH3C3HCNH2CS2H4C2HC2H2C4HCHCH4C2H2FeHCHCHCH3CH2CH4C2HSC2HNCSHSCHFeCHFeS2FeHFeHS2FeS2HC3SFeSCSFeSFeHSFeCS2H2CNH2CFeSH2CHC6H4C6H4C6H7CSCFeCH2C5H3C3HCSH3CHCH2CHC3SCSCHNHCNCHC6H2NH2CH5CHCH2CNC9H15C3SHCHCSHNHCH2C4H3CHFeC2HCH4C3SHCH4CHSH2C2H3CSH5FeHCHCH2CFeC2H2CHCH5C2HC2H3C2HSFeCSFeHSC4S2FeS2FeSHFe2S3HCSC3FeC2HCHCNCSCH5NHC2HCHC2H2C2HC2HC7H4C4H2C4HNHSH2C2HNCH2SC3H2CH3NC6H4C2H3FeHCH2C2HSH2SFeSHC2FeHC2SHC2H2SH4CSCH4CH4C2FeNC4FeHCHCH6CHCSC2H7CH2CNC2H2CHC2H5C2H2CSC2SH2C3HCHCH5CFeC2H2SCHCHCH3S2FeS2FeHSCFeH2S2FeS2FeSCFe2S3HCSC3H2CNFeH2CS2HNH3CHC3SC4H2FeH2CH3C6H4C3H3C4HCNC9H12CH2CSCHCFeSHFeCH2CSHC2HC2H2CH2FeC2H2C3HCHCH2CHC2H4CHCH2NH3SHCH3FeHC6H5C6HNC2H2SC2HCHCNSH3FeH4C3H5CHC5H2CSHCH3NCHCHC2H2CSFeSCFeSFeS2C3SFe2C2HSHSNH4C3HCHCH2CSC2HSCFeCH2C3H3CHCSH3CHCFeSH3CFeCH2CHC2HC2SCHCH3CH3CH2CHSHSHC2HS2CH2C4HFeH2CHC2HCHCH4CHC3SH2NH5CHCH2CHC2SNFeHC3HC2HCH3CFeHFeC2H2SCSHFeCFeSHSFeSCFeSH3CHSCHCHCHCHCHC2FeCH2C2FeHCH3CHC2SCHC2H2NCSFeCH3SCH2NHC4FeSCHC2H2CHC3SH2CFeCH4CH2S2CH4CH3SCH3C2HNH5SH2CHSC4HCHC7HNHFeNHFeS2FeS2CH3C2FeSFeS2FeSFeS3H3FeHC3H4CSC2H2CSHC7H4C6H4C5H3NC6NH9CHC3HC2H2CH3CH2CHCH2SCH2NC8H5CH2CH3CHS2H2SCHC2H2CH5S2H3CHCNHCHFeCHCH2NC2H2CH3CHCH2C2H4SHCH3SC2HCHFeH4SH5FeH2C6H2CH2CH2CNCFeS2FeS2H3C2SFeSFeS2FeSFeS3HNFeC5H6CH2SCH3C6H4C6H4C5H2CH3SH2CH2SH5S2H4C2H2C2HFeCH6CHCHCHCFeH4SCSH5C2HC3H2NC9H11NC4HCS2CHCH2C3H4FeH2CH3C2H2CHC2H2CHNHCH2CH3C3FeHSFeS2FeS2H2SHSHFeS2FeSHFeS2FeS2Fe2S3C7H5C2NHC6H4C6H10SCHCH2C5H3C3H3C5H2CH6NCH2CH3C6H5SH2CH2SCHCH4CNC5HCHCH9C2H2CH3CHNHCHCHFeH3CHFeHCHC2H3C2SHCHCN2SHC3H3SHC2H3CHC2FeS2FeS2C3HCFeCS2FeSCFeS2FeS2Fe2S3HC6H4S2H3C6H4C6H5SH4SCNHNHC2HCH4NC5HCH5CHCH2C3H2CNC5H9CHCH2CH3C2H2SCHCNHC2SH3CHCH2C2HCH4C3H2CH3C2NH3C2HCHC2H2CH3CSH2C2HFeH3FeH2CHC3HCH2C5SH2SHC3H2CHCH2CSC2HCHCH3CH3FeHS2HC3SCS2HFeSFeSCH2CHNH2NCH2C2HC2H2C2H2FeSCH3C2H3C2SCHC2H5C3H2CH3SH2CH4CSH2CHSHCH2C3HSHCNH3CNC4HCHCHC2HCH3SCHCHCHC2HCSH3C4HFeHS3H2CSCHSHFeSFeSCHNHCH2CHSHCSH3C2H2CH2SH2C4HFeHCHC2HSC3HCH3CHC2HFeHC3HCHCHCSH2C2HCSHCH2FeH3CH5C3SHCHC2H3SC2HC2H2NH3CHCHNCH4CHC2H4C2HS
_chemical_formula_sum              "Fe256 S512 H2304 C1920 N128"
_cell_length_a       60.8644
_cell_length_b       61.4032
_cell_length_c       49.8012
_cell_angle_alpha    90.8242
_cell_angle_beta     90.9009
_cell_angle_gamma    84.6173

_space_group_name_H-M_alt    "P 1"
_space_group_IT_number       1

loop_
  _space_group_symop_operation_xyz
  'x, y, z'

loop_
  _atom_site_type_symbol
  _atom_site_label
  _atom_site_symmetry_multiplicity
  _atom_site_fract_x
  _atom_site_fract_y
  _atom_site_fract_z
  _atom_site_occupancy
  Fe  Fe1       1.0  0.20396  0.21787  0.33793  1.0000
  S   S1        1.0  0.23641  0.19711  0.34027  1.0000
  S   S2        1.0  0.17133  0.20264  0.33418  1.0000
  Fe  Fe2       1.0  0.22628  0.26069  0.34226  1.0000
  H   H1        1.0  0.07209  0.07596  0.10652  1.0000
  H   H2        1.0  0.14185  0.02651  0.41157  1.0000
  C   C1        1.0  0.02115  0.07666  0.46666  1.0000
  S   S3        1.0  0.21483  0.24095  0.30728  1.0000
  S   S4        1.0  0.21200  0.23971  0.37305  1.0000
  Fe  Fe3       1.0  0.07648  0.10634  0.22604  1.0000
  S   S5        1.0  0.08881  0.07094  0.22679  1.0000
  Fe  Fe4       1.0  0.12360  0.12075  0.23012  1.0000
  S   S6        1.0  0.13861  0.08581  0.23072  1.0000
  S   S7        1.0  0.14959  0.14528  0.23111  1.0000
  Fe  Fe5       1.0  0.11419  0.07983  0.19775  1.0000
  S   S8        1.0  0.12122  0.05577  0.16330  1.0000
  Fe  Fe6       1.0  0.11166  0.08073  0.25940  1.0000
  S   S9        1.0  0.11712  0.05861  0.29506  1.0000
  S   S10       1.0  0.10070  0.11504  0.19490  1.0000
  S   S11       1.0  0.09790  0.11584  0.26093  1.0000
  H   H3        1.0  0.22212  0.16656  0.22276  1.0000
  C   C2        1.0  0.16462  0.02166  0.29244  1.0000
  Fe  Fe7       1.0  0.24532  0.22067  0.37295  1.0000
  H   H4        1.0  0.21958  0.26434  0.43645  1.0000
  C   C3        1.0  0.02320  0.08391  0.13816  1.0000
  Fe  Fe8       1.0  0.11479  0.06792  0.00624  1.0000
  S   S12       1.0  0.12312  0.08824  0.04273  1.0000
  Fe  Fe9       1.0  0.10319  0.07493  0.44580  1.0000
  S   S13       1.0  0.10297  0.09900  0.41188  1.0000
  S   S14       1.0  0.10557  0.03351  0.00680  1.0000
  S   S15       1.0  0.09265  0.04100  0.44076  1.0000
  H   H5        1.0  0.17108  0.05887  0.08266  1.0000
  H   H6        1.0  0.04417  0.06877  0.21502  1.0000
  H   H7        1.0  0.24949  0.27710  0.29657  1.0000
  C   C4        1.0  0.25715  0.21544  0.44252  1.0000
  Fe  Fe10      1.0  0.12224  0.03133  0.46693  1.0000
  H   H8        1.0  0.22116  0.33490  0.09198  1.0000
  H   H9        1.0  0.04557  0.11894  0.28446  1.0000
  Fe  Fe11      1.0  0.07723  0.04589  0.97979  1.0000
  C   C5        1.0  0.23327  0.16750  0.20627  1.0000
  H   H10       1.0  0.06918  0.06260  0.03167  1.0000
  C   C6        1.0  0.25802  0.27727  0.27696  1.0000
  C   C7        1.0  0.04060  0.08432  0.08555  1.0000
  C   C8        1.0  0.11217  0.06999  0.32727  1.0000
  C   C9        1.0  0.11388  0.05624  0.34957  1.0000
  C   C10       1.0  0.11098  0.06499  0.37560  1.0000
  C   C11       1.0  0.10619  0.08752  0.37946  1.0000
  C   C12       1.0  0.10432  0.10126  0.35716  1.0000
  C   C13       1.0  0.10737  0.09253  0.33114  1.0000
  H   H11       1.0  0.11772  0.03879  0.34678  1.0000
  H   H12       1.0  0.11271  0.05430  0.39264  1.0000
  H   H13       1.0  0.10076  0.11871  0.36003  1.0000
  H   H14       1.0  0.10668  0.10333  0.31424  1.0000
  C   C14       1.0  0.12106  0.06508  0.12987  1.0000
  C   C15       1.0  0.12238  0.08714  0.12417  1.0000
  C   C16       1.0  0.12318  0.09391  0.09737  1.0000
  C   C17       1.0  0.12220  0.07881  0.07604  1.0000
  C   C18       1.0  0.12044  0.05681  0.08171  1.0000
  C   C19       1.0  0.12011  0.04995  0.10854  1.0000
  H   H15       1.0  0.12324  0.09892  0.14042  1.0000
  H   H16       1.0  0.12452  0.11097  0.09315  1.0000
  H   H17       1.0  0.11977  0.04499  0.06548  1.0000
  H   H18       1.0  0.11917  0.03283  0.11281  1.0000
  C   C20       1.0  0.16512  0.18783  0.30463  1.0000
  C   C21       1.0  0.18136  0.18146  0.28580  1.0000
  C   C22       1.0  0.17635  0.16835  0.26350  1.0000
  C   C23       1.0  0.15520  0.16124  0.25993  1.0000
  C   C24       1.0  0.13895  0.16759  0.27876  1.0000
  C   C25       1.0  0.14382  0.18109  0.30078  1.0000
  H   H19       1.0  0.19784  0.18647  0.28854  1.0000
  H   H20       1.0  0.18905  0.16342  0.24922  1.0000
  H   H21       1.0  0.12251  0.16250  0.27603  1.0000
  H   H22       1.0  0.13100  0.18629  0.31490  1.0000
  C   C26       1.0  0.23564  0.22218  0.24062  1.0000
  C   C27       1.0  0.22679  0.22711  0.21500  1.0000
  H   H23       1.0  0.22476  0.22163  0.25739  1.0000
  H   H24       1.0  0.20920  0.23109  0.21255  1.0000
  H   H25       1.0  0.20190  0.01248  0.42019  1.0000
  C   C28       1.0  0.25587  0.16597  0.21238  1.0000
  H   H26       1.0  0.04662  0.05916  0.28450  1.0000
  S   S16       1.0  0.22867  0.23242  0.16066  1.0000
  N   N1        1.0  0.15978  0.14076  0.37881  1.0000
  C   C29       1.0  0.14090  0.15699  0.37230  1.0000
  C   C30       1.0  0.15600  0.13228  0.40599  1.0000
  C   C31       1.0  0.18023  0.15217  0.38018  1.0000
  C   C32       1.0  0.16180  0.12351  0.35762  1.0000
  C   C33       1.0  0.16518  0.12912  0.33055  1.0000
  C   C34       1.0  0.16018  0.10100  0.36288  1.0000
  C   C35       1.0  0.16605  0.11344  0.30988  1.0000
  C   C36       1.0  0.15312  0.01208  0.40817  1.0000
  H   H27       1.0  0.15897  0.01972  0.36687  1.0000
  H   H28       1.0  0.12537  0.14892  0.36953  1.0000
  H   H29       1.0  0.13816  0.16972  0.38836  1.0000
  H   H30       1.0  0.14359  0.16602  0.35368  1.0000
  H   H31       1.0  0.14029  0.12431  0.40660  1.0000
  H   H32       1.0  0.15452  0.14562  0.42144  1.0000
  H   H33       1.0  0.16982  0.12033  0.41261  1.0000
  H   H34       1.0  0.18315  0.16080  0.36125  1.0000
  H   H35       1.0  0.17946  0.16503  0.39624  1.0000
  H   H36       1.0  0.19498  0.14047  0.38410  1.0000
  H   H37       1.0  0.16682  0.14581  0.32508  1.0000
  S   S17       1.0  0.24478  0.25564  0.09120  1.0000
  H   H38       1.0  0.16783  0.11837  0.28922  1.0000
  H   H39       1.0  0.15707  0.09511  0.38266  1.0000
  H   H40       1.0  0.23245  0.26535  0.97633  1.0000
  N   N2        1.0  0.03861  0.08992  0.30572  1.0000
  H   H41       1.0  0.01660  0.08393  0.15828  1.0000
  H   H42       1.0  0.21433  0.28619  0.27593  1.0000
  H   H43       1.0  0.21694  0.04246  0.40257  1.0000
  C   C37       1.0  0.03947  0.08022  0.33284  1.0000
  H   H44       1.0  0.05754  0.11828  0.06239  1.0000
  C   C38       1.0  0.14234  0.01455  0.25382  1.0000
  H   H45       1.0  0.23339  0.31647  0.28616  1.0000
  H   H46       1.0  0.03662  0.12388  0.31820  1.0000
  C   C39       1.0  0.04136  0.06040  0.38418  1.0000
  H   H47       1.0  0.23692  0.17472  0.13849  1.0000
  H   H48       1.0  0.05288  0.08276  0.26686  1.0000
  C   C40       1.0  0.01555  0.09187  0.29518  1.0000
  C   C41       1.0  0.04907  0.08083  0.38100  1.0000
  H   H49       1.0  0.07389  0.10245  0.03789  1.0000
  C   C42       1.0  0.24250  0.31460  0.34103  1.0000
  H   H50       1.0  0.16757  0.03799  0.28458  1.0000
  N   N3        1.0  0.05026  0.08472  0.05847  1.0000
  C   C43       1.0  0.25841  0.21759  0.24429  1.0000
  H   H51       1.0  0.24221  0.33483  0.41822  1.0000
  H   H52       1.0  0.19504  0.20602  0.18209  1.0000
  C   C44       1.0  0.02688  0.07425  0.21610  1.0000
  C   C45       1.0  0.04660  0.11205  0.30511  1.0000
  H   H53       1.0  0.04248  0.05273  0.40374  1.0000
  H   H54       1.0  0.15973  0.06836  0.34642  1.0000
  C   C46       1.0  0.23483  0.27144  0.44140  1.0000
  H   H55       1.0  0.23602  0.32607  0.25262  1.0000
  H   H56       1.0  0.26154  0.16431  0.23306  1.0000
  S   S18       1.0  0.04277  0.03736  0.98894  1.0000
  H   H57       1.0  0.20309  0.16112  0.13203  1.0000
  C   C47       1.0  0.24705  0.28195  0.20740  1.0000
  C   C48       1.0  0.22250  0.28470  0.25598  1.0000
  C   C49       1.0  0.04577  0.07929  0.13425  1.0000
  S   S19       1.0  0.22065  0.29772  0.34297  1.0000
  S   S20       1.0  0.03944  0.11602  0.22561  1.0000
  H   H58       1.0  0.22274  0.21591  0.43175  1.0000
  C   C50       1.0  0.23462  0.21659  0.44805  1.0000
  N   N4        1.0  0.24526  0.29160  0.25740  1.0000
  H   H59       1.0  0.05124  0.04973  0.05324  1.0000
  N   N5        1.0  0.23639  0.01752  0.42507  1.0000
  H   H60       1.0  0.07653  0.05910  0.06604  1.0000
  H   H61       1.0  0.07966  0.09883  0.07266  1.0000
  H   H62       1.0  0.06429  0.11163  0.31131  1.0000
  S   S21       1.0  0.08541  0.08065  0.98143  1.0000
  C   C51       1.0  0.16164  0.08533  0.34212  1.0000
  C   C52       1.0  0.24055  0.22682  0.19267  1.0000
  C   C53       1.0  0.06230  0.06314  0.05224  1.0000
  C   C54       1.0  0.17102  0.01872  0.03494  1.0000
  C   C55       1.0  0.16760  0.03947  0.04686  1.0000
  H   H63       1.0  0.24527  0.04694  0.40597  1.0000
  H   H64       1.0  0.22251  0.26721  0.24979  1.0000
  C   C56       1.0  0.23747  0.33731  0.33921  1.0000
  H   H65       1.0  0.03756  0.08177  0.46504  1.0000
  C   C57       1.0  0.23139  0.04059  0.41668  1.0000
  H   H66       1.0  0.19226  0.18904  0.21063  1.0000
  H   H67       1.0  0.23100  0.27576  0.20695  1.0000
  C   C58       1.0  0.25835  0.28086  0.18309  1.0000
  C   C59       1.0  0.03269  0.04970  0.36213  1.0000
  H   H68       1.0  0.16918  0.01266  0.21511  1.0000
  Fe  Fe12      1.0  0.25191  0.23271  0.12569  1.0000
  C   C60       1.0  0.24132  0.17196  0.15930  1.0000
  H   H69       1.0  0.18937  0.02812  0.10870  1.0000
  C   C61       1.0  0.04822  0.09068  0.35578  1.0000
  H   H70       1.0  0.24755  0.26673  0.02139  1.0000
  H   H71       1.0  0.22749  0.05148  0.43440  1.0000
  C   C62       1.0  0.03374  0.08950  0.03653  1.0000
  H   H72       1.0  0.21183  0.29493  0.24178  1.0000
  C   C63       1.0  0.05440  0.07947  0.10840  1.0000
  C   C64       1.0  0.02013  0.09644  0.22015  1.0000
  N   N6        1.0  0.20121  0.17166  0.17355  1.0000
  C   C65       1.0  0.18951  0.19018  0.18859  1.0000
  C   C66       1.0  0.19559  0.17488  0.14464  1.0000
  C   C67       1.0  0.19244  0.15105  0.18184  1.0000
  C   C68       1.0  0.22524  0.17051  0.17952  1.0000
  C   C69       1.0  0.25308  0.31642  0.09158  1.0000
  C   C70       1.0  0.03169  0.05942  0.33683  1.0000
  C   C71       1.0  0.06594  0.10179  0.05784  1.0000
  C   C72       1.0  0.25662  0.29026  0.23123  1.0000
  Fe  Fe13      1.0  0.24771  0.22145  0.31149  1.0000
  C   C73       1.0  0.23289  0.21533  0.97228  1.0000
  H   H73       1.0  0.02195  0.07674  0.03485  1.0000
  H   H74       1.0  0.17131  0.19097  0.18528  1.0000
  H   H75       1.0  0.20120  0.19052  0.13733  1.0000
  H   H76       1.0  0.17743  0.17584  0.14087  1.0000
  H   H77       1.0  0.05496  0.10629  0.35481  1.0000
  H   H78       1.0  0.17447  0.15102  0.17709  1.0000
  H   H79       1.0  0.20123  0.13660  0.17164  1.0000
  H   H80       1.0  0.19403  0.14845  0.20384  1.0000
  S   S22       1.0  0.23527  0.22118  0.02678  1.0000
  S   S23       1.0  0.13410  0.06475  0.46934  1.0000
  H   H81       1.0  0.16425  0.07956  0.29951  1.0000
  H   H82       1.0  0.02449  0.10589  0.03913  1.0000
  H   H83       1.0  0.02520  0.05035  0.32021  1.0000
  H   H84       1.0  0.17858  0.01635  0.30612  1.0000
  H   H85       1.0  0.16517  0.01693  0.01449  1.0000
  H   H86       1.0  0.20983  0.01935  0.45360  1.0000
  H   H87       1.0  0.06992  0.07321  0.29485  1.0000
  C   C74       1.0  0.16419  0.09159  0.31565  1.0000
  H   H88       1.0  0.21530  0.21547  0.97521  1.0000
  H   H89       1.0  0.24641  0.30098  0.09432  1.0000
  C   C75       1.0  0.24693  0.21777  0.99454  1.0000
  S   S24       1.0  0.25884  0.20344  0.09863  1.0000
  H   H90       1.0  0.02714  0.03358  0.36462  1.0000
  H   H91       1.0  0.05672  0.07572  0.15139  1.0000
  H   H92       1.0  0.14976  0.02386  0.30531  1.0000
  C   C76       1.0  0.05257  0.07562  0.28726  1.0000
  C   C77       1.0  0.02010  0.05502  0.97767  1.0000
  C   C78       1.0  0.17422  0.04282  0.07336  1.0000
  H   H93       1.0  0.05628  0.08889  0.39811  1.0000
  C   C79       1.0  0.25525  0.27508  0.00545  1.0000
  H   H94       1.0  0.04180  0.08970  0.01661  1.0000
  C   C80       1.0  0.24832  0.27712  0.42080  1.0000
  Fe  Fe14      1.0  0.25551  0.22700  0.06435  1.0000
  S   S25       1.0  0.25998  0.24293  0.34414  1.0000
  C   C81       1.0  0.23878  0.33571  0.09033  1.0000
  C   C82       1.0  0.18446  0.02544  0.08799  1.0000
  H   H95       1.0  0.01662  0.04181  0.21023  1.0000
  H   H96       1.0  0.15941  0.05300  0.03562  1.0000
  H   H97       1.0  0.25086  0.27406  0.16528  1.0000
  H   H98       1.0  0.24347  0.27460  0.40000  1.0000
  C   C83       1.0  0.25472  0.01587  0.44512  1.0000
  H   H99       1.0  0.01409  0.10075  0.27578  1.0000
  C   C84       1.0  0.24666  0.27448  0.97924  1.0000
  H   H100      1.0  0.12715  0.01718  0.26613  1.0000
  C   C85       1.0  0.26332  0.22205  0.19628  1.0000
  H   H101      1.0  0.14481  0.03081  0.24526  1.0000
  C   C86       1.0  0.21557  0.01008  0.43526  1.0000
  C   C87       1.0  0.24367  0.31448  0.26782  1.0000
  C   C88       1.0  0.01762  0.08898  0.09024  1.0000
  C   C89       1.0  0.24119  0.27409  0.46829  1.0000
  H   H102      1.0  0.26001  0.31990  0.27376  1.0000
  H   H103      1.0  0.25709  0.00987  0.39057  1.0000
  H   H104      1.0  0.26034  0.26007  0.26934  1.0000
  H   H105      1.0  0.26000  0.34073  0.39190  1.0000
  C   C90       1.0  0.26390  0.17031  0.16563  1.0000
  Fe  Fe15      1.0  0.21214  0.20858  0.83945  1.0000
  H   H106      1.0  0.22059  0.27498  0.90565  1.0000
  S   S26       1.0  0.18124  0.19033  0.83807  1.0000
  Fe  Fe16      1.0  0.23175  0.25299  0.84323  1.0000
  C   C91       1.0  0.19195  0.18961  0.68689  1.0000
  C   C92       1.0  0.23213  0.22259  0.71641  1.0000
  H   H107      1.0  0.14422  0.15017  0.91083  1.0000
  S   S27       1.0  0.22074  0.23261  0.80853  1.0000
  S   S28       1.0  0.21950  0.23096  0.87426  1.0000
  Fe  Fe17      1.0  0.08014  0.10158  0.72857  1.0000
  S   S29       1.0  0.09274  0.06631  0.72819  1.0000
  Fe  Fe18      1.0  0.12718  0.11621  0.73021  1.0000
  S   S30       1.0  0.14250  0.08134  0.72888  1.0000
  S   S31       1.0  0.15163  0.14222  0.73071  1.0000
  Fe  Fe19      1.0  0.11653  0.07579  0.69752  1.0000
  S   S32       1.0  0.11873  0.05280  0.66137  1.0000
  Fe  Fe20      1.0  0.11697  0.07583  0.75942  1.0000
  S   S33       1.0  0.12418  0.05376  0.79489  1.0000
  S   S34       1.0  0.10288  0.11097  0.69628  1.0000
  S   S35       1.0  0.10274  0.11078  0.76231  1.0000
  H   H108      1.0  0.18142  0.13518  0.85513  1.0000
  S   S36       1.0  0.04077  0.03802  0.48706  1.0000
  C   C93       1.0  0.16970  0.06380  0.90311  1.0000
  C   C94       1.0  0.15403  0.01495  0.73673  1.0000
  C   C95       1.0  0.02294  0.07573  0.96773  1.0000
  Fe  Fe21      1.0  0.11295  0.06949  0.50597  1.0000
  S   S37       1.0  0.12509  0.08735  0.54255  1.0000
  Fe  Fe22      1.0  0.10618  0.07142  0.94547  1.0000
  S   S38       1.0  0.10637  0.09469  0.91092  1.0000
  S   S39       1.0  0.10345  0.03517  0.50550  1.0000
  S   S40       1.0  0.09564  0.03743  0.94164  1.0000
  S   S41       1.0  0.22441  0.28983  0.84623  1.0000
  H   H109      1.0  0.23049  0.21015  0.92939  1.0000
  S   S42       1.0  0.04316  0.11087  0.72787  1.0000
  H   H110      1.0  0.26060  0.31553  0.77790  1.0000
  C   C96       1.0  0.17107  0.06950  0.85542  1.0000
  H   H111      1.0  0.16359  0.02668  0.50865  1.0000
  H   H112      1.0  0.22031  0.33266  0.60622  1.0000
  C   C97       1.0  0.05245  0.06809  0.79591  1.0000
  H   H113      1.0  0.01642  0.09271  0.63490  1.0000
  H   H114      1.0  0.02099  0.07967  0.66666  1.0000
  H   H115      1.0  0.02824  0.04525  0.60206  1.0000
  H   H116      1.0  0.04822  0.06313  0.72203  1.0000
  C   C98       1.0  0.11950  0.06529  0.82710  1.0000
  C   C99       1.0  0.11974  0.05156  0.84937  1.0000
  C   C100      1.0  0.11597  0.06043  0.87525  1.0000
  C   C101      1.0  0.11174  0.08305  0.87893  1.0000
  C   C102      1.0  0.11153  0.09675  0.85664  1.0000
  C   C103      1.0  0.11562  0.08792  0.83086  1.0000
  H   H117      1.0  0.12285  0.03403  0.84667  1.0000
  H   H118      1.0  0.11641  0.04974  0.89231  1.0000
  H   H119      1.0  0.10814  0.11425  0.85925  1.0000
  H   H120      1.0  0.11596  0.09868  0.81404  1.0000
  C   C104      1.0  0.11909  0.06321  0.62859  1.0000
  C   C105      1.0  0.12539  0.08410  0.62385  1.0000
  C   C106      1.0  0.12695  0.09136  0.59735  1.0000
  C   C107      1.0  0.12183  0.07798  0.57547  1.0000
  C   C108      1.0  0.11474  0.05739  0.58026  1.0000
  C   C109      1.0  0.11359  0.04995  0.60675  1.0000
  H   H121      1.0  0.12967  0.09443  0.64055  1.0000
  H   H122      1.0  0.13234  0.10735  0.59377  1.0000
  H   H123      1.0  0.11047  0.04707  0.56360  1.0000
  H   H124      1.0  0.10856  0.03382  0.61031  1.0000
  C   C110      1.0  0.17322  0.17692  0.80817  1.0000
  C   C111      1.0  0.18616  0.17619  0.78518  1.0000
  C   C112      1.0  0.17938  0.16534  0.76180  1.0000
  C   C113      1.0  0.15982  0.15486  0.76113  1.0000
  C   C114      1.0  0.14699  0.15537  0.78425  1.0000
  C   C115      1.0  0.15354  0.16658  0.80752  1.0000
  H   H125      1.0  0.20133  0.18407  0.78537  1.0000
  H   H126      1.0  0.18942  0.16497  0.74424  1.0000
  H   H127      1.0  0.13171  0.14768  0.78396  1.0000
  H   H128      1.0  0.14310  0.16756  0.82494  1.0000
  C   C116      1.0  0.24146  0.21242  0.94628  1.0000
  H   H129      1.0  0.18036  0.17552  0.63876  1.0000
  H   H130      1.0  0.23107  0.21499  0.75832  1.0000
  H   H131      1.0  0.21443  0.22586  0.71451  1.0000
  C   C117      1.0  0.19363  0.15051  0.68002  1.0000
  C   C118      1.0  0.22698  0.27428  0.92678  1.0000
  C   C119      1.0  0.14802  0.01259  0.70974  1.0000
  H   H132      1.0  0.07279  0.04635  0.64427  1.0000
  N   N7        1.0  0.04002  0.08566  0.81183  1.0000
  H   H133      1.0  0.25515  0.31956  0.50544  1.0000
  C   C120      1.0  0.05494  0.06567  0.88240  1.0000
  H   H134      1.0  0.02094  0.09692  0.77694  1.0000
  Fe  Fe23      1.0  0.25469  0.21498  0.81173  1.0000
  C   C121      1.0  0.17270  0.01768  0.61590  1.0000
  C   C122      1.0  0.24525  0.30795  0.84400  1.0000
  H   H135      1.0  0.16881  0.10208  0.84192  1.0000
  H   H136      1.0  0.21372  0.28248  0.93953  1.0000
  H   H137      1.0  0.22935  0.25661  0.93187  1.0000
  C   C123      1.0  0.04060  0.05511  0.56486  1.0000
  H   H138      1.0  0.17375  0.19083  0.68338  1.0000
  H   H139      1.0  0.19475  0.14770  0.70199  1.0000
  H   H140      1.0  0.15531  0.03766  0.54039  1.0000
  C   C124      1.0  0.06314  0.08517  0.59461  1.0000
  H   H141      1.0  0.04427  0.05263  0.79639  1.0000
  C   C125      1.0  0.05661  0.07208  0.85575  1.0000
  S   S43       1.0  0.08303  0.08311  0.48266  1.0000
  C   C126      1.0  0.03762  0.07840  0.83982  1.0000
  C   C127      1.0  0.24961  0.27917  0.70930  1.0000
  C   C128      1.0  0.16819  0.02641  0.53041  1.0000
  C   C129      1.0  0.16931  0.09216  0.85968  1.0000
  H   H142      1.0  0.20122  0.12470  0.89828  1.0000
  H   H143      1.0  0.14376  0.02650  0.74880  1.0000
  H   H144      1.0  0.20454  0.18967  0.63612  1.0000
  H   H145      1.0  0.19459  0.18861  0.70894  1.0000
  C   C130      1.0  0.03433  0.06521  0.89397  1.0000
  C   C131      1.0  0.14570  0.13231  0.90617  1.0000
  N   N8        1.0  0.20334  0.17075  0.67217  1.0000
  H   H146      1.0  0.25200  0.27119  0.79786  1.0000
  N   N9        1.0  0.04715  0.07243  0.63814  1.0000
  H   H147      1.0  0.05461  0.05139  0.67211  1.0000
  H   H148      1.0  0.23425  0.31048  0.78973  1.0000
  C   C132      1.0  0.04969  0.07147  0.60858  1.0000
  C   C133      1.0  0.06495  0.08388  0.56663  1.0000
  C   C134      1.0  0.25858  0.28733  0.73359  1.0000
  H   H149      1.0  0.05400  0.10607  0.64438  1.0000
  H   H150      1.0  0.18551  0.14859  0.91151  1.0000
  H   H151      1.0  0.23662  0.28801  0.52203  1.0000
  H   H152      1.0  0.14460  0.12377  0.92556  1.0000
  C   C135      1.0  0.03849  0.05637  0.59280  1.0000
  C   C136      1.0  0.05528  0.05101  0.64977  1.0000
  H   H153      1.0  0.21004  0.21845  0.47899  1.0000
  N   N10       1.0  0.24788  0.28485  0.92985  1.0000
  H   H154      1.0  0.17568  0.15115  0.67488  1.0000
  C   C137      1.0  0.19845  0.17416  0.64312  1.0000
  C   C138      1.0  0.01858  0.09134  0.79776  1.0000
  H   H155      1.0  0.20596  0.16030  0.63068  1.0000
  H   H156      1.0  0.16450  0.15646  0.87139  1.0000
  C   C139      1.0  0.23465  0.16511  0.70581  1.0000
  H   H157      1.0  0.17147  0.06287  0.83513  1.0000
  H   H158      1.0  0.17228  0.03782  0.87364  1.0000
  H   H159      1.0  0.05554  0.06772  0.53020  1.0000
  C   C140      1.0  0.05953  0.08936  0.65164  1.0000
  C   C141      1.0  0.22727  0.16883  0.67892  1.0000
  H   H160      1.0  0.20207  0.13583  0.66991  1.0000
  H   H161      1.0  0.22310  0.16407  0.72185  1.0000
  S   S44       1.0  0.26162  0.20219  0.59959  1.0000
  C   C142      1.0  0.25709  0.16312  0.71271  1.0000
  C   C143      1.0  0.25184  0.31518  0.59739  1.0000
  H   H162      1.0  0.15162  0.13562  0.85345  1.0000
  H   H163      1.0  0.15197  0.02861  0.58321  1.0000
  H   H164      1.0  0.07765  0.08605  0.64868  1.0000
  H   H165      1.0  0.13350  0.02206  0.70178  1.0000
  H   H166      1.0  0.06953  0.10196  0.81979  1.0000
  H   H167      1.0  0.07278  0.09676  0.60478  1.0000
  S   S45       1.0  0.24570  0.18983  0.84090  1.0000
  H   H168      1.0  0.03232  0.04321  0.55310  1.0000
  H   H169      1.0  0.03312  0.06016  0.91463  1.0000
  H   H170      1.0  0.25403  0.27258  0.66700  1.0000
  H   H171      1.0  0.06973  0.06439  0.80336  1.0000
  H   H172      1.0  0.23655  0.32154  0.75686  1.0000
  C   C144      1.0  0.05240  0.10536  0.81184  1.0000
  C   C145      1.0  0.16596  0.13856  0.86673  1.0000
  C   C146      1.0  0.02347  0.07738  0.64469  1.0000
  H   H173      1.0  0.06975  0.06119  0.89423  1.0000
  C   C147      1.0  0.18544  0.13061  0.90815  1.0000
  C   C148      1.0  0.05376  0.06889  0.55183  1.0000
  H   H174      1.0  0.24702  0.29967  0.60395  1.0000
  C   C149      1.0  0.18310  0.02895  0.78156  1.0000
  H   H175      1.0  0.25886  0.31590  0.91787  1.0000
  N   N11       1.0  0.24718  0.28717  0.75966  1.0000
  H   H176      1.0  0.23397  0.27218  0.70837  1.0000
  H   H177      1.0  0.02106  0.03626  0.71356  1.0000
  Fe  Fe24      1.0  0.25370  0.21399  0.87328  1.0000
  C   C150      1.0  0.24275  0.21853  0.49620  1.0000
  C   C151      1.0  0.01677  0.07775  0.85224  1.0000
  C   C152      1.0  0.24353  0.30765  0.92015  1.0000
  C   C153      1.0  0.16793  0.08644  0.90763  1.0000
  C   C154      1.0  0.01529  0.07127  0.87896  1.0000
  C   C155      1.0  0.16770  0.10136  0.88606  1.0000
  C   C156      1.0  0.24543  0.22393  0.69389  1.0000
  H   H178      1.0  0.16933  0.05270  0.91984  1.0000
  S   S46       1.0  0.23275  0.23047  0.66257  1.0000
  H   H179      1.0  0.07296  0.07217  0.84774  1.0000
  C   C157      1.0  0.24159  0.21689  0.74149  1.0000
  H   H180      1.0  0.19615  0.03390  0.76815  1.0000
  N   N12       1.0  0.16622  0.12527  0.89145  1.0000
  H   H181      1.0  0.25917  0.28139  0.54460  1.0000
  H   H182      1.0  0.18551  0.12311  0.92834  1.0000
  H   H183      1.0  0.22219  0.33666  0.84796  1.0000
  C   C158      1.0  0.02413  0.09109  0.72220  1.0000
  C   C159      1.0  0.22748  0.21799  0.47482  1.0000
  H   H184      1.0  0.07559  0.09424  0.55639  1.0000
  C   C160      1.0  0.23674  0.33391  0.59874  1.0000
  H   H185      1.0  0.23995  0.17381  0.63860  1.0000
  S   S47       1.0  0.23315  0.21921  0.52952  1.0000
  H   H186      1.0  0.16638  0.09214  0.92820  1.0000
  S   S48       1.0  0.24488  0.25400  0.59236  1.0000
  H   H187      1.0  0.16364  0.02848  0.63020  1.0000
  H   H188      1.0  0.25127  0.26096  0.52158  1.0000
  H   H189      1.0  0.05709  0.08979  0.67380  1.0000
  H   H190      1.0  0.19793  0.20525  0.68038  1.0000
  C   C161      1.0  0.17135  0.05536  0.87706  1.0000
  H   H191      1.0  0.13087  0.12889  0.89409  1.0000
  C   C162      1.0  0.24385  0.17046  0.65940  1.0000
  C   C163      1.0  0.03102  0.06876  0.72007  1.0000
  C   C164      1.0  0.24460  0.30962  0.77143  1.0000
  Fe  Fe25      1.0  0.25475  0.23153  0.62660  1.0000
  H   H192      1.0  0.13680  0.01451  0.91004  1.0000
  Fe  Fe26      1.0  0.12497  0.02869  0.96863  1.0000
  C   C165      1.0  0.16614  0.01770  0.58886  1.0000
  H   H193      1.0  0.18418  0.03367  0.53286  1.0000
  C   C166      1.0  0.25655  0.28498  0.95784  1.0000
  C   C167      1.0  0.23930  0.33060  0.84519  1.0000
  C   C168      1.0  0.25319  0.27875  0.52365  1.0000
  H   H194      1.0  0.21660  0.27976  0.77750  1.0000
  H   H195      1.0  0.22561  0.26199  0.75053  1.0000
  H   H196      1.0  0.14474  0.01025  0.78915  1.0000
  H   H197      1.0  0.18840  0.03174  0.80274  1.0000
  H   H198      1.0  0.23535  0.30821  0.89996  1.0000
  H   H199      1.0  0.03932  0.08078  0.96549  1.0000
  H   H200      1.0  0.23019  0.26869  0.48313  1.0000
  H   H201      1.0  0.25817  0.27185  0.89109  1.0000
  H   H202      1.0  0.04544  0.03759  0.64290  1.0000
  H   H203      1.0  0.21383  0.28963  0.74383  1.0000
  H   H204      1.0  0.23249  0.31773  0.93405  1.0000
  Fe  Fe27      1.0  0.25526  0.22546  0.56529  1.0000
  C   C169      1.0  0.26051  0.27255  0.77841  1.0000
  H   H205      1.0  0.05372  0.07276  0.77448  1.0000
  C   C170      1.0  0.22484  0.27932  0.75760  1.0000
  C   C171      1.0  0.26104  0.27929  0.68516  1.0000
  S   S49       1.0  0.13663  0.06231  0.97029  1.0000
  Fe  Fe28      1.0  0.07481  0.04831  0.47949  1.0000
  H   H206      1.0  0.16809  0.04039  0.77815  1.0000
  C   C172      1.0  0.26137  0.28282  0.47534  1.0000
  H   H207      1.0  0.04410  0.11871  0.82445  1.0000
  C   C173      1.0  0.01815  0.05592  0.47635  1.0000
  C   C174      1.0  0.01553  0.05349  0.71529  1.0000
  H   H208      1.0  0.05386  0.11178  0.79115  1.0000
  H   H209      1.0  0.26225  0.16099  0.73352  1.0000
  H   H210      1.0  0.26311  0.17606  0.54102  1.0000
  H   H211      1.0  0.26361  0.25572  0.76976  1.0000
  C   C175      1.0  0.03800  0.58341  0.03866  1.0000
  Fe  Fe29      1.0  0.07262  0.60929  0.21081  1.0000
  S   S50       1.0  0.08857  0.57509  0.20926  1.0000
  S   S51       1.0  0.03542  0.61660  0.21159  1.0000
  Fe  Fe30      1.0  0.11728  0.62874  0.21054  1.0000
  S   S52       1.0  0.13639  0.59555  0.21004  1.0000
  S   S53       1.0  0.13569  0.65928  0.21160  1.0000
  Fe  Fe31      1.0  0.11110  0.58757  0.17906  1.0000
  S   S54       1.0  0.11949  0.56686  0.14223  1.0000
  Fe  Fe32      1.0  0.11200  0.58653  0.24057  1.0000
  S   S55       1.0  0.11852  0.56331  0.27540  1.0000
  S   S56       1.0  0.09321  0.62115  0.17781  1.0000
  S   S57       1.0  0.09479  0.62037  0.24385  1.0000
  H   H212      1.0  0.14324  0.52983  0.37800  1.0000
  C   C176      1.0  0.20849  0.66682  0.22198  1.0000
  C   C177      1.0  0.05671  0.61762  0.30384  1.0000
  H   H213      1.0  0.05573  0.59201  0.26074  1.0000
  C   C178      1.0  0.24378  0.43635  0.45798  1.0000
  H   H214      1.0  0.07297  0.58769  0.13839  1.0000
  H   H215      1.0  0.21989  0.50192  0.33515  1.0000
  Fe  Fe33      1.0  0.11345  0.58927  0.99452  1.0000
  S   S58       1.0  0.11672  0.61278  0.02935  1.0000
  Fe  Fe34      1.0  0.10782  0.57660  0.43241  1.0000
  S   S59       1.0  0.11552  0.59678  0.39656  1.0000
  S   S60       1.0  0.10178  0.55575  0.99780  1.0000
  S   S61       1.0  0.09852  0.54212  0.43091  1.0000
  C   C179      1.0  0.18931  0.49732  0.04977  1.0000
  C   C180      1.0  0.18669  0.48118  0.03020  1.0000
  C   C181      1.0  0.17425  0.48631  0.00672  1.0000
  C   C182      1.0  0.16449  0.50766  0.00249  1.0000
  C   C183      1.0  0.16711  0.52383  0.02201  1.0000
  C   C184      1.0  0.17953  0.51868  0.04552  1.0000
  H   H216      1.0  0.15215  0.65461  0.11499  1.0000
  H   H217      1.0  0.13803  0.65819  0.03284  1.0000
  H   H218      1.0  0.15975  0.54036  0.01892  1.0000
  H   H219      1.0  0.18152  0.53134  0.06046  1.0000
  C   C185      1.0  0.12150  0.58030  0.11146  1.0000
  C   C186      1.0  0.12439  0.56770  0.08791  1.0000
  C   C187      1.0  0.12350  0.57762  0.06275  1.0000
  C   C188      1.0  0.11993  0.60032  0.06090  1.0000
  C   C189      1.0  0.11823  0.61314  0.08446  1.0000
  C   C190      1.0  0.11886  0.60313  0.10974  1.0000
  H   H220      1.0  0.12701  0.55018  0.08896  1.0000
  H   H221      1.0  0.12563  0.56763  0.04480  1.0000
  H   H222      1.0  0.11585  0.63079  0.08317  1.0000
  H   H223      1.0  0.11710  0.61307  0.12777  1.0000
  C   C191      1.0  0.11642  0.57316  0.30880  1.0000
  C   C192      1.0  0.11223  0.55871  0.32930  1.0000
  C   C193      1.0  0.11077  0.56599  0.35617  1.0000
  C   C194      1.0  0.11435  0.58758  0.36284  1.0000
  C   C195      1.0  0.11838  0.60206  0.34230  1.0000
  C   C196      1.0  0.11915  0.59496  0.31532  1.0000
  H   H224      1.0  0.10990  0.54186  0.32432  1.0000
  H   H225      1.0  0.10702  0.55487  0.37169  1.0000
  H   H226      1.0  0.12116  0.61880  0.34731  1.0000
  H   H227      1.0  0.12246  0.60620  0.29967  1.0000
  C   C197      1.0  0.01852  0.58563  0.46789  1.0000
  C   C198      1.0  0.03551  0.59820  0.35075  1.0000
  C   C199      1.0  0.02200  0.60342  0.29261  1.0000
  H   H228      1.0  0.05525  0.56877  0.12381  1.0000
  H   H229      1.0  0.15751  0.63527  0.04160  1.0000
  C   C200      1.0  0.24757  0.49515  0.45633  1.0000
  C   C201      1.0  0.01745  0.59609  0.21721  1.0000
  S   S62       1.0  0.25761  0.41329  0.33333  1.0000
  H   H230      1.0  0.04282  0.56933  0.22049  1.0000
  H   H231      1.0  0.17216  0.47367  0.99179  1.0000
  H   H232      1.0  0.21937  0.36912  0.41189  1.0000
  S   S63       1.0  0.23277  0.43842  0.11758  1.0000
  C   C202      1.0  0.24012  0.50211  0.00348  1.0000
  C   C203      1.0  0.20443  0.48732  0.39698  1.0000
  H   H233      1.0  0.19589  0.63946  0.26101  1.0000
  C   C204      1.0  0.14948  0.53698  0.39699  1.0000
  H   H234      1.0  0.17762  0.54151  0.43691  1.0000
  N   N13       1.0  0.17212  0.54345  0.39385  1.0000
  S   S64       1.0  0.20312  0.49100  0.08057  1.0000
  N   N14       1.0  0.14200  0.50228  0.12341  1.0000
  C   C205      1.0  0.15232  0.47955  0.11967  1.0000
  C   C206      1.0  0.15931  0.51756  0.12108  1.0000
  C   C207      1.0  0.13356  0.50423  0.15127  1.0000
  C   C208      1.0  0.12473  0.50742  0.10253  1.0000
  C   C209      1.0  0.12966  0.50400  0.07491  1.0000
  C   C210      1.0  0.10316  0.51708  0.10860  1.0000
  C   C211      1.0  0.11417  0.50997  0.05469  1.0000
  C   C212      1.0  0.08770  0.52285  0.08819  1.0000
  C   C213      1.0  0.09322  0.51938  0.06131  1.0000
  H   H235      1.0  0.16438  0.47475  0.13606  1.0000
  H   H236      1.0  0.13962  0.46763  0.11900  1.0000
  H   H237      1.0  0.16200  0.47743  0.10091  1.0000
  H   H238      1.0  0.16638  0.51718  0.10069  1.0000
  H   H239      1.0  0.17332  0.51361  0.13536  1.0000
  H   H240      1.0  0.15264  0.53477  0.12505  1.0000
  H   H241      1.0  0.12001  0.49356  0.15421  1.0000
  H   H242      1.0  0.14676  0.49954  0.16640  1.0000
  H   H243      1.0  0.12746  0.52142  0.15648  1.0000
  H   H244      1.0  0.14579  0.49724  0.06863  1.0000
  H   H245      1.0  0.09808  0.52103  0.12890  1.0000
  H   H246      1.0  0.11861  0.50763  0.03372  1.0000
  H   H247      1.0  0.07147  0.53045  0.09322  1.0000
  H   H248      1.0  0.08135  0.52423  0.04553  1.0000
  H   H249      1.0  0.20272  0.67329  0.98979  1.0000
  H   H250      1.0  0.07317  0.61748  0.08966  1.0000
  H   H251      1.0  0.13786  0.55132  0.40266  1.0000
  C   C214      1.0  0.21181  0.50324  0.35446  1.0000
  N   N15       1.0  0.04510  0.59746  0.30170  1.0000
  H   H252      1.0  0.04774  0.56823  0.27681  1.0000
  H   H253      1.0  0.06360  0.53966  0.36149  1.0000
  S   S65       1.0  0.14824  0.50819  0.46730  1.0000
  H   H254      1.0  0.22523  0.39004  0.02261  1.0000
  C   C215      1.0  0.15391  0.66371  0.13353  1.0000
  C   C216      1.0  0.26048  0.39242  0.24550  1.0000
  C   C217      1.0  0.06049  0.62110  0.10528  1.0000
  H   H255      1.0  0.18741  0.56713  0.37048  1.0000
  C   C218      1.0  0.03648  0.59556  0.08597  1.0000
  H   H256      1.0  0.19385  0.46462  0.03337  1.0000
  Fe  Fe35      1.0  0.24163  0.41294  0.08571  1.0000
  C   C219      1.0  0.03584  0.58871  0.37616  1.0000
  C   C220      1.0  0.21653  0.65986  0.16631  1.0000
  H   H257      1.0  0.23435  0.65420  0.26347  1.0000
  H   H258      1.0  0.14847  0.52468  0.41297  1.0000
  C   C221      1.0  0.14656  0.66825  0.18127  1.0000
  C   C222      1.0  0.24715  0.35599  0.08713  1.0000
  H   H259      1.0  0.14538  0.63648  0.99623  1.0000
  H   H260      1.0  0.18614  0.66055  0.28440  1.0000
  H   H261      1.0  0.03455  0.59137  0.46543  1.0000
  H   H262      1.0  0.19605  0.53462  0.34614  1.0000
  C   C223      1.0  0.21501  0.48596  0.37234  1.0000
  C   C224      1.0  0.19801  0.52201  0.36111  1.0000
  H   H263      1.0  0.25051  0.40477  0.25694  1.0000
  H   H264      1.0  0.16960  0.56828  0.42511  1.0000
  H   H265      1.0  0.21877  0.38233  0.98878  1.0000
  S   S66       1.0  0.24498  0.43775  0.40341  1.0000
  C   C225      1.0  0.05559  0.55596  0.35834  1.0000
  N   N16       1.0  0.25293  0.37471  0.00035  1.0000
  C   C226      1.0  0.18704  0.52398  0.38618  1.0000
  S   S67       1.0  0.13302  0.57054  0.46564  1.0000
  H   H266      1.0  0.16382  0.55609  0.35424  1.0000
  H   H267      1.0  0.19713  0.55609  0.41905  1.0000
  H   H268      1.0  0.23118  0.39481  0.41383  1.0000
  S   S68       1.0  0.22860  0.37977  0.08558  1.0000
  H   H269      1.0  0.18237  0.50607  0.42298  1.0000
  H   H270      1.0  0.20675  0.47362  0.41061  1.0000
  C   C227      1.0  0.06389  0.58352  0.11969  1.0000
  C   C228      1.0  0.22462  0.67026  0.26676  1.0000
  C   C229      1.0  0.25081  0.45499  0.21659  1.0000
  C   C230      1.0  0.25886  0.45304  0.19026  1.0000
  C   C231      1.0  0.17953  0.55265  0.41983  1.0000
  C   C232      1.0  0.01579  0.56334  0.46506  1.0000
  C   C233      1.0  0.15476  0.65346  0.04146  1.0000
  H   H271      1.0  0.24828  0.45832  0.17348  1.0000
  Fe  Fe36      1.0  0.22900  0.46210  0.08317  1.0000
  S   S69       1.0  0.23404  0.43590  0.05154  1.0000
  C   C234      1.0  0.23439  0.37732  0.40752  1.0000
  H   H272      1.0  0.06352  0.55542  0.31714  1.0000
  C   C235      1.0  0.19061  0.50599  0.40387  1.0000
  H   H273      1.0  0.05735  0.62581  0.28407  1.0000
  N   N17       1.0  0.04811  0.60198  0.11080  1.0000
  H   H274      1.0  0.19237  0.63659  0.16774  1.0000
  H   H275      1.0  0.25529  0.48434  0.41586  1.0000
  H   H276      1.0  0.04260  0.61283  0.15193  1.0000
  C   C236      1.0  0.02535  0.57423  0.22133  1.0000
  C   C237      1.0  0.04860  0.58931  0.06244  1.0000
  C   C238      1.0  0.14460  0.65654  0.15717  1.0000
  H   H277      1.0  0.06941  0.62656  0.12350  1.0000
  C   C239      1.0  0.22526  0.50491  0.98186  1.0000
  H   H278      1.0  0.21898  0.65777  0.14487  1.0000
  C   C240      1.0  0.25432  0.35127  0.33651  1.0000
  H   H279      1.0  0.13593  0.64196  0.15675  1.0000
  H   H280      1.0  0.04856  0.62995  0.31786  1.0000
  H   H281      1.0  0.24630  0.44689  0.00226  1.0000
  H   H282      1.0  0.04920  0.63522  0.09812  1.0000
  S   S70       1.0  0.03845  0.54370  0.45968  1.0000
  H   H283      1.0  0.22553  0.47136  0.36693  1.0000
  H   H284      1.0  0.07374  0.57893  0.28524  1.0000
  H   H285      1.0  0.23697  0.38874  0.16756  1.0000
  H   H286      1.0  0.06641  0.58913  0.06212  1.0000
  H   H287      1.0  0.15990  0.57583  0.38054  1.0000
  H   H288      1.0  0.04754  0.57887  0.02085  1.0000
  H   H289      1.0  0.23398  0.46170  0.21993  1.0000
  H   H290      1.0  0.02844  0.59776  0.39314  1.0000
  H   H291      1.0  0.18497  0.64212  0.21496  1.0000
  C   C241      1.0  0.17093  0.56129  0.37382  1.0000
  C   C242      1.0  0.05538  0.56529  0.33282  1.0000
  C   C243      1.0  0.19747  0.65130  0.20663  1.0000
  H   H292      1.0  0.01680  0.54171  0.22981  1.0000
  C   C244      1.0  0.03323  0.60811  0.13364  1.0000
  H   H293      1.0  0.24758  0.40455  0.20845  1.0000
  H   H294      1.0  0.02389  0.59426  0.13968  1.0000
  C   C245      1.0  0.26252  0.49697  0.99887  1.0000
  H   H295      1.0  0.15419  0.65905  0.06288  1.0000
  C   C246      1.0  0.04533  0.58682  0.32826  1.0000
  H   H296      1.0  0.19870  0.63949  0.03865  1.0000
  H   H297      1.0  0.04624  0.56041  0.39976  1.0000
  Fe  Fe37      1.0  0.07323  0.55376  0.46166  1.0000
  H   H298      1.0  0.23416  0.50363  0.02393  1.0000
  Fe  Fe38      1.0  0.12198  0.53678  0.46619  1.0000
  H   H299      1.0  0.07668  0.57881  0.10450  1.0000
  C   C247      1.0  0.20158  0.64791  0.17924  1.0000
  C   C248      1.0  0.04589  0.56764  0.37996  1.0000
  H   H300      1.0  0.25013  0.36864  0.33479  1.0000
  H   H301      1.0  0.22041  0.34413  0.33952  1.0000
  H   H302      1.0  0.02132  0.61117  0.27245  1.0000
  C   C249      1.0  0.25209  0.36943  0.45069  1.0000
  C   C250      1.0  0.15883  0.64253  0.98555  1.0000
  H   H303      1.0  0.22632  0.43478  0.45523  1.0000
  C   C251      1.0  0.05605  0.58343  0.28033  1.0000
  H   H304      1.0  0.23834  0.34412  0.99738  1.0000
  C   C252      1.0  0.25714  0.43786  0.43563  1.0000
  H   H305      1.0  0.23607  0.37699  0.38526  1.0000
  H   H306      1.0  0.02768  0.61465  0.34894  1.0000
  C   C253      1.0  0.18892  0.65682  0.26270  1.0000
  H   H307      1.0  0.07403  0.61381  0.31116  1.0000
  S   S71       1.0  0.25375  0.45181  0.27135  1.0000
  N   N18       1.0  0.17229  0.66324  0.02653  1.0000
  S   S72       1.0  0.08092  0.58866  0.46078  1.0000
  H   H308      1.0  0.23167  0.48867  0.45502  1.0000
  C   C254      1.0  0.17395  0.65595  0.99808  1.0000
  C   C255      1.0  0.25708  0.34329  0.41379  1.0000
  H   H309      1.0  0.25717  0.40849  0.16474  1.0000
  C   C256      1.0  0.25371  0.39130  0.16027  1.0000
  C   C257      1.0  0.19355  0.65729  0.04088  1.0000
  C   C258      1.0  0.25648  0.44384  0.98497  1.0000
  H   H310      1.0  0.23382  0.40593  0.99579  1.0000
  C   C259      1.0  0.23176  0.38885  0.00175  1.0000
  N   N19       1.0  0.25444  0.36688  0.42119  1.0000
  H   H311      1.0  0.19234  0.66105  0.06279  1.0000
  H   H312      1.0  0.25050  0.34855  0.17209  1.0000
  H   H313      1.0  0.24056  0.35466  0.03101  1.0000
  C   C260      1.0  0.25892  0.39205  0.21743  1.0000
  H   H314      1.0  0.25293  0.38979  0.13794  1.0000
  C   C261      1.0  0.24897  0.35304  0.01126  1.0000
  N   N20       1.0  0.20377  0.67178  0.25066  1.0000
  H   H315      1.0  0.17222  0.65847  0.25294  1.0000
  H   H316      1.0  0.20715  0.66649  0.03370  1.0000
  H   H317      1.0  0.02133  0.62247  0.12886  1.0000
  H   H318      1.0  0.22261  0.35183  0.45273  1.0000
  H   H319      1.0  0.20808  0.50881  0.98649  1.0000
  C   C262      1.0  0.19079  0.66292  0.98171  1.0000
  C   C263      1.0  0.23453  0.36048  0.46390  1.0000
  C   C264      1.0  0.26105  0.49241  0.43382  1.0000
  H   H320      1.0  0.26226  0.67188  0.44865  1.0000
  H   H321      1.0  0.22149  0.67233  0.28867  1.0000
  C   C265      1.0  0.26182  0.37207  0.97282  1.0000
  H   H322      1.0  0.26262  0.38797  0.03861  1.0000
  C   C266      1.0  0.01511  0.58356  0.03757  1.0000
  C   C267      1.0  0.22782  0.67494  0.18082  1.0000
  S   S73       1.0  0.15032  0.51382  0.97193  1.0000
  H   H323      1.0  0.26377  0.35220  0.14084  1.0000
  H   H324      1.0  0.22826  0.45369  0.72209  1.0000
  Fe  Fe39      1.0  0.07311  0.60975  0.71716  1.0000
  S   S74       1.0  0.09037  0.57594  0.71760  1.0000
  S   S75       1.0  0.03613  0.61634  0.72386  1.0000
  Fe  Fe40      1.0  0.11652  0.63072  0.70748  1.0000
  S   S76       1.0  0.13647  0.59804  0.70712  1.0000
  C   C268      1.0  0.25214  0.38374  0.95043  1.0000
  Fe  Fe41      1.0  0.10850  0.58694  0.68205  1.0000
  S   S77       1.0  0.11353  0.56292  0.64740  1.0000
  Fe  Fe42      1.0  0.11642  0.59047  0.74275  1.0000
  S   S78       1.0  0.13270  0.57166  0.77779  1.0000
  S   S79       1.0  0.08966  0.62017  0.67984  1.0000
  S   S80       1.0  0.09802  0.62376  0.74492  1.0000
  H   H325      1.0  0.07053  0.58487  0.90580  1.0000
  C   C269      1.0  0.17770  0.66441  0.77191  1.0000
  H   H326      1.0  0.17601  0.47096  0.48575  1.0000
  C   C270      1.0  0.25473  0.50539  0.48024  1.0000
  H   H327      1.0  0.03628  0.54412  0.51934  1.0000
  C   C271      1.0  0.02407  0.57387  0.71800  1.0000
  S   S81       1.0  0.24617  0.43934  0.90490  1.0000
  Fe  Fe43      1.0  0.10511  0.57891  0.49396  1.0000
  S   S82       1.0  0.10727  0.60153  0.52979  1.0000
  Fe  Fe44      1.0  0.11782  0.58600  0.93354  1.0000
  S   S83       1.0  0.12316  0.60743  0.89790  1.0000
  S   S84       1.0  0.09567  0.54460  0.49685  1.0000
  S   S85       1.0  0.10695  0.55211  0.93204  1.0000
  C   C272      1.0  0.18199  0.49255  0.54860  1.0000
  C   C273      1.0  0.18442  0.47762  0.52712  1.0000
  C   C274      1.0  0.17387  0.48250  0.50234  1.0000
  C   C275      1.0  0.16040  0.50212  0.49901  1.0000
  C   C276      1.0  0.15752  0.51685  0.52064  1.0000
  C   C277      1.0  0.16834  0.51210  0.54533  1.0000
  C   C278      1.0  0.23170  0.36294  0.49165  1.0000
  C   C279      1.0  0.24649  0.44263  0.95955  1.0000
  H   H328      1.0  0.14719  0.53206  0.51825  1.0000
  H   H329      1.0  0.16630  0.52378  0.56178  1.0000
  C   C280      1.0  0.11216  0.57380  0.61480  1.0000
  C   C281      1.0  0.11348  0.55953  0.59250  1.0000
  C   C282      1.0  0.11217  0.56782  0.56630  1.0000
  C   C283      1.0  0.10949  0.59044  0.56230  1.0000
  C   C284      1.0  0.10831  0.60466  0.58461  1.0000
  C   C285      1.0  0.10968  0.59638  0.61079  1.0000
  H   H330      1.0  0.11552  0.54204  0.59546  1.0000
  H   H331      1.0  0.11344  0.55674  0.54926  1.0000
  H   H332      1.0  0.10639  0.62217  0.58165  1.0000
  H   H333      1.0  0.10893  0.60752  0.62778  1.0000
  C   C286      1.0  0.12920  0.58157  0.81112  1.0000
  C   C287      1.0  0.13584  0.56778  0.83262  1.0000
  C   C288      1.0  0.13356  0.57530  0.85937  1.0000
  C   C289      1.0  0.12509  0.59686  0.86475  1.0000
  C   C290      1.0  0.11826  0.61057  0.84328  1.0000
  C   C291      1.0  0.12009  0.60290  0.81658  1.0000
  H   H334      1.0  0.14283  0.55123  0.82854  1.0000
  H   H335      1.0  0.13886  0.56460  0.87577  1.0000
  H   H336      1.0  0.11141  0.62717  0.84734  1.0000
  H   H337      1.0  0.11463  0.61354  0.80024  1.0000
  H   H338      1.0  0.13885  0.64382  0.65238  1.0000
  C   C292      1.0  0.04289  0.59748  0.58593  1.0000
  Fe  Fe45      1.0  0.23626  0.41055  0.58830  1.0000
  H   H339      1.0  0.19241  0.52809  0.95256  1.0000
  S   S86       1.0  0.25029  0.44596  0.77269  1.0000
  C   C293      1.0  0.17743  0.64365  0.94298  1.0000
  H   H340      1.0  0.25046  0.36292  0.84320  1.0000
  C   C294      1.0  0.07249  0.57183  0.79862  1.0000
  H   H341      1.0  0.04101  0.56903  0.71271  1.0000
  C   C295      1.0  0.01749  0.59581  0.72414  1.0000
  C   C296      1.0  0.24632  0.37417  0.50711  1.0000
  C   C297      1.0  0.07099  0.58481  0.88345  1.0000
  S   S87       1.0  0.19656  0.48779  0.57927  1.0000
  H   H342      1.0  0.02983  0.53787  0.55308  1.0000
  C   C298      1.0  0.25291  0.43673  0.48397  1.0000
  H   H343      1.0  0.19451  0.46234  0.52949  1.0000
  H   H344      1.0  0.25378  0.63016  0.65174  1.0000
  C   C299      1.0  0.03259  0.57942  0.88423  1.0000
  H   H345      1.0  0.23752  0.52256  0.54355  1.0000
  C   C300      1.0  0.04839  0.60247  0.61255  1.0000
  S   S88       1.0  0.25827  0.46736  0.58364  1.0000
  H   H346      1.0  0.23395  0.66465  0.64184  1.0000
  N   N21       1.0  0.22559  0.65728  0.68256  1.0000
  C   C301      1.0  0.05339  0.58157  0.52988  1.0000
  H   H347      1.0  0.08791  0.57797  0.87818  1.0000
  H   H348      1.0  0.05432  0.54187  0.58903  1.0000
  S   S89       1.0  0.22852  0.43183  0.55247  1.0000
  H   H349      1.0  0.21244  0.65853  0.72258  1.0000
  H   H350      1.0  0.21990  0.53490  0.48700  1.0000
  C   C302      1.0  0.23231  0.50239  0.95485  1.0000
  H   H351      1.0  0.01818  0.58690  0.83675  1.0000
  H   H352      1.0  0.05929  0.54581  0.89970  1.0000
  S   S90       1.0  0.14200  0.57890  0.96771  1.0000
  H   H353      1.0  0.20967  0.47109  0.93144  1.0000
  C   C303      1.0  0.04085  0.54707  0.54080  1.0000
  C   C304      1.0  0.07254  0.56937  0.82647  1.0000
  H   H354      1.0  0.18806  0.64961  0.77890  1.0000
  C   C305      1.0  0.16345  0.66083  0.86481  1.0000
  H   H355      1.0  0.21790  0.35638  0.50126  1.0000
  C   C306      1.0  0.23720  0.48574  0.51421  1.0000
  C   C307      1.0  0.04445  0.57555  0.57617  1.0000
  H   H356      1.0  0.25379  0.39044  0.90812  1.0000
  N   N22       1.0  0.16081  0.50514  0.65209  1.0000
  C   C308      1.0  0.16533  0.52283  0.63356  1.0000
  C   C309      1.0  0.17222  0.48437  0.64158  1.0000
  C   C310      1.0  0.13676  0.50268  0.65135  1.0000
  C   C311      1.0  0.16786  0.51083  0.67973  1.0000
  C   C312      1.0  0.15743  0.52944  0.69326  1.0000
  C   C313      1.0  0.18508  0.49837  0.69399  1.0000
  C   C314      1.0  0.16328  0.53481  0.71963  1.0000
  C   C315      1.0  0.19088  0.50396  0.72035  1.0000
  C   C316      1.0  0.17989  0.52204  0.73319  1.0000
  H   H357      1.0  0.16056  0.51897  0.61244  1.0000
  H   H358      1.0  0.15601  0.53873  0.63886  1.0000
  H   H359      1.0  0.18319  0.52538  0.63371  1.0000
  H   H360      1.0  0.19027  0.48551  0.63950  1.0000
  H   H361      1.0  0.16607  0.48025  0.62109  1.0000
  H   H362      1.0  0.16955  0.47030  0.65458  1.0000
  H   H363      1.0  0.12666  0.51818  0.65627  1.0000
  H   H364      1.0  0.13105  0.49773  0.63099  1.0000
  H   H365      1.0  0.13250  0.49021  0.66592  1.0000
  H   H366      1.0  0.14456  0.54001  0.68359  1.0000
  H   H367      1.0  0.19433  0.48420  0.68530  1.0000
  H   H368      1.0  0.15477  0.54891  0.72969  1.0000
  H   H369      1.0  0.20394  0.49415  0.73096  1.0000
  H   H370      1.0  0.18424  0.52624  0.75370  1.0000
  H   H371      1.0  0.05351  0.58199  0.76352  1.0000
  H   H372      1.0  0.17312  0.66176  0.75041  1.0000
  C   C317      1.0  0.05198  0.55895  0.59468  1.0000
  C   C318      1.0  0.05737  0.56414  0.62128  1.0000
  C   C319      1.0  0.15739  0.66623  0.63088  1.0000
  C   C320      1.0  0.25939  0.44015  0.93651  1.0000
  C   C321      1.0  0.20068  0.48763  0.93378  1.0000
  H   H373      1.0  0.17874  0.63890  0.92200  1.0000
  N   N23       1.0  0.05380  0.57203  0.87119  1.0000
  C   C322      1.0  0.01544  0.57935  0.54216  1.0000
  H   H374      1.0  0.05046  0.57742  0.50839  1.0000
  H   H375      1.0  0.15727  0.65689  0.61228  1.0000
  S   S91       1.0  0.04638  0.55478  0.95552  1.0000
  C   C323      1.0  0.26043  0.63373  0.67139  1.0000
  C   C324      1.0  0.24797  0.64741  0.68998  1.0000
  C   C325      1.0  0.05333  0.57984  0.78508  1.0000
  H   H376      1.0  0.03789  0.61099  0.57282  1.0000
  H   H377      1.0  0.26112  0.66507  0.90929  1.0000
  N   N24       1.0  0.03864  0.57079  0.54782  1.0000
  C   C326      1.0  0.26046  0.44517  0.73960  1.0000
  H   H378      1.0  0.05141  0.59971  0.53165  1.0000
  C   C327      1.0  0.25710  0.38881  0.71882  1.0000
  N   N25       1.0  0.15781  0.66877  0.78872  1.0000
  C   C328      1.0  0.05322  0.57477  0.84167  1.0000
  H   H379      1.0  0.25451  0.34598  0.66975  1.0000
  H   H380      1.0  0.25220  0.53731  0.51999  1.0000
  C   C329      1.0  0.25528  0.34553  0.84244  1.0000
  H   H381      1.0  0.22797  0.47596  0.49969  1.0000
  C   C330      1.0  0.03376  0.58258  0.82714  1.0000
  C   C331      1.0  0.25847  0.65176  0.71500  1.0000
  H   H382      1.0  0.06378  0.55138  0.63492  1.0000
  C   C332      1.0  0.15710  0.65789  0.83797  1.0000
  N   N26       1.0  0.21601  0.50496  0.93241  1.0000
  H   H383      1.0  0.25271  0.38891  0.63918  1.0000
  C   C333      1.0  0.03399  0.58511  0.79924  1.0000
  H   H384      1.0  0.08793  0.56326  0.83602  1.0000
  S   S92       1.0  0.25678  0.41013  0.83569  1.0000
  H   H385      1.0  0.03373  0.57743  0.90642  1.0000
  H   H386      1.0  0.01912  0.56957  0.87719  1.0000
  C   C334      1.0  0.25530  0.49707  0.95086  1.0000
  H   H387      1.0  0.15213  0.63453  0.78956  1.0000
  C   C335      1.0  0.22620  0.50336  0.90544  1.0000
  H   H388      1.0  0.24245  0.43527  0.50090  1.0000
  H   H389      1.0  0.15740  0.65064  0.88017  1.0000
  C   C336      1.0  0.14690  0.65880  0.65359  1.0000
  Fe  Fe46      1.0  0.22297  0.45932  0.58248  1.0000
  C   C337      1.0  0.16443  0.67116  0.81732  1.0000
  H   H390      1.0  0.05823  0.53980  0.54324  1.0000
  H   H391      1.0  0.04771  0.61936  0.61940  1.0000
  S   S93       1.0  0.09028  0.59929  0.96043  1.0000
  C   C338      1.0  0.16064  0.63655  0.95838  1.0000
  C   C339      1.0  0.21138  0.64019  0.67327  1.0000
  H   H392      1.0  0.24474  0.40050  0.71014  1.0000
  S   S94       1.0  0.22374  0.37749  0.59330  1.0000
  H   H393      1.0  0.07096  0.57630  0.53461  1.0000
  H   H394      1.0  0.23784  0.39546  0.95214  1.0000
  C   C340      1.0  0.25311  0.44970  0.69150  1.0000
  C   C341      1.0  0.24285  0.35424  0.59065  1.0000
  S   S95       1.0  0.22711  0.43735  0.61847  1.0000
  H   H395      1.0  0.24715  0.39956  0.75865  1.0000
  N   N27       1.0  0.24023  0.50775  0.50395  1.0000
  H   H396      1.0  0.21701  0.63215  0.65415  1.0000
  C   C342      1.0  0.21407  0.66933  0.70512  1.0000
  Fe  Fe47      1.0  0.08096  0.56495  0.96133  1.0000
  H   H397      1.0  0.21357  0.50567  0.88905  1.0000
  H   H398      1.0  0.23507  0.48687  0.90180  1.0000
  H   H399      1.0  0.24156  0.45353  0.67515  1.0000
  H   H400      1.0  0.22870  0.44384  0.95780  1.0000
  H   H401      1.0  0.18772  0.48937  0.91772  1.0000
  C   C343      1.0  0.14674  0.67083  0.67765  1.0000
  H   H402      1.0  0.19409  0.64720  0.66910  1.0000
  H   H403      1.0  0.04707  0.53828  0.86818  1.0000
  H   H404      1.0  0.06907  0.60215  0.87685  1.0000
  H   H405      1.0  0.14641  0.64512  0.83401  1.0000
  H   H406      1.0  0.07589  0.54225  0.87052  1.0000
  H   H407      1.0  0.06029  0.58971  0.65066  1.0000
  S   S96       1.0  0.13452  0.66170  0.70705  1.0000
  C   C344      1.0  0.14362  0.65064  0.78367  1.0000
  C   C345      1.0  0.24562  0.44985  0.71810  1.0000
  H   H408      1.0  0.14882  0.62642  0.94915  1.0000
  H   H409      1.0  0.02786  0.59710  0.88067  1.0000
  C   C346      1.0  0.21827  0.51882  0.49641  1.0000
  C   C347      1.0  0.02463  0.59563  0.96561  1.0000
  H   H410      1.0  0.23663  0.38474  0.66797  1.0000
  C   C348      1.0  0.05924  0.54860  0.87760  1.0000
  C   C349      1.0  0.20300  0.52662  0.93449  1.0000
  H   H411      1.0  0.19140  0.52959  0.91712  1.0000
  H   H412      1.0  0.25063  0.66231  0.73029  1.0000
  C   C350      1.0  0.24921  0.52057  0.52644  1.0000
  H   H413      1.0  0.22785  0.48664  0.53327  1.0000
  Fe  Fe48      1.0  0.12882  0.54591  0.96864  1.0000
  H   H414      1.0  0.24388  0.37633  0.52858  1.0000
  H   H415      1.0  0.08744  0.56760  0.78740  1.0000
  C   C351      1.0  0.25830  0.38847  0.74691  1.0000
  C   C352      1.0  0.02291  0.57331  0.96119  1.0000
  H   H416      1.0  0.19181  0.48806  0.95313  1.0000
  C   C353      1.0  0.25289  0.38960  0.66156  1.0000
  H   H417      1.0  0.23796  0.51599  0.90295  1.0000
  H   H418      1.0  0.04066  0.60186  0.96622  1.0000
  C   C354      1.0  0.19243  0.65692  0.95458  1.0000
  H   H419      1.0  0.26225  0.49411  0.93118  1.0000
  H   H420      1.0  0.20742  0.52177  0.51418  1.0000
  H   H421      1.0  0.25338  0.47636  0.51843  1.0000
  C   C355      1.0  0.05554  0.58581  0.63020  1.0000
  H   H422      1.0  0.21070  0.62730  0.68864  1.0000
  H   H423      1.0  0.21399  0.54011  0.93546  1.0000
  H   H424      1.0  0.13914  0.64911  0.76200  1.0000
  C   C356      1.0  0.22743  0.67289  0.66047  1.0000
  H   H425      1.0  0.25414  0.40706  0.66713  1.0000
  H   H426      1.0  0.12772  0.65341  0.79451  1.0000
  H   H427      1.0  0.01915  0.59123  0.78836  1.0000
  C   C357      1.0  0.26118  0.38101  0.92480  1.0000
  H   H428      1.0  0.25773  0.65650  0.95726  1.0000
  Fe  Fe49      1.0  0.26287  0.44313  0.61719  1.0000
  H   H429      1.0  0.20889  0.50892  0.48220  1.0000
  H   H430      1.0  0.20529  0.66281  0.94248  1.0000
  C   C358      1.0  0.26383  0.38300  0.49487  1.0000
  H   H431      1.0  0.19715  0.67616  0.69925  1.0000
  C   C359      1.0  0.16565  0.68238  0.13385  1.0000
  C   C360      1.0  0.25814  0.80327  0.08178  1.0000
  H   H432      1.0  0.17641  0.96702  0.44038  1.0000
  H   H433      1.0  0.23291  0.69038  0.21851  1.0000
  S   S97       1.0  0.24277  0.94109  0.01767  1.0000
  H   H434      1.0  0.15187  0.69254  0.01631  1.0000
  H   H435      1.0  0.23181  0.82070  0.15732  1.0000
  S   S98       1.0  0.22618  0.93178  0.37192  1.0000
  C   C361      1.0  0.24957  0.84851  0.08930  1.0000
  C   C362      1.0  0.25375  0.93709  0.98523  1.0000
  S   S99       1.0  0.22308  0.93629  0.30614  1.0000
  H   H436      1.0  0.22645  0.85151  0.00585  1.0000
  Fe  Fe50      1.0  0.21789  0.95856  0.34232  1.0000
  Fe  Fe51      1.0  0.23517  0.91063  0.33604  1.0000
  S   S100      1.0  0.22475  0.87654  0.33249  1.0000
  C   C363      1.0  0.24636  0.81434  0.27518  1.0000
  H   H437      1.0  0.18730  0.95901  0.07193  1.0000
  H   H438      1.0  0.15300  0.98245  0.01513  1.0000
  N   N28       1.0  0.25113  0.86976  0.42558  1.0000
  N   N29       1.0  0.26069  0.85468  0.99818  1.0000
  N   N30       1.0  0.18449  0.97871  0.03615  1.0000
  C   C364      1.0  0.16770  0.69403  0.15795  1.0000
  C   C365      1.0  0.17764  0.98960  0.37837  1.0000
  H   H439      1.0  0.17693  0.69612  0.24207  1.0000
  H   H440      1.0  0.25518  0.84493  0.39430  1.0000
  S   S101      1.0  0.23401  0.73309  0.28217  1.0000
  H   H441      1.0  0.24459  0.88667  0.00810  1.0000
  H   H442      1.0  0.26180  0.88456  0.38961  1.0000
  Fe  Fe52      1.0  0.22254  0.75798  0.09526  1.0000
  C   C366      1.0  0.25386  0.87264  0.45502  1.0000
  S   S102      1.0  0.21526  0.79494  0.09320  1.0000
  Fe  Fe53      1.0  0.20465  0.71316  0.10239  1.0000
  S   S103      1.0  0.23879  0.69567  0.10188  1.0000
  S   S104      1.0  0.25750  0.74308  0.09470  1.0000
  Fe  Fe54      1.0  0.24777  0.72307  0.12906  1.0000
  S   S105      1.0  0.25338  0.91010  0.08399  1.0000
  Fe  Fe55      1.0  0.24458  0.71759  0.06741  1.0000
  C   C367      1.0  0.22749  0.87344  0.41732  1.0000
  S   S106      1.0  0.21330  0.73941  0.13158  1.0000
  S   S107      1.0  0.20994  0.73351  0.06596  1.0000
  Fe  Fe56      1.0  0.26052  0.72646  0.37961  1.0000
  C   C368      1.0  0.23209  0.88072  0.25214  1.0000
  S   S108      1.0  0.24841  0.75462  0.35336  1.0000
  Fe  Fe57      1.0  0.25720  0.73233  0.31820  1.0000
  C   C369      1.0  0.16287  0.00822  0.38289  1.0000
  H   H443      1.0  0.25961  0.88472  0.29470  1.0000
  H   H444      1.0  0.19359  0.96036  0.39600  1.0000
  H   H445      1.0  0.24955  0.76293  0.16141  1.0000
  H   H446      1.0  0.23309  0.90364  0.45777  1.0000
  C   C370      1.0  0.24540  0.73060  0.24981  1.0000
  H   H447      1.0  0.23533  0.68336  0.26192  1.0000
  C   C371      1.0  0.26349  0.88594  0.41185  1.0000
  H   H448      1.0  0.23593  0.94100  0.24877  1.0000
  C   C372      1.0  0.23965  0.73234  0.20134  1.0000
  C   C373      1.0  0.23178  0.73608  0.22750  1.0000
  H   H449      1.0  0.18078  0.69609  0.01907  1.0000
  C   C374      1.0  0.24287  0.00396  0.40108  1.0000
  H   H450      1.0  0.22869  0.73599  0.18450  1.0000
  H   H451      1.0  0.21488  0.74276  0.23044  1.0000
  S   S109      1.0  0.19026  0.98559  0.34680  1.0000
  N   N31       1.0  0.16175  0.00580  0.27018  1.0000
  H   H452      1.0  0.21334  0.96602  0.05872  1.0000
  H   H453      1.0  0.19875  0.94559  0.04262  1.0000
  C   C375      1.0  0.23032  0.70918  0.99336  1.0000
  C   C376      1.0  0.23469  0.95199  0.46390  1.0000
  H   H454      1.0  0.21735  0.99229  0.43973  1.0000
  H   H455      1.0  0.22905  0.00373  0.38609  1.0000
  H   H456      1.0  0.21925  0.71001  0.01016  1.0000
  H   H457      1.0  0.23281  0.80449  0.27876  1.0000
  C   C377      1.0  0.20315  0.00194  0.21273  1.0000
  H   H458      1.0  0.23512  0.95053  0.42082  1.0000
  C   C378      1.0  0.24455  0.85426  0.33828  1.0000
  C   C379      1.0  0.23761  0.83321  0.33951  1.0000
  C   C380      1.0  0.25284  0.81519  0.34505  1.0000
  C   C381      1.0  0.22204  0.98985  0.25352  1.0000
  C   C382      1.0  0.17263  0.97858  0.42439  1.0000
  C   C383      1.0  0.24211  0.83608  0.26703  1.0000
  H   H459      1.0  0.22037  0.83080  0.33630  1.0000
  C   C384      1.0  0.25937  0.84750  0.41584  1.0000
  H   H460      1.0  0.22311  0.93699  0.20158  1.0000
  H   H461      1.0  0.24779  0.98670  0.40669  1.0000
  H   H462      1.0  0.20332  0.70666  0.24529  1.0000
  H   H463      1.0  0.25904  0.86414  0.21260  1.0000
  S   S110      1.0  0.25197  0.96964  0.34139  1.0000
  C   C385      1.0  0.23680  0.81194  0.08833  1.0000
  C   C386      1.0  0.23252  0.83467  0.09162  1.0000
  Fe  Fe58      1.0  0.25800  0.94500  0.30779  1.0000
  C   C387      1.0  0.24781  0.78108  0.16020  1.0000
  H   H464      1.0  0.18884  0.99099  0.99607  1.0000
  H   H465      1.0  0.21603  0.84158  0.09646  1.0000
  H   H466      1.0  0.25187  0.83454  0.42701  1.0000
  C   C388      1.0  0.15641  0.98481  0.28171  1.0000
  H   H467      1.0  0.15930  0.69646  0.19984  1.0000
  H   H468      1.0  0.17653  0.70853  0.15841  1.0000
  H   H469      1.0  0.15482  0.97221  0.26569  1.0000
  C   C389      1.0  0.23476  0.71809  0.47029  1.0000
  C   C390      1.0  0.24507  0.95001  0.43888  1.0000
  C   C391      1.0  0.16258  0.97126  0.02926  1.0000
  C   C392      1.0  0.18246  0.97481  0.39922  1.0000
  H   H470      1.0  0.21747  0.71710  0.46545  1.0000
  C   C393      1.0  0.18242  0.00215  0.25474  1.0000
  C   C394      1.0  0.24752  0.94133  0.23262  1.0000
  H   H471      1.0  0.22338  0.87141  0.23660  1.0000
  C   C395      1.0  0.24028  0.93907  0.20584  1.0000
  H   H472      1.0  0.21717  0.86299  0.42896  1.0000
  H   H473      1.0  0.21385  0.98542  0.01539  1.0000
  C   C396      1.0  0.25312  0.70810  0.99802  1.0000
  C   C397      1.0  0.19644  0.96172  0.05328  1.0000
  H   H474      1.0  0.14067  0.98678  0.29301  1.0000
  C   C398      1.0  0.24309  0.84333  0.01084  1.0000
  H   H475      1.0  0.24333  0.82592  0.00437  1.0000
  H   H476      1.0  0.22065  0.89076  0.41977  1.0000
  S   S111      1.0  0.17689  0.69088  0.10355  1.0000
  H   H477      1.0  0.22494  0.86963  0.39555  1.0000
  H   H478      1.0  0.24608  0.86588  0.09246  1.0000
  H   H479      1.0  0.16412  0.95488  0.01920  1.0000
  H   H480      1.0  0.22797  0.76855  0.46046  1.0000
  H   H481      1.0  0.19985  0.96357  0.00091  1.0000
  C   C399      1.0  0.24295  0.77671  0.46053  1.0000
  C   C400      1.0  0.19725  0.97983  0.01112  1.0000
  H   H482      1.0  0.23524  0.78692  0.17528  1.0000
  H   H483      1.0  0.23129  0.85975  0.15104  1.0000
  H   H484      1.0  0.25754  0.90305  0.41756  1.0000
  C   C401      1.0  0.15795  0.68714  0.18146  1.0000
  C   C402      1.0  0.25498  0.94001  0.18450  1.0000
  C   C403      1.0  0.16735  0.68736  0.02763  1.0000
  C   C404      1.0  0.22397  0.67833  0.20824  1.0000
  S   S112      1.0  0.23990  0.72014  0.41587  1.0000
  H   H485      1.0  0.22360  0.87973  0.27173  1.0000
  C   C405      1.0  0.19296  0.69435  0.25325  1.0000
  H   H486      1.0  0.24820  0.76721  0.41908  1.0000
  C   C406      1.0  0.26132  0.72335  0.19721  1.0000
  S   S113      1.0  0.24473  0.93866  0.15118  1.0000
  H   H487      1.0  0.26355  0.87555  0.03322  1.0000
  C   C407      1.0  0.24693  0.85019  0.15468  1.0000
  C   C408      1.0  0.18342  0.00625  0.22674  1.0000
  H   H488      1.0  0.24721  0.79913  0.34606  1.0000
  Fe  Fe59      1.0  0.26047  0.94179  0.36938  1.0000
  C   C409      1.0  0.18819  0.00462  0.07617  1.0000
  C   C410      1.0  0.24978  0.71993  0.44950  1.0000
  H   H489      1.0  0.16520  0.69353  0.04865  1.0000
  H   H490      1.0  0.23933  0.68437  0.17069  1.0000
  H   H491      1.0  0.20351  0.00484  0.19131  1.0000
  H   H492      1.0  0.24490  0.84318  0.03311  1.0000
  H   H493      1.0  0.22496  0.84206  0.26466  1.0000
  C   C411      1.0  0.18148  0.00062  0.04917  1.0000
  H   H494      1.0  0.21685  0.95363  0.46484  1.0000
  H   H495      1.0  0.13858  0.00314  0.23717  1.0000
  H   H496      1.0  0.26155  0.78594  0.07822  1.0000
  H   H497      1.0  0.24115  0.78506  0.13974  1.0000
  C   C412      1.0  0.26067  0.87668  0.01108  1.0000
  H   H498      1.0  0.18971  0.69907  0.27461  1.0000
  H   H499      1.0  0.19623  0.99194  0.08865  1.0000
  H   H500      1.0  0.23759  0.99018  0.21506  1.0000
  C   C413      1.0  0.24752  0.82756  0.15826  1.0000
  C   C414      1.0  0.15800  0.99724  0.42897  1.0000
  H   H501      1.0  0.15240  0.97032  0.04749  1.0000
  H   H502      1.0  0.22982  0.89821  0.24612  1.0000
  C   C415      1.0  0.25450  0.77575  0.43640  1.0000
  C   C416      1.0  0.24317  0.89113  0.46852  1.0000
  C   C417      1.0  0.22239  0.99374  0.22607  1.0000
  H   H503      1.0  0.16923  0.97806  0.29624  1.0000
  C   C418      1.0  0.20239  0.99382  0.26767  1.0000
  C   C419      1.0  0.25960  0.84949  0.26298  1.0000
  H   H504      1.0  0.20293  0.99014  0.28886  1.0000
  N   N32       1.0  0.25582  0.87262  0.25448  1.0000
  S   S114      1.0  0.14697  0.00195  0.46123  1.0000
  H   H505      1.0  0.23708  0.98340  0.26380  1.0000
  H   H506      1.0  0.26297  0.89223  0.22055  1.0000
  H   H507      1.0  0.26267  0.90461  0.26928  1.0000
  C   C420      1.0  0.25300  0.00618  0.47069  1.0000
  C   C421      1.0  0.17781  0.97595  0.92853  1.0000
  S   S115      1.0  0.24440  0.91948  0.58354  1.0000
  C   C422      1.0  0.18531  0.98802  0.73034  1.0000
  C   C423      1.0  0.24194  0.71718  0.49728  1.0000
  S   S116      1.0  0.23396  0.95472  0.51877  1.0000
  H   H508      1.0  0.22903  0.94228  0.74968  1.0000
  C   C424      1.0  0.18489  0.69004  0.85217  1.0000
  S   S117      1.0  0.22261  0.91602  0.86860  1.0000
  H   H509      1.0  0.25307  0.82046  0.91437  1.0000
  C   C425      1.0  0.16806  0.68558  0.63204  1.0000
  S   S118      1.0  0.21841  0.92668  0.80383  1.0000
  C   C426      1.0  0.17738  0.67683  0.87188  1.0000
  H   H510      1.0  0.24816  0.89046  0.91563  1.0000
  Fe  Fe60      1.0  0.23037  0.89808  0.82968  1.0000
  S   S119      1.0  0.21919  0.86469  0.81998  1.0000
  C   C427      1.0  0.25831  0.81166  0.59114  1.0000
  H   H511      1.0  0.22130  0.76026  0.50447  1.0000
  H   H512      1.0  0.18238  0.67913  0.89267  1.0000
  H   H513      1.0  0.19914  0.95667  0.90112  1.0000
  H   H514      1.0  0.15557  0.70340  0.78021  1.0000
  S   S120      1.0  0.23314  0.73975  0.84992  1.0000
  C   C428      1.0  0.16056  0.00048  0.79387  1.0000
  H   H515      1.0  0.13502  0.00668  0.55092  1.0000
  H   H516      1.0  0.25900  0.76071  0.52520  1.0000
  H   H517      1.0  0.14125  0.99499  0.51858  1.0000
  S   S121      1.0  0.21791  0.71604  0.77927  1.0000
  C   C429      1.0  0.15711  0.69035  0.67874  1.0000
  C   C430      1.0  0.21817  0.80430  0.70479  1.0000
  Fe  Fe61      1.0  0.22459  0.76338  0.59826  1.0000
  H   H518      1.0  0.24738  0.85560  0.89053  1.0000
  S   S122      1.0  0.21552  0.79994  0.59414  1.0000
  Fe  Fe62      1.0  0.20784  0.71779  0.60206  1.0000
  S   S123      1.0  0.24242  0.70144  0.60377  1.0000
  S   S124      1.0  0.24945  0.68763  0.84128  1.0000
  Fe  Fe63      1.0  0.24852  0.72836  0.63294  1.0000
  C   C431      1.0  0.25943  0.87941  0.51122  1.0000
  Fe  Fe64      1.0  0.24999  0.72446  0.57132  1.0000
  H   H519      1.0  0.22372  0.81368  0.53592  1.0000
  S   S125      1.0  0.21366  0.74380  0.63277  1.0000
  S   S126      1.0  0.21494  0.73900  0.56694  1.0000
  H   H520      1.0  0.22109  0.80979  0.74700  1.0000
  C   C432      1.0  0.16060  0.99815  0.69300  1.0000
  S   S127      1.0  0.18155  0.69385  0.60306  1.0000
  C   C433      1.0  0.14533  0.68931  0.77956  1.0000
  H   H521      1.0  0.20429  0.70888  0.96337  1.0000
  C   C434      1.0  0.16785  0.69764  0.65612  1.0000
  C   C435      1.0  0.24572  0.89421  0.49624  1.0000
  H   H522      1.0  0.15689  0.69989  0.69719  1.0000
  H   H523      1.0  0.17573  0.71271  0.65722  1.0000
  C   C436      1.0  0.23219  0.71712  0.74907  1.0000
  H   H524      1.0  0.22100  0.85972  0.75523  1.0000
  C   C437      1.0  0.25661  0.83557  0.95350  1.0000
  H   H525      1.0  0.20988  0.77955  0.52876  1.0000
  C   C438      1.0  0.23250  0.72745  0.70221  1.0000
  C   C439      1.0  0.22131  0.72647  0.72649  1.0000
  H   H526      1.0  0.18508  0.97217  0.52880  1.0000
  Fe  Fe65      1.0  0.25544  0.94349  0.55424  1.0000
  H   H527      1.0  0.22399  0.73491  0.68514  1.0000
  H   H528      1.0  0.20421  0.73305  0.72778  1.0000
  C   C440      1.0  0.19581  0.98977  0.57904  1.0000
  H   H529      1.0  0.21617  0.97891  0.61303  1.0000
  C   C441      1.0  0.25698  0.85532  0.96869  1.0000
  H   H530      1.0  0.24987  0.81613  0.77576  1.0000
  H   H531      1.0  0.22438  0.82111  0.50121  1.0000
  N   N33       1.0  0.17892  0.00581  0.77658  1.0000
  Fe  Fe66      1.0  0.25335  0.93531  0.80596  1.0000
  C   C442      1.0  0.24932  0.87552  0.70049  1.0000
  H   H532      1.0  0.23021  0.71543  0.51302  1.0000
  H   H533      1.0  0.25256  0.84819  0.64033  1.0000
  H   H534      1.0  0.22099  0.85676  0.70604  1.0000
  S   S128      1.0  0.22524  0.70376  0.91211  1.0000
  C   C443      1.0  0.23620  0.84144  0.83038  1.0000
  C   C444      1.0  0.22740  0.82116  0.83129  1.0000
  H   H535      1.0  0.26381  0.79462  0.59371  1.0000
  Fe  Fe67      1.0  0.24069  0.71668  0.81526  1.0000
  H   H536      1.0  0.18822  0.67830  0.77234  1.0000
  C   C445      1.0  0.25007  0.85549  0.91211  1.0000
  H   H537      1.0  0.21009  0.82016  0.82665  1.0000
  C   C446      1.0  0.24468  0.85617  0.58464  1.0000
  C   C447      1.0  0.25852  0.84264  0.83672  1.0000
  C   C448      1.0  0.24890  0.87850  0.75748  1.0000
  C   C449      1.0  0.25429  0.70871  0.74726  1.0000
  C   C450      1.0  0.19905  0.99193  0.78524  1.0000
  C   C451      1.0  0.23352  0.86557  0.71574  1.0000
  C   C452      1.0  0.23577  0.81860  0.59100  1.0000
  C   C453      1.0  0.22903  0.84092  0.58770  1.0000
  H   H538      1.0  0.21378  0.99535  0.77363  1.0000
  C   C454      1.0  0.24084  0.80217  0.83837  1.0000
  H   H539      1.0  0.21346  0.87591  0.66664  1.0000
  H   H540      1.0  0.21161  0.84644  0.58738  1.0000
  H   H541      1.0  0.23924  0.87324  0.58201  1.0000
  C   C455      1.0  0.15808  0.99518  0.88262  1.0000
  S   S129      1.0  0.18467  0.97061  0.84746  1.0000
  H   H542      1.0  0.23731  0.90840  0.50614  1.0000
  C   C456      1.0  0.17749  0.00383  0.56954  1.0000
  N   N34       1.0  0.23931  0.78872  0.50969  1.0000
  C   C457      1.0  0.24801  0.93625  0.93667  1.0000
  H   H543      1.0  0.23707  0.93856  0.91943  1.0000
  S   S130      1.0  0.24817  0.95642  0.84301  1.0000
  H   H544      1.0  0.19981  0.97793  0.73698  1.0000
  C   C458      1.0  0.24731  0.95185  0.48766  1.0000
  C   C459      1.0  0.23180  0.94348  0.70656  1.0000
  C   C460      1.0  0.24010  0.94316  0.73307  1.0000
  H   H545      1.0  0.21117  0.68152  0.65487  1.0000
  Fe  Fe68      1.0  0.21400  0.94543  0.84290  1.0000
  H   H546      1.0  0.21434  0.94261  0.70294  1.0000
  H   H547      1.0  0.13065  0.69366  0.79228  1.0000
  N   N35       1.0  0.24909  0.87366  0.67077  1.0000
  H   H548      1.0  0.18455  0.69825  0.81087  1.0000
  S   S131      1.0  0.23464  0.94653  0.65195  1.0000
  C   C461      1.0  0.26264  0.94434  0.73800  1.0000
  C   C462      1.0  0.21833  0.77811  0.50900  1.0000
  H   H549      1.0  0.13934  0.68783  0.75836  1.0000
  C   C463      1.0  0.18562  0.96931  0.90298  1.0000
  Fe  Fe69      1.0  0.25718  0.92568  0.86609  1.0000
  C   C464      1.0  0.22859  0.80115  0.72988  1.0000
  C   C465      1.0  0.26330  0.80326  0.84395  1.0000
  H   H550      1.0  0.18539  0.96831  0.94624  1.0000
  H   H551      1.0  0.21865  0.79551  0.66268  1.0000
  H   H552      1.0  0.24860  0.87983  0.77921  1.0000
  H   H553      1.0  0.23854  0.68561  0.66626  1.0000
  H   H554      1.0  0.20320  0.99482  0.80680  1.0000
  H   H555      1.0  0.16408  0.00386  0.81546  1.0000
  C   C466      1.0  0.17566  0.97880  0.87992  1.0000
  C   C467      1.0  0.24594  0.94493  0.68480  1.0000
  H   H556      1.0  0.20643  0.78572  0.49390  1.0000
  Fe  Fe70      1.0  0.24540  0.71142  0.87604  1.0000
  C   C468      1.0  0.23338  0.86709  0.74382  1.0000
  C   C469      1.0  0.25106  0.78729  0.48377  1.0000
  H   H557      1.0  0.23839  0.99897  0.47683  1.0000
  H   H558      1.0  0.20297  0.81495  0.70302  1.0000
  C   C470      1.0  0.23970  0.93990  0.96269  1.0000
  H   H559      1.0  0.23382  0.78669  0.83920  1.0000
  H   H560      1.0  0.26166  0.88211  0.53263  1.0000
  C   C471      1.0  0.17923  0.98593  0.70325  1.0000
  C   C472      1.0  0.15046  0.00202  0.90819  1.0000
  H   H561      1.0  0.19670  0.97418  0.78342  1.0000
  H   H562      1.0  0.22743  0.88389  0.63760  1.0000
  H   H563      1.0  0.15765  0.98288  0.79199  1.0000
  H   H564      1.0  0.22232  0.94478  0.96524  1.0000
  H   H565      1.0  0.19586  0.00368  0.64548  1.0000
  H   H566      1.0  0.25269  0.77040  0.66682  1.0000
  C   C473      1.0  0.25138  0.85023  0.66251  1.0000
  C   C474      1.0  0.24613  0.77925  0.68441  1.0000
  H   H567      1.0  0.22807  0.78606  0.78235  1.0000
  C   C475      1.0  0.22692  0.79335  0.68209  1.0000
  C   C476      1.0  0.23617  0.70722  0.94488  1.0000
  H   H568      1.0  0.26262  0.70089  0.76438  1.0000
  H   H569      1.0  0.18900  0.97472  0.69012  1.0000
  C   C477      1.0  0.25465  0.71920  0.70039  1.0000
  C   C478      1.0  0.17284  0.00271  0.74795  1.0000
  C   C479      1.0  0.25041  0.87513  0.92634  1.0000
  C   C480      1.0  0.24809  0.78672  0.73301  1.0000
  H   H570      1.0  0.17850  0.99041  0.50195  1.0000
  H   H571      1.0  0.20546  0.97845  0.56604  1.0000
  Fe  Fe71      1.0  0.25668  0.94147  0.61572  1.0000
  C   C481      1.0  0.23390  0.81202  0.51744  1.0000
  H   H572      1.0  0.22280  0.68356  0.71175  1.0000
  H   H573      1.0  0.24485  0.77762  0.55038  1.0000
  H   H574      1.0  0.22526  0.90161  0.66664  1.0000
  C   C482      1.0  0.22191  0.70851  0.96687  1.0000
  C   C483      1.0  0.24271  0.77436  0.77821  1.0000
  S   S132      1.0  0.25993  0.74977  0.60096  1.0000
  H   H575      1.0  0.19573  0.70249  0.85782  1.0000
  S   S133      1.0  0.15052  0.99981  0.96361  1.0000
  C   C484      1.0  0.18439  0.98972  0.52322  1.0000
  C   C485      1.0  0.14747  0.99584  0.53972  1.0000
  N   N36       1.0  0.16970  0.00386  0.54119  1.0000
  C   C486      1.0  0.25322  0.83573  0.92564  1.0000
  H   H576      1.0  0.23708  0.84150  0.66844  1.0000
  H   H577      1.0  0.24886  0.82055  0.52206  1.0000
  C   C487      1.0  0.25888  0.70721  0.94955  1.0000
  C   C488      1.0  0.20224  0.98984  0.60615  1.0000
  C   C489      1.0  0.19076  0.00376  0.62452  1.0000
  C   C490      1.0  0.16017  0.99227  0.93122  1.0000
  H   H578      1.0  0.23660  0.75917  0.76968  1.0000
  H   H579      1.0  0.15018  0.00247  0.86490  1.0000
  H   H580      1.0  0.25048  0.77014  0.79808  1.0000
  C   C491      1.0  0.25361  0.77794  0.53094  1.0000
  H   H581      1.0  0.20149  0.99476  0.52352  1.0000
  H   H582      1.0  0.14773  0.97914  0.54820  1.0000
  C   C492      1.0  0.22788  0.88415  0.65999  1.0000
  N   N37       1.0  0.25850  0.78336  0.75991  1.0000
  H   H583      1.0  0.25377  0.89104  0.96383  1.0000
  C   C493      1.0  0.17846  0.68739  0.82532  1.0000
  C   C494      1.0  0.25375  0.87519  0.95420  1.0000
  H   H584      1.0  0.15581  0.99644  0.67208  1.0000
  C   C495      1.0  0.25661  0.77586  0.70942  1.0000
  H   H585      1.0  0.25895  0.81981  0.96306  1.0000
  Fe  Fe72      1.0  0.42747  0.10514  0.23229  1.0000
  S   S134      1.0  0.46271  0.11304  0.23864  1.0000
  Fe  Fe73      1.0  0.38023  0.12481  0.22345  1.0000
  S   S135      1.0  0.36654  0.09213  0.22332  1.0000
  S   S136      1.0  0.35722  0.15567  0.22055  1.0000
  Fe  Fe74      1.0  0.38967  0.08473  0.25840  1.0000
  H   H586      1.0  0.34668  0.01939  0.42769  1.0000
  S   S137      1.0  0.40104  0.11835  0.26079  1.0000
  S   S138      1.0  0.40782  0.11499  0.19513  1.0000
  Fe  Fe75      1.0  0.28076  0.26050  0.09402  1.0000
  C   C496      1.0  0.27522  0.02395  0.43922  1.0000
  S   S139      1.0  0.29432  0.29340  0.09077  1.0000
  Fe  Fe76      1.0  0.29387  0.21180  0.10151  1.0000
  H   H587      1.0  0.26873  0.28853  0.34184  1.0000
  S   S140      1.0  0.32014  0.18352  0.10525  1.0000
  H   H588      1.0  0.51251  0.06508  0.04082  1.0000
  H   H589      1.0  0.48740  0.08998  0.16601  1.0000
  C   C497      1.0  0.38343  0.09728  0.33271  1.0000
  H   H590      1.0  0.33917  0.06759  0.12654  1.0000
  S   S141      1.0  0.29119  0.23317  0.06499  1.0000
  S   S142      1.0  0.28725  0.23976  0.13063  1.0000
  H   H591      1.0  0.28517  0.18818  0.36441  1.0000
  C   C498      1.0  0.43913  0.07162  0.31995  1.0000
  H   H592      1.0  0.32756  0.19773  0.02192  1.0000
  H   H593      1.0  0.43882  0.09796  0.09283  1.0000
  H   H594      1.0  0.30467  0.01859  0.11516  1.0000
  C   C499      1.0  0.49658  0.05783  0.20955  1.0000
  H   H595      1.0  0.35160  0.03998  0.15450  1.0000
  C   C500      1.0  0.34017  0.04211  0.39618  1.0000
  H   H596      1.0  0.34479  0.13141  0.04568  1.0000
  H   H597      1.0  0.34280  0.08177  0.04341  1.0000
  C   C501      1.0  0.39721  0.05828  0.10674  1.0000
  H   H598      1.0  0.35606  0.18831  0.02810  1.0000
  H   H599      1.0  0.29849  0.31312  0.33709  1.0000
  H   H600      1.0  0.48055  0.09386  0.41956  1.0000
  C   C502      1.0  0.45181  0.09025  0.36058  1.0000
  C   C503      1.0  0.34180  0.04774  0.05240  1.0000
  C   C504      1.0  0.44697  0.08743  0.30382  1.0000
  H   H601      1.0  0.42796  0.07343  0.40179  1.0000
  H   H602      1.0  0.33679  0.01770  0.16395  1.0000
  C   C505      1.0  0.38406  0.06017  0.34854  1.0000
  H   H603      1.0  0.32663  0.03008  0.33171  1.0000
  H   H604      1.0  0.32179  0.04185  0.15093  1.0000
  H   H605      1.0  0.51250  0.04712  0.44899  1.0000
  H   H606      1.0  0.37480  0.01652  0.12370  1.0000
  H   H607      1.0  0.46277  0.11714  0.30274  1.0000
  H   H608      1.0  0.46727  0.11997  0.35164  1.0000
  H   H609      1.0  0.49445  0.09420  0.13178  1.0000
  H   H610      1.0  0.34321  0.04244  0.03154  1.0000
  C   C506      1.0  0.39107  0.08995  0.07798  1.0000
  H   H611      1.0  0.30593  0.30087  0.20369  1.0000
  H   H612      1.0  0.28988  0.21389  0.22465  1.0000
  C   C507      1.0  0.28418  0.29610  0.99064  1.0000
  H   H613      1.0  0.27943  0.34031  0.16806  1.0000
  C   C508      1.0  0.44970  0.07622  0.06153  1.0000
  H   H614      1.0  0.38324  0.12225  0.36371  1.0000
  C   C509      1.0  0.33041  0.02754  0.35287  1.0000
  Fe  Fe77      1.0  0.39621  0.07881  0.01036  1.0000
  H   H615      1.0  0.48801  0.07785  0.39013  1.0000
  C   C510      1.0  0.34660  0.16294  0.18851  1.0000
  C   C511      1.0  0.33139  0.18144  0.18584  1.0000
  C   C512      1.0  0.32289  0.18773  0.16043  1.0000
  C   C513      1.0  0.32978  0.17567  0.13754  1.0000
  C   C514      1.0  0.34483  0.15704  0.14026  1.0000
  C   C515      1.0  0.35315  0.15063  0.16570  1.0000
  H   H616      1.0  0.32627  0.19103  0.20343  1.0000
  H   H617      1.0  0.31128  0.20206  0.15856  1.0000
  H   H618      1.0  0.35018  0.14760  0.12265  1.0000
  H   H619      1.0  0.36480  0.13633  0.16763  1.0000
  C   C516      1.0  0.38780  0.09404  0.12656  1.0000
  C   C517      1.0  0.38701  0.10326  0.10083  1.0000
  H   H620      1.0  0.38422  0.10434  0.14401  1.0000
  H   H621      1.0  0.38292  0.12069  0.09864  1.0000
  S   S143      1.0  0.41752  0.07099  0.23234  1.0000
  H   H622      1.0  0.38306  0.10871  0.31637  1.0000
  S   S144      1.0  0.38920  0.10172  0.04584  1.0000
  C   C518      1.0  0.34768  0.14898  0.04802  1.0000
  H   H623      1.0  0.43938  0.05779  0.14537  1.0000
  H   H624      1.0  0.46705  0.04701  0.15350  1.0000
  H   H625      1.0  0.27140  0.33472  0.42466  1.0000
  C   C519      1.0  0.45564  0.06225  0.15314  1.0000
  H   H626      1.0  0.43454  0.06031  0.35912  1.0000
  H   H627      1.0  0.40131  0.04087  0.10885  1.0000
  C   C520      1.0  0.26967  0.21753  0.99059  1.0000
  C   C521      1.0  0.32611  0.16839  0.97941  1.0000
  H   H628      1.0  0.33677  0.19082  0.05504  1.0000
  H   H629      1.0  0.34022  0.09381  0.09094  1.0000
  S   S145      1.0  0.26989  0.21201  0.27645  1.0000
  H   H630      1.0  0.48527  0.10724  0.38925  1.0000
  S   S146      1.0  0.40702  0.04340  0.44494  1.0000
  H   H631      1.0  0.30591  0.14416  0.02968  1.0000
  S   S147      1.0  0.46874  0.04601  0.46939  1.0000
  C   C522      1.0  0.47695  0.05352  0.09939  1.0000
  Fe  Fe78      1.0  0.39166  0.07785  0.44892  1.0000
  C   C523      1.0  0.33997  0.07661  0.08582  1.0000
  C   C524      1.0  0.33968  0.03849  0.10013  1.0000
  H   H632      1.0  0.43229  0.09847  0.13788  1.0000
  C   C525      1.0  0.34161  0.02109  0.40689  1.0000
  S   S148      1.0  0.38254  0.10041  0.41410  1.0000
  C   C526      1.0  0.44141  0.07291  0.34792  1.0000
  H   H633      1.0  0.45527  0.11398  0.13013  1.0000
  H   H634      1.0  0.39906  0.05698  0.06376  1.0000
  H   H635      1.0  0.27588  0.17183  0.14999  1.0000
  H   H636      1.0  0.49786  0.06733  0.14608  1.0000
  C   C527      1.0  0.38463  0.06775  0.37529  1.0000
  C   C528      1.0  0.44996  0.08370  0.08820  1.0000
  C   C529      1.0  0.48356  0.09423  0.22567  1.0000
  H   H637      1.0  0.28818  0.28652  0.16284  1.0000
  H   H638      1.0  0.38509  0.05626  0.39155  1.0000
  C   C530      1.0  0.34143  0.06987  0.05902  1.0000
  C   C531      1.0  0.39291  0.07150  0.12953  1.0000
  C   C532      1.0  0.38384  0.09017  0.38083  1.0000
  S   S149      1.0  0.39391  0.05926  0.16132  1.0000
  C   C533      1.0  0.45005  0.10025  0.14210  1.0000
  C   C534      1.0  0.47965  0.07258  0.21984  1.0000
  H   H639      1.0  0.44491  0.08647  0.28218  1.0000
  C   C535      1.0  0.39617  0.06745  0.08108  1.0000
  C   C536      1.0  0.38328  0.07489  0.32718  1.0000
  C   C537      1.0  0.45954  0.10614  0.34348  1.0000
  C   C538      1.0  0.27392  0.28588  0.01117  1.0000
  H   H640      1.0  0.48738  0.04395  0.11348  1.0000
  C   C539      1.0  0.29253  0.02315  0.45813  1.0000
  S   S150      1.0  0.38127  0.06471  0.29403  1.0000
  C   C540      1.0  0.50460  0.10096  0.22156  1.0000
  N   N38       1.0  0.45437  0.09232  0.39013  1.0000
  C   C541      1.0  0.44207  0.11294  0.39958  1.0000
  C   C542      1.0  0.44601  0.07409  0.40510  1.0000
  C   C543      1.0  0.27467  0.28857  0.45380  1.0000
  H   H641      1.0  0.44260  0.11455  0.42191  1.0000
  C   C544      1.0  0.33934  0.06124  0.10620  1.0000
  H   H642      1.0  0.49344  0.04110  0.20504  1.0000
  H   H643      1.0  0.44844  0.07603  0.42719  1.0000
  H   H644      1.0  0.45483  0.05800  0.39952  1.0000
  H   H645      1.0  0.42435  0.11357  0.39338  1.0000
  Fe  Fe79      1.0  0.39559  0.08174  0.19739  1.0000
  H   H646      1.0  0.38406  0.04282  0.34437  1.0000
  C   C545      1.0  0.47805  0.09285  0.39744  1.0000
  H   H647      1.0  0.46367  0.06707  0.22348  1.0000
  H   H648      1.0  0.30694  0.16401  0.05641  1.0000
  C   C546      1.0  0.47647  0.04614  0.07268  1.0000
  H   H649      1.0  0.44877  0.12769  0.39153  1.0000
  C   C547      1.0  0.38351  0.10489  0.35949  1.0000
  N   N39       1.0  0.33147  0.15957  0.29526  1.0000
  C   C548      1.0  0.31792  0.17423  0.27663  1.0000
  C   C549      1.0  0.35437  0.16601  0.29508  1.0000
  C   C550      1.0  0.33144  0.13689  0.28449  1.0000
  C   C551      1.0  0.32341  0.16067  0.32319  1.0000
  C   C552      1.0  0.33424  0.14715  0.34321  1.0000
  C   C553      1.0  0.30535  0.17545  0.33161  1.0000
  C   C554      1.0  0.32761  0.14849  0.37000  1.0000
  C   C555      1.0  0.29884  0.17662  0.35841  1.0000
  C   C556      1.0  0.30995  0.16329  0.37759  1.0000
  H   H650      1.0  0.32413  0.17287  0.25572  1.0000
  H   H651      1.0  0.30046  0.17022  0.27562  1.0000
  H   H652      1.0  0.31815  0.19177  0.28254  1.0000
  H   H653      1.0  0.36079  0.16649  0.27433  1.0000
  H   H654      1.0  0.36614  0.15440  0.30627  1.0000
  H   H655      1.0  0.35521  0.18259  0.30415  1.0000
  H   H656      1.0  0.31474  0.13102  0.28579  1.0000
  H   H657      1.0  0.33631  0.13576  0.26301  1.0000
  H   H658      1.0  0.34330  0.12506  0.29522  1.0000
  H   H659      1.0  0.34814  0.13561  0.33832  1.0000
  H   H660      1.0  0.29604  0.18646  0.31798  1.0000
  H   H661      1.0  0.33637  0.13816  0.38496  1.0000
  C   C557      1.0  0.33723  0.03079  0.14876  1.0000
  H   H662      1.0  0.30488  0.16462  0.39838  1.0000
  S   S151      1.0  0.41085  0.04388  0.01246  1.0000
  Fe  Fe80      1.0  0.38528  0.03769  0.98085  1.0000
  C   C558      1.0  0.34076  0.03230  0.07257  1.0000
  C   C559      1.0  0.45711  0.10469  0.31553  1.0000
  N   N40       1.0  0.33402  0.16292  0.02871  1.0000
  C   C560      1.0  0.33879  0.18592  0.03356  1.0000
  C   C561      1.0  0.31048  0.16087  0.03475  1.0000
  C   C562      1.0  0.28932  0.29595  0.20472  1.0000
  C   C563      1.0  0.33835  0.15699  0.00023  1.0000
  H   H663      1.0  0.27468  0.28256  0.28134  1.0000
  C   C564      1.0  0.26458  0.30595  0.34036  1.0000
  H   H664      1.0  0.46418  0.09128  0.97523  1.0000
  H   H665      1.0  0.29900  0.30405  0.99513  1.0000
  C   C565      1.0  0.50708  0.06340  0.45629  1.0000
  H   H666      1.0  0.33430  0.06153  0.36073  1.0000
  H   H667      1.0  0.28989  0.21508  0.45977  1.0000
  C   C566      1.0  0.46370  0.07255  0.10798  1.0000
  H   H668      1.0  0.28864  0.16639  0.19689  1.0000
  H   H669      1.0  0.28660  0.30330  0.24652  1.0000
  C   C567      1.0  0.28144  0.31993  0.33764  1.0000
  C   C568      1.0  0.33467  0.04531  0.36920  1.0000
  H   H670      1.0  0.34387  0.15365  0.06925  1.0000
  C   C569      1.0  0.48688  0.08285  0.14535  1.0000
  C   C570      1.0  0.48606  0.06751  0.46757  1.0000
  H   H671      1.0  0.46225  0.05156  0.03319  1.0000
  C   C571      1.0  0.28423  0.33752  0.08612  1.0000
  H   H672      1.0  0.43873  0.08475  0.04691  1.0000
  C   C572      1.0  0.27224  0.21756  0.22205  1.0000
  H   H673      1.0  0.27803  0.03094  0.41992  1.0000
  H   H674      1.0  0.36563  0.15054  0.04570  1.0000
  C   C573      1.0  0.46288  0.05750  0.05379  1.0000
  C   C574      1.0  0.27814  0.29721  0.22913  1.0000
  S   S152      1.0  0.36956  0.07240  0.98048  1.0000
  H   H675      1.0  0.45319  0.06765  0.17438  1.0000
  H   H676      1.0  0.48630  0.03128  0.06666  1.0000
  H   H677      1.0  0.29900  0.17281  0.02363  1.0000
  H   H678      1.0  0.51306  0.07240  0.26686  1.0000
  N   N41       1.0  0.46398  0.07952  0.13658  1.0000
  S   S153      1.0  0.26697  0.21177  0.40942  1.0000
  S   S154      1.0  0.41903  0.08811  0.97850  1.0000
  H   H679      1.0  0.45110  0.10534  0.16365  1.0000
  H   H680      1.0  0.27408  0.22151  0.17926  1.0000
  H   H681      1.0  0.30797  0.02968  0.45345  1.0000
  H   H682      1.0  0.36522  0.13087  0.00647  1.0000
  H   H683      1.0  0.34406  0.05592  0.40868  1.0000
  C   C575      1.0  0.27941  0.28781  0.18172  1.0000
  H   H684      1.0  0.28060  0.28602  0.03153  1.0000
  C   C576      1.0  0.27115  0.16725  0.19207  1.0000
  C   C577      1.0  0.27585  0.31724  0.08940  1.0000
  C   C578      1.0  0.35499  0.14046  0.99223  1.0000
  H   H685      1.0  0.43072  0.05852  0.31070  1.0000
  H   H686      1.0  0.31325  0.18119  0.98398  1.0000
  C   C579      1.0  0.26824  0.28561  0.42698  1.0000
  H   H687      1.0  0.28060  0.21962  0.00754  1.0000
  Fe  Fe81      1.0  0.43194  0.05287  0.97819  1.0000
  H   H688      1.0  0.50776  0.11770  0.22602  1.0000
  C   C580      1.0  0.27242  0.21615  0.46391  1.0000
  H   H689      1.0  0.30185  0.33827  0.08443  1.0000
  S   S155      1.0  0.36045  0.01208  0.98054  1.0000
  H   H690      1.0  0.50225  0.09545  0.28598  1.0000
  S   S156      1.0  0.46885  0.04340  0.97542  1.0000
  H   H691      1.0  0.50591  0.06894  0.30123  1.0000
  H   H692      1.0  0.29034  0.29505  0.45757  1.0000
  H   H693      1.0  0.34112  0.01537  0.06641  1.0000
  N   N42       1.0  0.33940  0.02160  0.12106  1.0000
  H   H694      1.0  0.26449  0.34242  0.01499  1.0000
  H   H695      1.0  0.27888  0.28954  0.41081  1.0000
  H   H696      1.0  0.51367  0.13412  0.36372  1.0000
  C   C581      1.0  0.27639  0.34264  0.33575  1.0000
  C   C582      1.0  0.51337  0.08006  0.28725  1.0000
  H   H697      1.0  0.51302  0.12028  0.31735  1.0000
  H   H698      1.0  0.29652  0.15134  0.47039  1.0000
  Fe  Fe82      1.0  0.42855  0.10509  0.73061  1.0000
  S   S157      1.0  0.46294  0.11534  0.73692  1.0000
  Fe  Fe83      1.0  0.38068  0.12275  0.72082  1.0000
  S   S158      1.0  0.36863  0.08936  0.72198  1.0000
  S   S159      1.0  0.35566  0.15218  0.71725  1.0000
  Fe  Fe84      1.0  0.39169  0.08368  0.75741  1.0000
  H   H699      1.0  0.30693  0.14679  0.89951  1.0000
  S   S160      1.0  0.40149  0.11795  0.75844  1.0000
  S   S161      1.0  0.40876  0.11322  0.69305  1.0000
  Fe  Fe85      1.0  0.28050  0.26034  0.59232  1.0000
  H   H700      1.0  0.33088  0.01619  0.61499  1.0000
  S   S162      1.0  0.29227  0.29351  0.58499  1.0000
  Fe  Fe86      1.0  0.29609  0.21230  0.59965  1.0000
  H   H701      1.0  0.48702  0.07589  0.91541  1.0000
  S   S163      1.0  0.32461  0.18617  0.60181  1.0000
  C   C583      1.0  0.49319  0.10552  0.47463  1.0000
  H   H702      1.0  0.31366  0.14672  0.75593  1.0000
  S   S164      1.0  0.40795  0.04291  0.94636  1.0000
  H   H703      1.0  0.50754  0.12348  0.72738  1.0000
  S   S165      1.0  0.29037  0.23315  0.56299  1.0000
  S   S166      1.0  0.28972  0.24027  0.62886  1.0000
  H   H704      1.0  0.43298  0.10289  0.63254  1.0000
  C   C584      1.0  0.39671  0.05463  0.60672  1.0000
  H   H705      1.0  0.36017  0.02870  0.64048  1.0000
  H   H706      1.0  0.29025  0.16347  0.69857  1.0000
  C   C585      1.0  0.31197  0.14101  0.50801  1.0000
  H   H707      1.0  0.46734  0.06990  0.71872  1.0000
  H   H708      1.0  0.27684  0.27844  0.78325  1.0000
  C   C586      1.0  0.28335  0.31525  0.83747  1.0000
  C   C587      1.0  0.27825  0.21455  0.96455  1.0000
  H   H709      1.0  0.29660  0.16046  0.78074  1.0000
  H   H710      1.0  0.47033  0.11366  0.80412  1.0000
  C   C588      1.0  0.29542  0.15196  0.49210  1.0000
  H   H711      1.0  0.30043  0.30924  0.83445  1.0000
  S   S167      1.0  0.27661  0.20657  0.77613  1.0000
  H   H712      1.0  0.27717  0.21790  0.50694  1.0000
  C   C589      1.0  0.45063  0.10504  0.63702  1.0000
  H   H713      1.0  0.28761  0.30156  0.74984  1.0000
  S   S168      1.0  0.36905  0.07053  0.48222  1.0000
  C   C590      1.0  0.45144  0.08669  0.58394  1.0000
  H   H714      1.0  0.45407  0.07321  0.67084  1.0000
  C   C591      1.0  0.33036  0.16369  0.95232  1.0000
  H   H715      1.0  0.46339  0.09196  0.48621  1.0000
  C   C592      1.0  0.47927  0.08862  0.47694  1.0000
  C   C593      1.0  0.27760  0.16406  0.50405  1.0000
  H   H716      1.0  0.51347  0.06055  0.79592  1.0000
  S   S169      1.0  0.41292  0.04291  0.51066  1.0000
  H   H717      1.0  0.28369  0.31590  0.49607  1.0000
  C   C594      1.0  0.35313  0.02357  0.65968  1.0000
  S   S170      1.0  0.38874  0.10050  0.91283  1.0000
  C   C595      1.0  0.46532  0.07658  0.60437  1.0000
  H   H718      1.0  0.29561  0.21192  0.72427  1.0000
  H   H719      1.0  0.46601  0.05386  0.53018  1.0000
  H   H720      1.0  0.29165  0.15760  0.56944  1.0000
  C   C596      1.0  0.39223  0.08676  0.57854  1.0000
  S   S171      1.0  0.39177  0.09921  0.54688  1.0000
  Fe  Fe87      1.0  0.39811  0.07937  0.69670  1.0000
  H   H721      1.0  0.48756  0.09565  0.66261  1.0000
  H   H722      1.0  0.35039  0.14384  0.92422  1.0000
  C   C597      1.0  0.34722  0.16127  0.68497  1.0000
  C   C598      1.0  0.33096  0.17892  0.68258  1.0000
  C   C599      1.0  0.32378  0.18654  0.65717  1.0000
  C   C600      1.0  0.33311  0.17678  0.63397  1.0000
  C   C601      1.0  0.34942  0.15913  0.63632  1.0000
  C   C602      1.0  0.35636  0.15129  0.66176  1.0000
  H   H723      1.0  0.32395  0.18679  0.70046  1.0000
  H   H724      1.0  0.31125  0.20015  0.65559  1.0000
  H   H725      1.0  0.35683  0.15160  0.61847  1.0000
  H   H726      1.0  0.36893  0.13771  0.66342  1.0000
  C   C603      1.0  0.38974  0.09051  0.62716  1.0000
  C   C604      1.0  0.38909  0.09995  0.60163  1.0000
  H   H727      1.0  0.38705  0.10081  0.64476  1.0000
  H   H728      1.0  0.38633  0.11753  0.59987  1.0000
  C   C605      1.0  0.26629  0.16836  0.66651  1.0000
  H   H729      1.0  0.28440  0.30353  0.94901  1.0000
  S   S172      1.0  0.39652  0.05583  0.66168  1.0000
  N   N43       1.0  0.32852  0.12970  0.55299  1.0000
  C   C606      1.0  0.33468  0.10741  0.54174  1.0000
  C   C607      1.0  0.34815  0.14225  0.55301  1.0000
  C   C608      1.0  0.32204  0.12688  0.58131  1.0000
  C   C609      1.0  0.31090  0.14152  0.53650  1.0000
  H   H730      1.0  0.29055  0.28697  0.66565  1.0000
  H   H731      1.0  0.48774  0.12182  0.48185  1.0000
  H   H732      1.0  0.37798  0.04403  0.84400  1.0000
  H   H733      1.0  0.34432  0.10766  0.52299  1.0000
  C   C610      1.0  0.27922  0.33703  0.57977  1.0000
  H   H734      1.0  0.34565  0.09719  0.55568  1.0000
  H   H735      1.0  0.31982  0.09858  0.53759  1.0000
  H   H736      1.0  0.35510  0.14319  0.53258  1.0000
  H   H737      1.0  0.36159  0.13470  0.56619  1.0000
  H   H738      1.0  0.34405  0.15933  0.56037  1.0000
  H   H739      1.0  0.30647  0.11883  0.58240  1.0000
  H   H740      1.0  0.33505  0.11686  0.59290  1.0000
  H   H741      1.0  0.31992  0.14268  0.59245  1.0000
  H   H742      1.0  0.43044  0.05991  0.80493  1.0000
  C   C611      1.0  0.26740  0.30034  0.84045  1.0000
  H   H743      1.0  0.39799  0.05370  0.56353  1.0000
  H   H744      1.0  0.33552  0.11902  0.88179  1.0000
  C   C612      1.0  0.48090  0.08558  0.97022  1.0000
  C   C613      1.0  0.27961  0.29548  0.73209  1.0000
  H   H745      1.0  0.31178  0.02721  0.63986  1.0000
  H   H746      1.0  0.39434  0.12042  0.86211  1.0000
  H   H747      1.0  0.49088  0.06329  0.88303  1.0000
  C   C614      1.0  0.29305  0.15494  0.54803  1.0000
  H   H748      1.0  0.30716  0.30131  0.70729  1.0000
  C   C615      1.0  0.38766  0.08993  0.87978  1.0000
  H   H749      1.0  0.28925  0.17520  0.86967  1.0000
  H   H750      1.0  0.48984  0.04888  0.61131  1.0000
  C   C616      1.0  0.38335  0.06829  0.87460  1.0000
  C   C617      1.0  0.48524  0.09830  0.72409  1.0000
  C   C618      1.0  0.29039  0.27331  0.50826  1.0000
  S   S173      1.0  0.42026  0.07036  0.73213  1.0000
  Fe  Fe88      1.0  0.39689  0.07735  0.51030  1.0000
  H   H751      1.0  0.38081  0.05758  0.89110  1.0000
  N   N44       1.0  0.45973  0.08255  0.88767  1.0000
  C   C619      1.0  0.44848  0.06496  0.90042  1.0000
  C   C620      1.0  0.48371  0.07833  0.89362  1.0000
  C   C621      1.0  0.45130  0.10357  0.90056  1.0000
  C   C622      1.0  0.45615  0.08382  0.85821  1.0000
  C   C623      1.0  0.44323  0.06942  0.84358  1.0000
  C   C624      1.0  0.46599  0.09975  0.84317  1.0000
  C   C625      1.0  0.44063  0.07086  0.81567  1.0000
  C   C626      1.0  0.46308  0.10115  0.81529  1.0000
  C   C627      1.0  0.45046  0.08669  0.80160  1.0000
  C   C628      1.0  0.39393  0.06787  0.62980  1.0000
  H   H752      1.0  0.45160  0.06440  0.92255  1.0000
  H   H753      1.0  0.43022  0.06761  0.89767  1.0000
  H   H754      1.0  0.39248  0.10657  0.81516  1.0000
  H   H755      1.0  0.45442  0.04849  0.89238  1.0000
  C   C629      1.0  0.50576  0.10664  0.72174  1.0000
  H   H756      1.0  0.43354  0.10778  0.89536  1.0000
  H   H757      1.0  0.45265  0.10283  0.92288  1.0000
  H   H758      1.0  0.46046  0.11745  0.89445  1.0000
  H   H759      1.0  0.43462  0.05712  0.85318  1.0000
  S   S174      1.0  0.27558  0.20737  0.91012  1.0000
  Fe  Fe89      1.0  0.38622  0.03648  0.48050  1.0000
  H   H760      1.0  0.49954  0.04639  0.70133  1.0000
  H   H761      1.0  0.44804  0.08795  0.78004  1.0000
  C   C630      1.0  0.35908  0.13587  0.96510  1.0000
  H   H762      1.0  0.44025  0.06287  0.64203  1.0000
  N   N45       1.0  0.46493  0.08434  0.63271  1.0000
  C   C631      1.0  0.45651  0.06741  0.64972  1.0000
  C   C632      1.0  0.27660  0.16585  0.53191  1.0000
  C   C633      1.0  0.38968  0.09594  0.83158  1.0000
  C   C634      1.0  0.26836  0.22007  0.69681  1.0000
  H   H763      1.0  0.30192  0.13118  0.78168  1.0000
  S   S175      1.0  0.38202  0.06444  0.79317  1.0000
  H   H764      1.0  0.29581  0.21445  0.96155  1.0000
  H   H765      1.0  0.27636  0.31235  0.53005  1.0000
  Fe  Fe90      1.0  0.39399  0.07796  0.94849  1.0000
  H   H766      1.0  0.39988  0.03708  0.60861  1.0000
  C   C635      1.0  0.48302  0.07657  0.71660  1.0000
  C   C636      1.0  0.39087  0.10370  0.85821  1.0000
  H   H767      1.0  0.32579  0.13242  0.49778  1.0000
  C   C637      1.0  0.39578  0.06405  0.58114  1.0000
  C   C638      1.0  0.47934  0.05779  0.59670  1.0000
  H   H768      1.0  0.49010  0.03515  0.56492  1.0000
  H   H769      1.0  0.47585  0.11137  0.85295  1.0000
  C   C639      1.0  0.38474  0.07449  0.82634  1.0000
  H   H770      1.0  0.34389  0.03827  0.66883  1.0000
  C   C640      1.0  0.50959  0.05616  0.96353  1.0000
  C   C641      1.0  0.29092  0.29545  0.70783  1.0000
  H   H771      1.0  0.43970  0.10065  0.58782  1.0000
  Fe  Fe91      1.0  0.43192  0.05362  0.47546  1.0000
  H   H772      1.0  0.49518  0.09951  0.62842  1.0000
  H   H773      1.0  0.36765  0.01898  0.67292  1.0000
  C   C642      1.0  0.27311  0.31669  0.58782  1.0000
  H   H774      1.0  0.49880  0.07291  0.64339  1.0000
  C   C643      1.0  0.27787  0.21478  0.72211  1.0000
  C   C644      1.0  0.34688  0.14746  0.94518  1.0000
  C   C645      1.0  0.47961  0.04978  0.57023  1.0000
  C   C646      1.0  0.48757  0.08823  0.64206  1.0000
  S   S176      1.0  0.41766  0.08843  0.47730  1.0000
  H   H775      1.0  0.32086  0.17283  0.93685  1.0000
  H   H776      1.0  0.45582  0.11845  0.62446  1.0000
  H   H777      1.0  0.29898  0.17612  0.82237  1.0000
  C   C647      1.0  0.45193  0.07859  0.55752  1.0000
  C   C648      1.0  0.46599  0.06022  0.55065  1.0000
  H   H778      1.0  0.46786  0.05215  0.65041  1.0000
  H   H779      1.0  0.44096  0.08640  0.54237  1.0000
  C   C649      1.0  0.50128  0.06328  0.70681  1.0000
  H   H780      1.0  0.30372  0.27915  0.49608  1.0000
  H   H781      1.0  0.49317  0.09211  0.88784  1.0000
  N   N46       1.0  0.32929  0.14852  0.79499  1.0000
  C   C650      1.0  0.30948  0.14660  0.77767  1.0000
  C   C651      1.0  0.33801  0.16979  0.78960  1.0000
  C   C652      1.0  0.34631  0.13084  0.78679  1.0000
  C   C653      1.0  0.32334  0.14761  0.82366  1.0000
  C   C654      1.0  0.33338  0.13156  0.84152  1.0000
  C   C655      1.0  0.30724  0.16333  0.83464  1.0000
  C   C656      1.0  0.32754  0.13138  0.86857  1.0000
  C   C657      1.0  0.30152  0.16296  0.86170  1.0000
  C   C658      1.0  0.31157  0.14700  0.87860  1.0000
  H   H782      1.0  0.27879  0.22102  0.67963  1.0000
  H   H783      1.0  0.45124  0.11083  0.65833  1.0000
  C   C659      1.0  0.38169  0.06068  0.84793  1.0000
  H   H784      1.0  0.32532  0.18390  0.79233  1.0000
  H   H785      1.0  0.34365  0.17069  0.76849  1.0000
  H   H786      1.0  0.35230  0.17246  0.80306  1.0000
  H   H787      1.0  0.34076  0.11429  0.78988  1.0000
  H   H788      1.0  0.35015  0.13163  0.76512  1.0000
  H   H789      1.0  0.36216  0.13212  0.79787  1.0000
  H   H790      1.0  0.34584  0.11893  0.83520  1.0000
  H   H791      1.0  0.28403  0.34111  0.66747  1.0000
  C   C660      1.0  0.32256  0.01235  0.63389  1.0000
  C   C661      1.0  0.28164  0.28736  0.68440  1.0000
  C   C662      1.0  0.26440  0.27280  0.91221  1.0000
  C   C663      1.0  0.27737  0.33790  0.83834  1.0000
  H   H792      1.0  0.28952  0.25566  0.50337  1.0000
  H   H793      1.0  0.29596  0.27454  0.52964  1.0000
  C   C664      1.0  0.27569  0.29568  0.96435  1.0000
  C   C665      1.0  0.29017  0.01381  0.48311  1.0000
  H   H794      1.0  0.29565  0.33828  0.57228  1.0000
  H   H795      1.0  0.28008  0.28066  0.91153  1.0000
  C   C666      1.0  0.27288  0.16463  0.69307  1.0000
  H   H796      1.0  0.37161  0.01807  0.53598  1.0000
  H   H797      1.0  0.27866  0.17015  0.65144  1.0000
  H   H798      1.0  0.34872  0.01225  0.83821  1.0000
  H   H799      1.0  0.37195  0.12329  0.95950  1.0000
  H   H800      1.0  0.27232  0.28301  0.83974  1.0000
  H   H801      1.0  0.33003  0.01762  0.92585  1.0000
  C   C667      1.0  0.26524  0.21790  0.49064  1.0000
  H   H802      1.0  0.51146  0.08650  0.77929  1.0000
  N   N47       1.0  0.26870  0.28595  0.50355  1.0000
  C   C668      1.0  0.26449  0.21315  0.74452  1.0000
  S   S177      1.0  0.26629  0.23718  0.84405  1.0000
  C   C669      1.0  0.27107  0.30946  0.50888  1.0000
  C   C670      1.0  0.26419  0.21185  0.94236  1.0000
  H   H803      1.0  0.26849  0.25571  0.91919  1.0000
  H   H804      1.0  0.30163  0.01195  0.92184  1.0000
  C   C671      1.0  0.49598  0.10082  0.96445  1.0000
  H   H805      1.0  0.49063  0.11814  0.96497  1.0000
  C   C672      1.0  0.48756  0.06314  0.96954  1.0000
  H   H806      1.0  0.30364  0.01312  0.49769  1.0000
  H   H807      1.0  0.26476  0.17249  0.49168  1.0000
  Fe  Fe92      1.0  0.26968  0.44213  0.05512  1.0000
  Fe  Fe93      1.0  0.41986  0.60266  0.20722  1.0000
  S   S178      1.0  0.41297  0.56746  0.20496  1.0000
  S   S179      1.0  0.45360  0.61476  0.20420  1.0000
  Fe  Fe94      1.0  0.37193  0.61822  0.21821  1.0000
  S   S180      1.0  0.36124  0.58423  0.21570  1.0000
  H   H808      1.0  0.29282  0.49661  0.41732  1.0000
  Fe  Fe95      1.0  0.39162  0.57543  0.24082  1.0000
  S   S181      1.0  0.39210  0.55221  0.27580  1.0000
  Fe  Fe96      1.0  0.38343  0.57970  0.17989  1.0000
  S   S182      1.0  0.37511  0.55980  0.14287  1.0000
  S   S183      1.0  0.40111  0.60971  0.24527  1.0000
  S   S184      1.0  0.39152  0.61461  0.18011  1.0000
  Fe  Fe97      1.0  0.29179  0.39655  0.33586  1.0000
  H   H809      1.0  0.44255  0.60111  0.39485  1.0000
  Fe  Fe98      1.0  0.31215  0.44001  0.34496  1.0000
  S   S185      1.0  0.42196  0.58518  0.46161  1.0000
  S   S186      1.0  0.34229  0.45886  0.34809  1.0000
  H   H810      1.0  0.47096  0.55795  0.38615  1.0000
  H   H811      1.0  0.32818  0.45992  0.29230  1.0000
  C   C673      1.0  0.31552  0.64912  0.44763  1.0000
  C   C674      1.0  0.35458  0.67037  0.40671  1.0000
  S   S187      1.0  0.30170  0.41471  0.37304  1.0000
  S   S188      1.0  0.30603  0.41985  0.30779  1.0000
  H   H812      1.0  0.36008  0.63257  0.37711  1.0000
  C   C675      1.0  0.35070  0.66001  0.30471  1.0000
  C   C676      1.0  0.26671  0.38084  0.46708  1.0000
  C   C677      1.0  0.50617  0.54936  0.28608  1.0000
  N   N48       1.0  0.27093  0.37535  0.17213  1.0000
  H   H813      1.0  0.32826  0.45784  0.25642  1.0000
  Fe  Fe99      1.0  0.40032  0.57435  0.42810  1.0000
  S   S189      1.0  0.39564  0.59596  0.39179  1.0000
  Fe  Fe100     1.0  0.39446  0.57432  0.98873  1.0000
  S   S190      1.0  0.38331  0.59587  0.02444  1.0000
  S   S191      1.0  0.41561  0.53969  0.42737  1.0000
  S   S192      1.0  0.41137  0.54023  0.99020  1.0000
  S   S193      1.0  0.37281  0.56832  0.45572  1.0000
  H   H814      1.0  0.33510  0.64141  0.05580  1.0000
  H   H815      1.0  0.37279  0.51591  0.04351  1.0000
  H   H816      1.0  0.37142  0.66722  0.39824  1.0000
  C   C678      1.0  0.26994  0.35683  0.08499  1.0000
  S   S194      1.0  0.29218  0.44328  0.01965  1.0000
  H   H817      1.0  0.48478  0.62253  0.40998  1.0000
  C   C679      1.0  0.32173  0.65501  0.42145  1.0000
  C   C680      1.0  0.51288  0.56345  0.20782  1.0000
  H   H818      1.0  0.44708  0.57695  0.31454  1.0000
  H   H819      1.0  0.30659  0.51413  0.45834  1.0000
  C   C681      1.0  0.47432  0.56929  0.40300  1.0000
  H   H820      1.0  0.47580  0.54319  0.24592  1.0000
  H   H821      1.0  0.30620  0.44227  0.46823  1.0000
  C   C682      1.0  0.27863  0.66697  0.44110  1.0000
  C   C683      1.0  0.28847  0.36197  0.24432  1.0000
  C   C684      1.0  0.49504  0.59733  0.34784  1.0000
  H   H822      1.0  0.31954  0.47946  0.13275  1.0000
  H   H823      1.0  0.35627  0.52294  0.18060  1.0000
  H   H824      1.0  0.29011  0.44127  0.42220  1.0000
  H   H825      1.0  0.49920  0.61818  0.21620  1.0000
  H   H826      1.0  0.30791  0.67229  0.04241  1.0000
  H   H827      1.0  0.28489  0.37419  0.02025  1.0000
  C   C685      1.0  0.51365  0.59646  0.33150  1.0000
  C   C686      1.0  0.29436  0.43831  0.20781  1.0000
  C   C687      1.0  0.49726  0.60124  0.21123  1.0000
  C   C688      1.0  0.27372  0.37695  0.41050  1.0000
  H   H828      1.0  0.33219  0.50050  0.99339  1.0000
  H   H829      1.0  0.31129  0.43189  0.20450  1.0000
  H   H830      1.0  0.29670  0.43455  0.25088  1.0000
  C   C689      1.0  0.34801  0.47279  0.37837  1.0000
  C   C690      1.0  0.33691  0.46917  0.40206  1.0000
  C   C691      1.0  0.34253  0.47980  0.42611  1.0000
  C   C692      1.0  0.35905  0.49436  0.42658  1.0000
  C   C693      1.0  0.36973  0.49838  0.40274  1.0000
  C   C694      1.0  0.36432  0.48752  0.37878  1.0000
  H   H831      1.0  0.32437  0.45780  0.40197  1.0000
  H   H832      1.0  0.33416  0.47652  0.44437  1.0000
  H   H833      1.0  0.38244  0.50955  0.40279  1.0000
  H   H834      1.0  0.37297  0.49043  0.36055  1.0000
  C   C695      1.0  0.39341  0.58337  0.35994  1.0000
  C   C696      1.0  0.38945  0.59655  0.33732  1.0000
  C   C697      1.0  0.38819  0.58708  0.31158  1.0000
  C   C698      1.0  0.39121  0.56436  0.30817  1.0000
  C   C699      1.0  0.39488  0.55113  0.33084  1.0000
  C   C700      1.0  0.39592  0.56060  0.35667  1.0000
  H   H835      1.0  0.38725  0.61417  0.33963  1.0000
  H   H836      1.0  0.38473  0.59743  0.29444  1.0000
  H   H837      1.0  0.39711  0.53352  0.32842  1.0000
  H   H838      1.0  0.39866  0.55024  0.37395  1.0000
  C   C701      1.0  0.37896  0.57006  0.11034  1.0000
  C   C702      1.0  0.38232  0.55535  0.08857  1.0000
  C   C703      1.0  0.38433  0.56304  0.06227  1.0000
  C   C704      1.0  0.38249  0.58552  0.05742  1.0000
  C   C705      1.0  0.37925  0.60023  0.07920  1.0000
  C   C706      1.0  0.37771  0.59256  0.10558  1.0000
  H   H839      1.0  0.38365  0.53796  0.09216  1.0000
  H   H840      1.0  0.38718  0.55166  0.04569  1.0000
  H   H841      1.0  0.37801  0.61764  0.07562  1.0000
  H   H842      1.0  0.37517  0.60402  0.12215  1.0000
  H   H843      1.0  0.34400  0.63486  0.10309  1.0000
  C   C707      1.0  0.47643  0.59505  0.20372  1.0000
  C   C708      1.0  0.51202  0.55935  0.46552  1.0000
  H   H844      1.0  0.28955  0.36963  0.41940  1.0000
  C   C709      1.0  0.48488  0.55246  0.29765  1.0000
  C   C710      1.0  0.49223  0.55741  0.19931  1.0000
  C   C711      1.0  0.47401  0.57314  0.19742  1.0000
  H   H845      1.0  0.48886  0.56177  0.41439  1.0000
  C   C712      1.0  0.48187  0.60578  0.41649  1.0000
  H   H846      1.0  0.49024  0.54045  0.19449  1.0000
  H   H847      1.0  0.45815  0.56830  0.19099  1.0000
  S   S195      1.0  0.29806  0.35961  0.33247  1.0000
  H   H848      1.0  0.36958  0.48045  0.00349  1.0000
  H   H849      1.0  0.32858  0.49571  0.17879  1.0000
  H   H850      1.0  0.36769  0.63751  0.27660  1.0000
  H   H851      1.0  0.31570  0.45268  0.09610  1.0000
  H   H852      1.0  0.27661  0.37809  0.28066  1.0000
  C   C713      1.0  0.27208  0.37632  0.20188  1.0000
  H   H853      1.0  0.46783  0.60728  0.43072  1.0000
  H   H854      1.0  0.30883  0.67244  0.38573  1.0000
  C   C714      1.0  0.31180  0.66931  0.06346  1.0000
  N   N49       1.0  0.34692  0.49555  0.03279  1.0000
  H   H855      1.0  0.50930  0.59767  0.08687  1.0000
  C   C715      1.0  0.32750  0.49694  0.01431  1.0000
  C   C716      1.0  0.35779  0.51612  0.03040  1.0000
  C   C717      1.0  0.33974  0.49147  0.06042  1.0000
  C   C718      1.0  0.34171  0.50661  0.08207  1.0000
  C   C719      1.0  0.33009  0.47194  0.06627  1.0000
  C   C720      1.0  0.33460  0.50222  0.10786  1.0000
  C   C721      1.0  0.32307  0.46770  0.09212  1.0000
  C   C722      1.0  0.32525  0.48283  0.11285  1.0000
  H   H856      1.0  0.35535  0.46156  0.02155  1.0000
  H   H857      1.0  0.27229  0.39495  0.41420  1.0000
  N   N50       1.0  0.34428  0.64976  0.41093  1.0000
  H   H858      1.0  0.31951  0.48136  0.01322  1.0000
  H   H859      1.0  0.33545  0.62276  0.14363  1.0000
  H   H860      1.0  0.31482  0.51010  0.02085  1.0000
  C   C723      1.0  0.45645  0.60037  0.38042  1.0000
  C   C724      1.0  0.28618  0.43987  0.23411  1.0000
  H   H861      1.0  0.34641  0.53081  0.03544  1.0000
  H   H862      1.0  0.34863  0.52202  0.07969  1.0000
  H   H863      1.0  0.32775  0.45981  0.05081  1.0000
  H   H864      1.0  0.33633  0.51402  0.12403  1.0000
  C   C725      1.0  0.32163  0.66186  0.11869  1.0000
  H   H865      1.0  0.27391  0.49418  0.01569  1.0000
  H   H866      1.0  0.37719  0.47482  0.03789  1.0000
  H   H867      1.0  0.46014  0.56965  0.41697  1.0000
  C   C726      1.0  0.29428  0.65516  0.45721  1.0000
  N   N51       1.0  0.46569  0.56177  0.28154  1.0000
  C   C727      1.0  0.44505  0.56585  0.29706  1.0000
  C   C728      1.0  0.47032  0.58302  0.27012  1.0000
  C   C729      1.0  0.46139  0.54640  0.25926  1.0000
  H   H868      1.0  0.49977  0.57937  0.12429  1.0000
  H   H869      1.0  0.49662  0.59946  0.42835  1.0000
  H   H870      1.0  0.45153  0.58994  0.36332  1.0000
  S   S196      1.0  0.29167  0.44303  0.15314  1.0000
  H   H871      1.0  0.43140  0.57387  0.28446  1.0000
  H   H872      1.0  0.31859  0.66903  0.18748  1.0000
  H   H873      1.0  0.47376  0.59505  0.28614  1.0000
  C   C730      1.0  0.50161  0.53676  0.33915  1.0000
  H   H874      1.0  0.32702  0.63196  0.17607  1.0000
  H   H875      1.0  0.44718  0.55286  0.24640  1.0000
  C   C731      1.0  0.28414  0.67287  0.41537  1.0000
  C   C732      1.0  0.32404  0.63506  0.15427  1.0000
  H   H876      1.0  0.27667  0.37223  0.08240  1.0000
  Fe  Fe101     1.0  0.38926  0.53398  0.45708  1.0000
  N   N52       1.0  0.32605  0.49092  0.27227  1.0000
  C   C733      1.0  0.33403  0.46741  0.27382  1.0000
  C   C734      1.0  0.33344  0.50190  0.29719  1.0000
  C   C735      1.0  0.30152  0.49308  0.27205  1.0000
  C   C736      1.0  0.33439  0.50001  0.24739  1.0000
  C   C737      1.0  0.32693  0.49295  0.22179  1.0000
  C   C738      1.0  0.35058  0.51529  0.24763  1.0000
  C   C739      1.0  0.33467  0.50122  0.19804  1.0000
  C   C740      1.0  0.35830  0.52331  0.22374  1.0000
  H   H877      1.0  0.33453  0.62280  0.38681  1.0000
  H   H878      1.0  0.35240  0.46507  0.27437  1.0000
  C   C741      1.0  0.27972  0.43976  0.43935  1.0000
  H   H879      1.0  0.45619  0.59041  0.25768  1.0000
  H   H880      1.0  0.32866  0.51984  0.29689  1.0000
  H   H881      1.0  0.35164  0.49902  0.30038  1.0000
  H   H882      1.0  0.32607  0.49547  0.31547  1.0000
  H   H883      1.0  0.29434  0.48302  0.25605  1.0000
  C   C742      1.0  0.34137  0.65757  0.25719  1.0000
  H   H884      1.0  0.29483  0.51040  0.26909  1.0000
  H   H885      1.0  0.31516  0.48086  0.21989  1.0000
  H   H886      1.0  0.35767  0.52135  0.26598  1.0000
  H   H887      1.0  0.29788  0.34929  0.20577  1.0000
  N   N53       1.0  0.32751  0.65791  0.14728  1.0000
  H   H888      1.0  0.28983  0.34903  0.98409  1.0000
  C   C743      1.0  0.36291  0.47729  0.02366  1.0000
  C   C744      1.0  0.27945  0.44207  0.98771  1.0000
  H   H889      1.0  0.29481  0.48741  0.29117  1.0000
  C   C745      1.0  0.35450  0.65035  0.27922  1.0000
  S   S197      1.0  0.27766  0.41707  0.08690  1.0000
  H   H890      1.0  0.32679  0.64000  0.46120  1.0000
  C   C746      1.0  0.26914  0.38474  0.01802  1.0000
  H   H891      1.0  0.45745  0.53032  0.26704  1.0000
  C   C747      1.0  0.51332  0.58650  0.13569  1.0000
  H   H892      1.0  0.43902  0.55036  0.30407  1.0000
  C   C748      1.0  0.49809  0.60196  0.97296  1.0000
  S   S198      1.0  0.36629  0.50681  0.45737  1.0000
  H   H893      1.0  0.29628  0.67102  0.16377  1.0000
  C   C749      1.0  0.35026  0.51646  0.19901  1.0000
  S   S199      1.0  0.34606  0.64653  0.22466  1.0000
  Fe  Fe102     1.0  0.27234  0.43793  0.30792  1.0000
  C   C750      1.0  0.33192  0.64833  0.09822  1.0000
  H   H894      1.0  0.37588  0.63244  0.42066  1.0000
  H   H895      1.0  0.51001  0.58398  0.15724  1.0000
  H   H896      1.0  0.33480  0.64792  0.36879  1.0000
  H   H897      1.0  0.49232  0.61914  0.97455  1.0000
  C   C751      1.0  0.32421  0.67421  0.26090  1.0000
  C   C752      1.0  0.48306  0.54555  0.32461  1.0000
  H   H898      1.0  0.30610  0.36769  0.16698  1.0000
  H   H899      1.0  0.30022  0.35067  0.25493  1.0000
  H   H900      1.0  0.51218  0.60211  0.31096  1.0000
  H   H901      1.0  0.36335  0.51857  0.00954  1.0000
  H   H902      1.0  0.46745  0.54651  0.33474  1.0000
  H   H903      1.0  0.29084  0.64360  0.98402  1.0000
  H   H904      1.0  0.48467  0.58141  0.25664  1.0000
  H   H905      1.0  0.47961  0.60386  0.33887  1.0000
  C   C753      1.0  0.34330  0.63779  0.38486  1.0000
  C   C754      1.0  0.28996  0.50904  0.45788  1.0000
  C   C755      1.0  0.26443  0.44849  0.23861  1.0000
  C   C756      1.0  0.32699  0.65200  0.07104  1.0000
  H   H906      1.0  0.30683  0.63144  0.14944  1.0000
  H   H907      1.0  0.37068  0.53494  0.22447  1.0000
  C   C757      1.0  0.35911  0.63601  0.42921  1.0000
  N   N54       1.0  0.47759  0.59143  0.39314  1.0000
  H   H908      1.0  0.45726  0.61740  0.37339  1.0000
  H   H909      1.0  0.28026  0.38869  0.45893  1.0000
  C   C758      1.0  0.31428  0.67267  0.16612  1.0000
  C   C759      1.0  0.28699  0.36136  0.21623  1.0000
  S   S200      1.0  0.27917  0.45960  0.34326  1.0000
  C   C760      1.0  0.28075  0.44492  0.18582  1.0000
  C   C761      1.0  0.28879  0.44046  0.46545  1.0000
  H   H910      1.0  0.36229  0.64939  0.14018  1.0000
  H   H911      1.0  0.29200  0.38035  0.13869  1.0000
  H   H912      1.0  0.51196  0.60452  0.13283  1.0000
  H   H913      1.0  0.35610  0.65933  0.17322  1.0000
  C   C762      1.0  0.29245  0.38006  0.16107  1.0000
  C   C763      1.0  0.49672  0.59018  0.37492  1.0000
  Fe  Fe103     1.0  0.26822  0.43292  0.36871  1.0000
  C   C764      1.0  0.30533  0.66709  0.40566  1.0000
  H   H914      1.0  0.50880  0.55331  0.26534  1.0000
  Fe  Fe104     1.0  0.26868  0.44393  0.11685  1.0000
  C   C765      1.0  0.26598  0.35316  0.16302  1.0000
  H   H915      1.0  0.29703  0.39635  0.16822  1.0000
  Fe  Fe105     1.0  0.43538  0.55012  0.46319  1.0000
  C   C766      1.0  0.35111  0.66130  0.15174  1.0000
  H   H916      1.0  0.49995  0.53146  0.35963  1.0000
  C   C767      1.0  0.28224  0.49921  0.43464  1.0000
  S   S201      1.0  0.47234  0.54180  0.46685  1.0000
  H   H917      1.0  0.35272  0.61987  0.43262  1.0000
  H   H918      1.0  0.36106  0.65455  0.32160  1.0000
  H   H919      1.0  0.36159  0.64432  0.44888  1.0000
  C   C768      1.0  0.27521  0.37745  0.25891  1.0000
  H   H920      1.0  0.27327  0.40065  0.00992  1.0000
  H   H921      1.0  0.27512  0.37460  0.38831  1.0000
  S   S202      1.0  0.26446  0.46969  0.08501  1.0000
  C   C769      1.0  0.27011  0.49463  0.97263  1.0000
  C   C770      1.0  0.29245  0.64703  0.96287  1.0000
  Fe  Fe106     1.0  0.42179  0.59992  0.70863  1.0000
  S   S203      1.0  0.41366  0.56521  0.70667  1.0000
  S   S204      1.0  0.45657  0.60920  0.70470  1.0000
  Fe  Fe107     1.0  0.37347  0.61741  0.71431  1.0000
  S   S205      1.0  0.36175  0.58381  0.71229  1.0000
  C   C771      1.0  0.34052  0.54116  0.88213  1.0000
  Fe  Fe108     1.0  0.39048  0.57507  0.74022  1.0000
  S   S206      1.0  0.38979  0.55270  0.77566  1.0000
  Fe  Fe109     1.0  0.38611  0.57763  0.67884  1.0000
  S   S207      1.0  0.38047  0.55776  0.64112  1.0000
  S   S208      1.0  0.40073  0.60910  0.74436  1.0000
  S   S209      1.0  0.39566  0.61195  0.67862  1.0000
  Fe  Fe110     1.0  0.29080  0.39286  0.83741  1.0000
  C   C772      1.0  0.34526  0.50105  0.58261  1.0000
  Fe  Fe111     1.0  0.31230  0.43590  0.84454  1.0000
  H   H922      1.0  0.34196  0.57471  0.89424  1.0000
  S   S210      1.0  0.34412  0.45243  0.84830  1.0000
  H   H923      1.0  0.28714  0.36508  0.90072  1.0000
  H   H924      1.0  0.47940  0.53682  0.88117  1.0000
  C   C773      1.0  0.48276  0.58647  0.96811  1.0000
  S   S211      1.0  0.36648  0.50549  0.95456  1.0000
  S   S212      1.0  0.30158  0.41154  0.87374  1.0000
  S   S213      1.0  0.30478  0.41537  0.80807  1.0000
  H   H925      1.0  0.48949  0.61596  0.49398  1.0000
  H   H926      1.0  0.32702  0.63915  0.96386  1.0000
  H   H927      1.0  0.32181  0.47945  0.63664  1.0000
  C   C774      1.0  0.27987  0.64265  0.72099  1.0000
  Fe  Fe112     1.0  0.26845  0.43066  0.86978  1.0000
  H   H928      1.0  0.28747  0.48998  0.96912  1.0000
  Fe  Fe113     1.0  0.39624  0.57518  0.92703  1.0000
  S   S214      1.0  0.38684  0.59689  0.89156  1.0000
  Fe  Fe114     1.0  0.39613  0.57530  0.48948  1.0000
  S   S215      1.0  0.38740  0.59760  0.52505  1.0000
  S   S216      1.0  0.41337  0.54128  0.92421  1.0000
  S   S217      1.0  0.41079  0.54060  0.49311  1.0000
  H   H929      1.0  0.49042  0.58784  0.80350  1.0000
  H   H930      1.0  0.35375  0.63211  0.87630  1.0000
  S   S218      1.0  0.34847  0.64691  0.71705  1.0000
  H   H931      1.0  0.51218  0.58991  0.88583  1.0000
  N   N55       1.0  0.34439  0.49084  0.53348  1.0000
  S   S219      1.0  0.28697  0.44030  0.52046  1.0000
  H   H932      1.0  0.33908  0.60110  0.65161  1.0000
  S   S220      1.0  0.28577  0.44527  0.65317  1.0000
  H   H933      1.0  0.42660  0.60696  0.62065  1.0000
  H   H934      1.0  0.34304  0.53500  0.90240  1.0000
  C   C775      1.0  0.47918  0.58636  0.63403  1.0000
  S   S221      1.0  0.29791  0.35594  0.83365  1.0000
  S   S222      1.0  0.41838  0.58657  0.95973  1.0000
  H   H935      1.0  0.47961  0.59500  0.65384  1.0000
  C   C776      1.0  0.48994  0.56420  0.96586  1.0000
  S   S223      1.0  0.47141  0.54420  0.95867  1.0000
  H   H936      1.0  0.49457  0.55895  0.79649  1.0000
  H   H937      1.0  0.48861  0.59555  0.61975  1.0000
  H   H938      1.0  0.34234  0.63608  0.81415  1.0000
  H   H939      1.0  0.29252  0.43720  0.92145  1.0000
  Fe  Fe115     1.0  0.43404  0.55208  0.95910  1.0000
  C   C777      1.0  0.44530  0.58325  0.87380  1.0000
  H   H940      1.0  0.31024  0.43843  0.96652  1.0000
  C   C778      1.0  0.27568  0.65901  0.92079  1.0000
  C   C779      1.0  0.29042  0.44035  0.70772  1.0000
  C   C780      1.0  0.28288  0.44019  0.73429  1.0000
  H   H941      1.0  0.43551  0.59895  0.83754  1.0000
  H   H942      1.0  0.32496  0.63861  0.87151  1.0000
  H   H943      1.0  0.30783  0.43679  0.70383  1.0000
  H   H944      1.0  0.29444  0.43653  0.75069  1.0000
  C   C781      1.0  0.35061  0.46615  0.87853  1.0000
  C   C782      1.0  0.37029  0.47642  0.88043  1.0000
  C   C783      1.0  0.37511  0.48894  0.90333  1.0000
  C   C784      1.0  0.36063  0.49067  0.92494  1.0000
  C   C785      1.0  0.34122  0.47995  0.92334  1.0000
  C   C786      1.0  0.33607  0.46798  0.90010  1.0000
  H   H945      1.0  0.38179  0.47487  0.86403  1.0000
  H   H946      1.0  0.39023  0.49690  0.90446  1.0000
  H   H947      1.0  0.33000  0.48103  0.94004  1.0000
  H   H948      1.0  0.32090  0.46012  0.89891  1.0000
  C   C787      1.0  0.38842  0.58455  0.85938  1.0000
  C   C788      1.0  0.38376  0.59746  0.83663  1.0000
  C   C789      1.0  0.38412  0.58785  0.81084  1.0000
  C   C790      1.0  0.38937  0.56530  0.80766  1.0000
  C   C791      1.0  0.39424  0.55244  0.83037  1.0000
  C   C792      1.0  0.39368  0.56202  0.85612  1.0000
  H   H949      1.0  0.37956  0.61490  0.83892  1.0000
  H   H950      1.0  0.37996  0.59785  0.79354  1.0000
  H   H951      1.0  0.39836  0.53500  0.82815  1.0000
  H   H952      1.0  0.39692  0.55183  0.87341  1.0000
  C   C793      1.0  0.38410  0.56890  0.60920  1.0000
  C   C794      1.0  0.38510  0.59135  0.60587  1.0000
  C   C795      1.0  0.38623  0.59995  0.57997  1.0000
  C   C796      1.0  0.38687  0.58611  0.55727  1.0000
  C   C797      1.0  0.38656  0.56357  0.56065  1.0000
  C   C798      1.0  0.38509  0.55502  0.58654  1.0000
  H   H953      1.0  0.38405  0.60224  0.62311  1.0000
  H   H954      1.0  0.38632  0.61742  0.57748  1.0000
  H   H955      1.0  0.38702  0.55277  0.54332  1.0000
  H   H956      1.0  0.38466  0.53762  0.58906  1.0000
  H   H957      1.0  0.35668  0.62627  0.76878  1.0000
  C   C799      1.0  0.47901  0.58956  0.71094  1.0000
  C   C800      1.0  0.29242  0.43957  0.96467  1.0000
  C   C801      1.0  0.28797  0.36092  0.71699  1.0000
  C   C802      1.0  0.44590  0.58543  0.84591  1.0000
  C   C803      1.0  0.49420  0.55266  0.72178  1.0000
  C   C804      1.0  0.47591  0.56780  0.71648  1.0000
  H   H958      1.0  0.46542  0.59182  0.96604  1.0000
  H   H959      1.0  0.37238  0.63929  0.91764  1.0000
  H   H960      1.0  0.49171  0.53589  0.72632  1.0000
  H   H961      1.0  0.45950  0.56262  0.71692  1.0000
  H   H962      1.0  0.43543  0.60163  0.57658  1.0000
  C   C805      1.0  0.32405  0.64531  0.59788  1.0000
  H   H963      1.0  0.31586  0.47863  0.51406  1.0000
  H   H964      1.0  0.37448  0.46973  0.53765  1.0000
  H   H965      1.0  0.28992  0.65090  0.47737  1.0000
  H   H966      1.0  0.45389  0.55387  0.64398  1.0000
  H   H967      1.0  0.47678  0.52912  0.56200  1.0000
  H   H968      1.0  0.33921  0.47946  0.49276  1.0000
  C   C806      1.0  0.32987  0.63539  0.64452  1.0000
  H   H969      1.0  0.30902  0.45502  0.60123  1.0000
  C   C807      1.0  0.33771  0.51377  0.52559  1.0000
  H   H970      1.0  0.37764  0.49818  0.54379  1.0000
  H   H971      1.0  0.37420  0.48846  0.51021  1.0000
  C   C808      1.0  0.33979  0.56352  0.87758  1.0000
  C   C809      1.0  0.33946  0.49822  0.60932  1.0000
  H   H972      1.0  0.34529  0.50881  0.62502  1.0000
  N   N56       1.0  0.33763  0.64839  0.91036  1.0000
  N   N57       1.0  0.33522  0.51788  0.81128  1.0000
  C   C810      1.0  0.35635  0.50379  0.81022  1.0000
  C   C811      1.0  0.31701  0.50383  0.81551  1.0000
  C   C812      1.0  0.33153  0.52818  0.78457  1.0000
  C   C813      1.0  0.33620  0.53390  0.83372  1.0000
  C   C814      1.0  0.33854  0.52659  0.86061  1.0000
  C   C815      1.0  0.33549  0.55687  0.82977  1.0000
  C   C816      1.0  0.32474  0.47067  0.56908  1.0000
  C   C817      1.0  0.33703  0.57137  0.85151  1.0000
  S   S224      1.0  0.31194  0.67101  0.83356  1.0000
  H   H973      1.0  0.35975  0.49444  0.82898  1.0000
  H   H974      1.0  0.35634  0.49139  0.79369  1.0000
  H   H975      1.0  0.37049  0.51371  0.80709  1.0000
  H   H976      1.0  0.31974  0.49353  0.83365  1.0000
  H   H977      1.0  0.31535  0.49205  0.79853  1.0000
  H   H978      1.0  0.30093  0.51384  0.81780  1.0000
  H   H979      1.0  0.34543  0.53785  0.77927  1.0000
  H   H980      1.0  0.33054  0.51570  0.76824  1.0000
  H   H981      1.0  0.31584  0.53903  0.78389  1.0000
  H   H982      1.0  0.33930  0.50944  0.86518  1.0000
  H   H983      1.0  0.33436  0.56404  0.81008  1.0000
  C   C818      1.0  0.48165  0.58345  0.48268  1.0000
  N   N58       1.0  0.45618  0.58480  0.62423  1.0000
  H   H984      1.0  0.43589  0.54928  0.79396  1.0000
  H   H985      1.0  0.35452  0.62347  0.93541  1.0000
  C   C819      1.0  0.32155  0.66438  0.80090  1.0000
  C   C820      1.0  0.28005  0.36680  0.92062  1.0000
  C   C821      1.0  0.33824  0.65340  0.74943  1.0000
  N   N59       1.0  0.46038  0.57200  0.80017  1.0000
  H   H986      1.0  0.33728  0.59046  0.60370  1.0000
  H   H987      1.0  0.44801  0.59211  0.76685  1.0000
  H   H988      1.0  0.44433  0.57738  0.66331  1.0000
  C   C822      1.0  0.44438  0.60707  0.62615  1.0000
  H   H989      1.0  0.42792  0.56860  0.63560  1.0000
  H   H990      1.0  0.45654  0.56409  0.90799  1.0000
  C   C823      1.0  0.44515  0.57052  0.64249  1.0000
  C   C824      1.0  0.29637  0.65696  0.90876  1.0000
  C   C825      1.0  0.29150  0.62907  0.70244  1.0000
  H   H991      1.0  0.47642  0.54525  0.60728  1.0000
  C   C826      1.0  0.29006  0.35527  0.94215  1.0000
  C   C827      1.0  0.49583  0.60016  0.48598  1.0000
  H   H992      1.0  0.35838  0.67014  0.89135  1.0000
  H   H993      1.0  0.45736  0.54887  0.52435  1.0000
  C   C828      1.0  0.31907  0.46796  0.59587  1.0000
  C   C829      1.0  0.33422  0.47628  0.51369  1.0000
  H   H994      1.0  0.33702  0.58876  0.84798  1.0000
  H   H995      1.0  0.48837  0.57008  0.63715  1.0000
  C   C830      1.0  0.33681  0.64603  0.79715  1.0000
  H   H996      1.0  0.45197  0.55338  0.76492  1.0000
  C   C831      1.0  0.32633  0.48172  0.61593  1.0000
  H   H997      1.0  0.29228  0.38444  0.64128  1.0000
  H   H998      1.0  0.33951  0.45870  0.51733  1.0000
  H   H999      1.0  0.28757  0.64620  0.74018  1.0000
  H   H1000     1.0  0.34702  0.52579  0.53684  1.0000
  C   C832      1.0  0.44562  0.57653  0.54886  1.0000
  H   H1001     1.0  0.45166  0.60685  0.79747  1.0000
  C   C833      1.0  0.44509  0.58603  0.57458  1.0000
  H   H1002     1.0  0.48496  0.57722  0.77064  1.0000
  C   C834      1.0  0.45747  0.56588  0.88640  1.0000
  C   C835      1.0  0.47043  0.55059  0.87118  1.0000
  C   C836      1.0  0.46820  0.54516  0.56557  1.0000
  H   H1003     1.0  0.48164  0.54044  0.83230  1.0000
  H   H1004     1.0  0.26889  0.37116  0.57427  1.0000
  H   H1005     1.0  0.42877  0.59016  0.79317  1.0000
  Fe  Fe116     1.0  0.27124  0.43396  0.80868  1.0000
  C   C837      1.0  0.27647  0.51219  0.48040  1.0000
  C   C838      1.0  0.45276  0.55208  0.78719  1.0000
  H   H1006     1.0  0.32869  0.61865  0.56918  1.0000
  C   C839      1.0  0.48356  0.57404  0.79247  1.0000
  C   C840      1.0  0.33440  0.61348  0.63668  1.0000
  C   C841      1.0  0.44659  0.59115  0.78911  1.0000
  C   C842      1.0  0.33795  0.48746  0.56159  1.0000
  C   C843      1.0  0.46787  0.55454  0.59137  1.0000
  C   C844      1.0  0.36870  0.48664  0.53126  1.0000
  H   H1007     1.0  0.34093  0.51647  0.50399  1.0000
  Fe  Fe117     1.0  0.38905  0.53303  0.95509  1.0000
  S   S225      1.0  0.37065  0.56651  0.95584  1.0000
  C   C845      1.0  0.45636  0.57533  0.59668  1.0000
  C   C846      1.0  0.45914  0.57023  0.82975  1.0000
  C   C847      1.0  0.45718  0.55620  0.54433  1.0000
  C   C848      1.0  0.50049  0.59593  0.71007  1.0000
  H   H1008     1.0  0.31861  0.45930  0.55471  1.0000
  H   H1009     1.0  0.45196  0.61883  0.61316  1.0000
  H   H1010     1.0  0.31982  0.51812  0.52899  1.0000
  H   H1011     1.0  0.29087  0.61400  0.66329  1.0000
  C   C849      1.0  0.31324  0.64470  0.95098  1.0000
  C   C850      1.0  0.31584  0.64977  0.92347  1.0000
  H   H1012     1.0  0.44481  0.61383  0.64706  1.0000
  H   H1013     1.0  0.35803  0.65137  0.94594  1.0000
  H   H1014     1.0  0.30814  0.62214  0.70729  1.0000
  C   C851      1.0  0.27421  0.37452  0.76001  1.0000
  H   H1015     1.0  0.29469  0.39946  0.67219  1.0000
  H   H1016     1.0  0.43661  0.58486  0.53238  1.0000
  C   C852      1.0  0.27189  0.37490  0.70293  1.0000
  H   H1017     1.0  0.27496  0.39211  0.50692  1.0000
  H   H1018     1.0  0.43484  0.59484  0.88574  1.0000
  H   H1019     1.0  0.46457  0.58639  0.48838  1.0000
  H   H1020     1.0  0.35564  0.51392  0.57858  1.0000
  H   H1021     1.0  0.28351  0.51984  0.49770  1.0000
  C   C853      1.0  0.34502  0.64048  0.77147  1.0000
  C   C854      1.0  0.33348  0.60744  0.60967  1.0000
  C   C855      1.0  0.47144  0.55275  0.84329  1.0000
  H   H1022     1.0  0.33111  0.63891  0.66572  1.0000
  C   C856      1.0  0.28240  0.43873  0.93909  1.0000
  H   H1023     1.0  0.46374  0.53708  0.79176  1.0000
  H   H1024     1.0  0.51354  0.55328  0.55216  1.0000
  H   H1025     1.0  0.30705  0.37188  0.66924  1.0000
  H   H1026     1.0  0.33469  0.61649  0.89305  1.0000
  S   S226      1.0  0.27230  0.41503  0.58916  1.0000
  H   H1027     1.0  0.50304  0.61271  0.70565  1.0000
  C   C857      1.0  0.29229  0.38297  0.66357  1.0000
  C   C858      1.0  0.27559  0.44512  0.68624  1.0000
  H   H1028     1.0  0.27534  0.37470  0.78181  1.0000
  S   S227      1.0  0.27968  0.45628  0.84284  1.0000
  C   C859      1.0  0.27373  0.65416  0.94782  1.0000
  C   C860      1.0  0.35633  0.64032  0.92827  1.0000
  H   H1029     1.0  0.32072  0.65706  0.58203  1.0000
  C   C861      1.0  0.32857  0.62334  0.59027  1.0000
  C   C862      1.0  0.28178  0.62458  0.67769  1.0000
  C   C863      1.0  0.32421  0.65200  0.62532  1.0000
  C   C864      1.0  0.33767  0.63327  0.88684  1.0000
  H   H1030     1.0  0.33482  0.67497  0.67243  1.0000
  C   C865      1.0  0.27537  0.43901  0.48786  1.0000
  C   C866      1.0  0.51259  0.55762  0.96864  1.0000
  C   C867      1.0  0.26411  0.35572  0.58103  1.0000
  C   C868      1.0  0.28902  0.36077  0.74510  1.0000
  H   H1031     1.0  0.30017  0.35036  0.70632  1.0000
  H   H1032     1.0  0.51024  0.58269  0.55356  1.0000
  H   H1033     1.0  0.29702  0.66144  0.88788  1.0000
  H   H1034     1.0  0.30168  0.35034  0.75552  1.0000
  N   N60       1.0  0.27150  0.37514  0.67315  1.0000
  C   C869      1.0  0.32293  0.67170  0.75312  1.0000
  H   H1035     1.0  0.30591  0.67023  0.67186  1.0000
  H   H1036     1.0  0.26847  0.35258  0.63990  1.0000
  C   C870      1.0  0.26959  0.35274  0.66225  1.0000
  H   H1037     1.0  0.51286  0.56180  0.89582  1.0000
  C   C871      1.0  0.28117  0.35786  0.96789  1.0000
  C   C872      1.0  0.34199  0.67040  0.90105  1.0000
  H   H1038     1.0  0.30511  0.34470  0.93890  1.0000
  C   C873      1.0  0.48968  0.56301  0.47226  1.0000
  N   N61       1.0  0.31955  0.67540  0.63285  1.0000
  H   H1039     1.0  0.28435  0.67516  0.62859  1.0000
  Fe  Fe118     1.0  0.26410  0.43853  0.55562  1.0000
  H   H1040     1.0  0.26475  0.51215  0.53488  1.0000
  H   H1041     1.0  0.28725  0.92902  0.99863  1.0000
  C   C874      1.0  0.36025  0.00706  0.12023  1.0000
  H   H1042     1.0  0.28856  0.94362  0.17389  1.0000
  H   H1043     1.0  0.27405  0.88589  0.00321  1.0000
  H   H1044     1.0  0.29200  0.71157  0.21658  1.0000
  Fe  Fe119     1.0  0.26519  0.93233  0.05321  1.0000
  H   H1045     1.0  0.28385  0.72240  0.44015  1.0000
  H   H1046     1.0  0.30128  0.94829  0.22114  1.0000
  H   H1047     1.0  0.33453  0.94667  0.39343  1.0000
  H   H1048     1.0  0.26488  0.79286  0.20786  1.0000
  C   C875      1.0  0.28660  0.84803  0.15786  1.0000
  H   H1049     1.0  0.34460  0.96124  0.36612  1.0000
  Fe  Fe120     1.0  0.30824  0.93721  0.08241  1.0000
  H   H1050     1.0  0.27768  0.84455  0.41719  1.0000
  S   S228      1.0  0.33986  0.95440  0.08117  1.0000
  Fe  Fe121     1.0  0.29996  0.71398  0.34393  1.0000
  S   S229      1.0  0.29865  0.91401  0.04990  1.0000
  S   S230      1.0  0.30075  0.91445  0.11583  1.0000
  H   H1051     1.0  0.36539  0.95807  0.41979  1.0000
  C   C876      1.0  0.37104  0.99137  0.02901  1.0000
  S   S231      1.0  0.29545  0.73512  0.38116  1.0000
  H   H1052     1.0  0.27772  0.84412  0.46221  1.0000
  H   H1053     1.0  0.36077  0.99411  0.13572  1.0000
  H   H1054     1.0  0.37893  0.97418  0.06598  1.0000
  H   H1055     1.0  0.28313  0.82510  0.99772  1.0000
  S   S232      1.0  0.27039  0.91824  0.33595  1.0000
  H   H1056     1.0  0.29851  0.94633  0.46046  1.0000
  C   C877      1.0  0.28212  0.83912  0.34799  1.0000
  H   H1057     1.0  0.35453  0.67804  0.14580  1.0000
  S   S233      1.0  0.32949  0.68900  0.34031  1.0000
  H   H1058     1.0  0.37430  0.97570  0.39428  1.0000
  H   H1059     1.0  0.32222  0.99871  0.09684  1.0000
  Fe  Fe122     1.0  0.28371  0.76190  0.35253  1.0000
  C   C878      1.0  0.27710  0.94285  0.19017  1.0000
  S   S234      1.0  0.29319  0.85635  0.08119  1.0000
  C   C879      1.0  0.28529  0.77917  0.14608  1.0000
  H   H1060     1.0  0.36244  0.99834  0.10066  1.0000
  H   H1061     1.0  0.28141  0.88372  0.41711  1.0000
  C   C880      1.0  0.27519  0.71849  0.21953  1.0000
  C   C881      1.0  0.27522  0.81706  0.07969  1.0000
  H   H1062     1.0  0.28498  0.70643  0.97943  1.0000
  C   C882      1.0  0.26813  0.94788  0.43746  1.0000
  H   H1063     1.0  0.29596  0.85009  0.99426  1.0000
  H   H1064     1.0  0.29936  0.84146  0.35132  1.0000
  C   C883      1.0  0.35524  0.99593  0.00866  1.0000
  H   H1065     1.0  0.30761  0.98463  0.42096  1.0000
  C   C884      1.0  0.36648  0.97790  0.05057  1.0000
  C   C885      1.0  0.34589  0.96936  0.05239  1.0000
  C   C886      1.0  0.33015  0.97387  0.03200  1.0000
  C   C887      1.0  0.33488  0.98693  0.01018  1.0000
  C   C888      1.0  0.32063  0.00818  0.11602  1.0000
  H   H1066     1.0  0.32249  0.99027  0.99470  1.0000
  H   H1067     1.0  0.31425  0.96740  0.03311  1.0000
  S   S235      1.0  0.28169  0.94565  0.40636  1.0000
  H   H1068     1.0  0.28125  0.78416  0.12506  1.0000
  H   H1069     1.0  0.27763  0.76691  0.19629  1.0000
  H   H1070     1.0  0.28614  0.84238  0.02625  1.0000
  C   C889      1.0  0.28426  0.94552  0.21696  1.0000
  Fe  Fe123     1.0  0.28750  0.89337  0.08311  1.0000
  S   S236      1.0  0.27881  0.94980  0.27147  1.0000
  H   H1071     1.0  0.30344  0.81672  0.16493  1.0000
  H   H1072     1.0  0.28434  0.88380  0.27542  1.0000
  H   H1073     1.0  0.30177  0.85594  0.15672  1.0000
  H   H1074     1.0  0.29870  0.80212  0.45574  1.0000
  C   C890      1.0  0.26733  0.70724  0.97601  1.0000
  S   S237      1.0  0.29181  0.74168  0.31542  1.0000
  C   C891      1.0  0.33346  0.96298  0.38369  1.0000
  N   N62       1.0  0.33957  0.98042  0.40265  1.0000
  Fe  Fe124     1.0  0.26688  0.93239  0.11502  1.0000
  C   C892      1.0  0.27512  0.81808  0.34945  1.0000
  H   H1075     1.0  0.31608  0.96619  0.37640  1.0000
  C   C893      1.0  0.32521  0.97990  0.42639  1.0000
  H   H1076     1.0  0.32604  0.96325  0.43513  1.0000
  C   C894      1.0  0.26811  0.85805  0.47085  1.0000
  C   C895      1.0  0.27443  0.78501  0.43465  1.0000
  H   H1077     1.0  0.33008  0.99088  0.44291  1.0000
  S   S238      1.0  0.29440  0.79600  0.35795  1.0000
  C   C896      1.0  0.28738  0.82548  0.16204  1.0000
  C   C897      1.0  0.36282  0.97483  0.41135  1.0000
  H   H1078     1.0  0.29555  0.84881  0.26485  1.0000
  H   H1079     1.0  0.36813  0.98610  0.42738  1.0000
  H   H1080     1.0  0.32828  0.99345  0.34954  1.0000
  C   C898      1.0  0.27618  0.93081  0.98156  1.0000
  C   C899      1.0  0.26946  0.94502  0.23826  1.0000
  H   H1081     1.0  0.29172  0.81011  0.07492  1.0000
  C   C900      1.0  0.28291  0.79539  0.45707  1.0000
  H   H1082     1.0  0.27197  0.68231  0.40303  1.0000
  C   C901      1.0  0.27211  0.72102  0.45597  1.0000
  H   H1083     1.0  0.29318  0.79024  0.19756  1.0000
  C   C902      1.0  0.26690  0.85716  0.34235  1.0000
  H   H1084     1.0  0.28534  0.76102  0.14678  1.0000
  H   H1085     1.0  0.30709  0.69657  0.28908  1.0000
  H   H1086     1.0  0.30255  0.78262  0.15049  1.0000
  S   S239      1.0  0.27508  0.95677  0.08412  1.0000
  C   C903      1.0  0.33366  0.67680  0.30832  1.0000
  C   C904      1.0  0.26793  0.80539  0.27983  1.0000
  H   H1087     1.0  0.27785  0.71767  0.26285  1.0000
  C   C905      1.0  0.28070  0.94789  0.46123  1.0000
  H   H1088     1.0  0.28413  0.87115  0.22852  1.0000
  H   H1089     1.0  0.30215  0.81110  0.28031  1.0000
  C   C906      1.0  0.28238  0.84251  0.00428  1.0000
  H   H1090     1.0  0.31953  0.99571  0.13185  1.0000
  H   H1091     1.0  0.31717  0.69013  0.16338  1.0000
  C   C907      1.0  0.28542  0.81804  0.27601  1.0000
  C   C908      1.0  0.28141  0.83969  0.26747  1.0000
  H   H1092     1.0  0.28995  0.69656  0.07708  1.0000
  C   C909      1.0  0.32030  0.68373  0.28641  1.0000
  H   H1093     1.0  0.28346  0.78380  0.41596  1.0000
  C   C910      1.0  0.26609  0.88698  0.27429  1.0000
  H   H1094     1.0  0.27254  0.87319  0.34140  1.0000
  H   H1095     1.0  0.31394  0.67982  0.24400  1.0000
  H   H1096     1.0  0.38689  0.99792  0.02796  1.0000
  H   H1097     1.0  0.34494  0.68130  0.39233  1.0000
  C   C911      1.0  0.26594  0.87510  0.22792  1.0000
  C   C912      1.0  0.33729  0.00258  0.39091  1.0000
  C   C913      1.0  0.27108  0.83972  0.08370  1.0000
  S   S240      1.0  0.27146  0.71795  0.16450  1.0000
  N   N63       1.0  0.26921  0.79037  0.16509  1.0000
  C   C914      1.0  0.27657  0.78491  0.19290  1.0000
  H   H1098     1.0  0.27106  0.78876  0.28704  1.0000
  H   H1099     1.0  0.35578  0.67981  0.42584  1.0000
  C   C915      1.0  0.33157  0.00645  0.36345  1.0000
  H   H1100     1.0  0.29769  0.69072  0.12414  1.0000
  C   C916      1.0  0.26724  0.72205  0.24578  1.0000
  C   C917      1.0  0.26789  0.81441  0.16164  1.0000
  C   C918      1.0  0.30160  0.68299  0.08302  1.0000
  C   C919      1.0  0.30630  0.67942  0.11022  1.0000
  S   S241      1.0  0.26573  0.70314  0.34439  1.0000
  C   C920      1.0  0.26643  0.86035  0.15405  1.0000
  H   H1101     1.0  0.26593  0.87772  0.14996  1.0000
  S   S242      1.0  0.26456  0.70621  0.03086  1.0000
  H   H1102     1.0  0.27633  0.89774  0.75400  1.0000
  C   C921      1.0  0.27053  0.00519  0.48928  1.0000
  H   H1103     1.0  0.31412  0.69703  0.66736  1.0000
  C   C922      1.0  0.32512  0.98872  0.83158  1.0000
  C   C923      1.0  0.27033  0.94994  0.48622  1.0000
  H   H1104     1.0  0.27403  0.80239  0.79033  1.0000
  H   H1105     1.0  0.33457  0.70553  0.62812  1.0000
  H   H1106     1.0  0.26872  0.78632  0.53510  1.0000
  H   H1107     1.0  0.28023  0.95062  0.50429  1.0000
  H   H1108     1.0  0.32966  0.67697  0.88583  1.0000
  H   H1109     1.0  0.29136  0.82132  0.58823  1.0000
  C   C924      1.0  0.31810  0.00546  0.92984  1.0000
  Fe  Fe125     1.0  0.29788  0.94922  0.58415  1.0000
  C   C925      1.0  0.31181  0.97444  0.84349  1.0000
  S   S243      1.0  0.32690  0.96999  0.58565  1.0000
  H   H1110     1.0  0.29669  0.72027  0.48777  1.0000
  S   S244      1.0  0.28959  0.92659  0.55043  1.0000
  S   S245      1.0  0.29122  0.92522  0.61638  1.0000
  H   H1111     1.0  0.30174  0.92161  0.95301  1.0000
  H   H1112     1.0  0.35959  0.98855  0.92421  1.0000
  C   C926      1.0  0.35247  0.98583  0.64575  1.0000
  S   S246      1.0  0.28135  0.77949  0.84936  1.0000
  C   C927      1.0  0.33837  0.00114  0.84755  1.0000
  C   C928      1.0  0.35172  0.99696  0.55764  1.0000
  H   H1113     1.0  0.31766  0.68177  0.73615  1.0000
  H   H1114     1.0  0.35693  0.00271  0.57712  1.0000
  C   C929      1.0  0.35402  0.99799  0.50895  1.0000
  C   C930      1.0  0.32491  0.98499  0.88838  1.0000
  H   H1115     1.0  0.31036  0.96738  0.95072  1.0000
  H   H1116     1.0  0.29438  0.94565  0.71984  1.0000
  C   C931      1.0  0.31162  0.97253  0.87144  1.0000
  H   H1117     1.0  0.27108  0.76424  0.70973  1.0000
  H   H1118     1.0  0.30154  0.96470  0.83100  1.0000
  C   C932      1.0  0.27935  0.71976  0.48297  1.0000
  H   H1119     1.0  0.33757  0.68729  0.59986  1.0000
  H   H1120     1.0  0.28187  0.85041  0.51034  1.0000
  C   C933      1.0  0.27687  0.94513  0.71619  1.0000
  C   C934      1.0  0.28442  0.92685  0.95562  1.0000
  C   C935      1.0  0.33709  0.68792  0.62218  1.0000
  H   H1121     1.0  0.29753  0.68367  0.59888  1.0000
  S   S247      1.0  0.28077  0.71908  0.87612  1.0000
  H   H1122     1.0  0.31491  0.95102  0.92112  1.0000
  H   H1123     1.0  0.26670  0.88228  0.63559  1.0000
  S   S248      1.0  0.27349  0.94551  0.77103  1.0000
  H   H1124     1.0  0.27964  0.94651  0.67304  1.0000
  C   C936      1.0  0.33921  0.98176  0.50716  1.0000
  C   C937      1.0  0.33042  0.97341  0.53045  1.0000
  C   C938      1.0  0.33681  0.98082  0.55584  1.0000
  S   S249      1.0  0.27393  0.71605  0.53745  1.0000
  S   S250      1.0  0.26405  0.96725  0.58642  1.0000
  H   H1125     1.0  0.33450  0.97552  0.48774  1.0000
  H   H1126     1.0  0.31910  0.96089  0.52878  1.0000
  H   H1127     1.0  0.29254  0.97255  0.92226  1.0000
  H   H1128     1.0  0.29174  0.77385  0.74683  1.0000
  H   H1129     1.0  0.26550  0.85815  0.83610  1.0000
  C   C939      1.0  0.33834  0.99931  0.87553  1.0000
  H   H1130     1.0  0.36621  0.98065  0.65987  1.0000
  Fe  Fe126     1.0  0.27925  0.90442  0.58256  1.0000
  Fe  Fe127     1.0  0.28394  0.69757  0.83907  1.0000
  H   H1131     1.0  0.30283  0.69129  0.78140  1.0000
  H   H1132     1.0  0.29404  0.70180  0.62668  1.0000
  C   C940      1.0  0.31004  0.96801  0.92836  1.0000
  H   H1133     1.0  0.32516  0.99011  0.80991  1.0000
  H   H1134     1.0  0.35365  0.68135  0.62990  1.0000
  H   H1135     1.0  0.27833  0.99325  0.70933  1.0000
  H   H1136     1.0  0.34233  0.97173  0.64283  1.0000
  C   C941      1.0  0.36013  0.00567  0.53431  1.0000
  H   H1137     1.0  0.35398  0.96059  0.91819  1.0000
  H   H1138     1.0  0.35936  0.99502  0.70375  1.0000
  H   H1139     1.0  0.27004  0.70634  0.93283  1.0000
  H   H1140     1.0  0.28368  0.87706  0.66473  1.0000
  H   H1141     1.0  0.27871  0.80466  0.49818  1.0000
  S   S251      1.0  0.36444  0.00825  0.47909  1.0000
  C   C942      1.0  0.30949  0.98904  0.73023  1.0000
  S   S252      1.0  0.28758  0.86766  0.58164  1.0000
  H   H1142     1.0  0.27715  0.89577  0.70543  1.0000
  C   C943      1.0  0.29600  0.99410  0.70791  1.0000
  H   H1143     1.0  0.34811  0.97380  0.95006  1.0000
  H   H1144     1.0  0.28938  0.82460  0.84778  1.0000
  C   C944      1.0  0.27071  0.86146  0.49855  1.0000
  H   H1145     1.0  0.28260  0.70325  0.72171  1.0000
  S   S253      1.0  0.28136  0.92458  0.90090  1.0000
  C   C945      1.0  0.34160  0.99515  0.70425  1.0000
  H   H1146     1.0  0.30091  0.96112  0.87921  1.0000
  H   H1147     1.0  0.34152  0.68240  0.91805  1.0000
  N   N64       1.0  0.32504  0.98360  0.91806  1.0000
  C   C946      1.0  0.30517  0.99961  0.68361  1.0000
  C   C947      1.0  0.29799  0.68424  0.62119  1.0000
  C   C948      1.0  0.34764  0.97633  0.92792  1.0000
  H   H1148     1.0  0.30226  0.98428  0.74881  1.0000
  C   C949      1.0  0.27394  0.82686  0.58799  1.0000
  C   C950      1.0  0.32835  0.00040  0.68108  1.0000
  C   C951      1.0  0.27038  0.92956  0.93311  1.0000
  S   S254      1.0  0.26572  0.90542  0.82913  1.0000
  H   H1149     1.0  0.31701  0.00488  0.95208  1.0000
  H   H1150     1.0  0.28636  0.76601  0.78030  1.0000
  C   C952      1.0  0.27885  0.76795  0.75977  1.0000
  H   H1151     1.0  0.36003  0.98865  0.62601  1.0000
  C   C953      1.0  0.26552  0.70985  0.72300  1.0000
  C   C954      1.0  0.31859  0.67944  0.66235  1.0000
  C   C955      1.0  0.26456  0.88851  0.74319  1.0000
  C   C956      1.0  0.26857  0.94545  0.68965  1.0000
  Fe  Fe128     1.0  0.26873  0.74600  0.84765  1.0000
  C   C957      1.0  0.31449  0.67710  0.77875  1.0000
  H   H1152     1.0  0.29372  0.00288  0.66707  1.0000
  H   H1153     1.0  0.31209  0.99901  0.62832  1.0000
  H   H1154     1.0  0.27498  0.81277  0.75693  1.0000
  H   H1155     1.0  0.34272  0.98548  0.74577  1.0000
  C   C958      1.0  0.33224  0.98960  0.72842  1.0000
  C   C959      1.0  0.27140  0.79664  0.48126  1.0000
  N   N65       1.0  0.33877  0.00551  0.65550  1.0000
  S   S255      1.0  0.27541  0.72518  0.81077  1.0000
  C   C960      1.0  0.26724  0.84918  0.58488  1.0000
  H   H1156     1.0  0.27529  0.75127  0.75292  1.0000
  S   S256      1.0  0.26908  0.72021  0.67016  1.0000
  C   C961      1.0  0.27202  0.82361  0.84342  1.0000
  H   H1157     1.0  0.26894  0.99744  0.50854  1.0000
  C   C962      1.0  0.26430  0.71783  0.50373  1.0000
  H   H1158     1.0  0.26569  0.90225  0.66195  1.0000
  H   H1159     1.0  0.26655  0.84153  0.67150  1.0000
  C   C963      1.0  0.26482  0.88720  0.71512  1.0000
  C   C964      1.0  0.26712  0.88429  0.65789  1.0000
  H   H1160     1.0  0.34892  0.00923  0.88711  1.0000
  C   C965      1.0  0.26455  0.80458  0.77108  1.0000
  C   C966      1.0  0.73977  0.31000  0.16538  1.0000
  S   S257      1.0  0.74433  0.24687  0.09172  1.0000
  H   H1161     1.0  0.65096  0.01250  0.31010  1.0000
  H   H1162     1.0  0.65328  0.02775  0.10280  1.0000
  C   C967      1.0  0.53632  0.10781  0.37804  1.0000
  H   H1163     1.0  0.54973  0.05765  0.26983  1.0000
  C   C968      1.0  0.65880  0.09657  0.32580  1.0000
  S   S258      1.0  0.73167  0.21895  0.02328  1.0000
  H   H1164     1.0  0.70465  0.29989  0.25479  1.0000
  S   S259      1.0  0.73766  0.21471  0.15683  1.0000
  H   H1165     1.0  0.67084  0.17861  0.98719  1.0000
  H   H1166     1.0  0.57363  0.09917  0.12402  1.0000
  Fe  Fe129     1.0  0.72746  0.26065  0.33665  1.0000
  H   H1167     1.0  0.54732  0.09482  0.25780  1.0000
  H   H1168     1.0  0.56036  0.10587  0.28664  1.0000
  Fe  Fe130     1.0  0.71324  0.21445  0.34350  1.0000
  S   S260      1.0  0.74851  0.19960  0.34558  1.0000
  S   S261      1.0  0.68673  0.19067  0.34397  1.0000
  H   H1169     1.0  0.71405  0.16289  0.38227  1.0000
  C   C969      1.0  0.68240  0.14226  0.01465  1.0000
  H   H1170     1.0  0.74158  0.17617  0.45922  1.0000
  H   H1171     1.0  0.66696  0.18475  0.02194  1.0000
  S   S262      1.0  0.71816  0.24193  0.37268  1.0000
  S   S263      1.0  0.71865  0.23477  0.30700  1.0000
  Fe  Fe131     1.0  0.61219  0.13566  0.44553  1.0000
  S   S264      1.0  0.63103  0.10241  0.44674  1.0000
  S   S265      1.0  0.63126  0.16577  0.44483  1.0000
  C   C970      1.0  0.52104  0.08032  0.45400  1.0000
  C   C971      1.0  0.74424  0.28711  0.40848  1.0000
  H   H1172     1.0  0.71339  0.32399  0.07585  1.0000
  C   C972      1.0  0.66525  0.01519  0.09513  1.0000
  S   S266      1.0  0.61654  0.05764  0.01530  1.0000
  Fe  Fe132     1.0  0.60342  0.09232  0.42022  1.0000
  S   S267      1.0  0.60893  0.06798  0.38605  1.0000
  C   C973      1.0  0.72988  0.22451  0.46892  1.0000
  S   S268      1.0  0.58571  0.12598  0.41679  1.0000
  Fe  Fe133     1.0  0.61161  0.07399  0.17148  1.0000
  S   S269      1.0  0.62175  0.09276  0.13554  1.0000
  Fe  Fe134     1.0  0.60443  0.07877  0.23224  1.0000
  C   C974      1.0  0.55459  0.05449  0.02838  1.0000
  S   S270      1.0  0.60436  0.10289  0.26678  1.0000
  H   H1173     1.0  0.67264  0.13987  0.99593  1.0000
  C   C975      1.0  0.67782  0.02270  0.98552  1.0000
  S   S271      1.0  0.63406  0.06805  0.20745  1.0000
  S   S272      1.0  0.58312  0.08812  0.19626  1.0000
  C   C976      1.0  0.54249  0.05678  0.11350  1.0000
  C   C977      1.0  0.52157  0.08619  0.21138  1.0000
  H   H1174     1.0  0.54567  0.04040  0.03436  1.0000
  N   N66       1.0  0.69514  0.16172  0.01356  1.0000
  H   H1175     1.0  0.68192  0.03590  0.31929  1.0000
  H   H1176     1.0  0.53758  0.09167  0.20787  1.0000
  H   H1177     1.0  0.71096  0.05136  0.37064  1.0000
  S   S273      1.0  0.71840  0.29711  0.33314  1.0000
  Fe  Fe135     1.0  0.75420  0.22169  0.31113  1.0000
  H   H1178     1.0  0.72479  0.32548  0.40759  1.0000
  C   C978      1.0  0.56386  0.08789  0.11321  1.0000
  C   C979      1.0  0.67237  0.06077  0.39767  1.0000
  H   H1179     1.0  0.71245  0.22259  0.47035  1.0000
  C   C980      1.0  0.60784  0.07786  0.35297  1.0000
  C   C981      1.0  0.60343  0.10017  0.34785  1.0000
  C   C982      1.0  0.60244  0.10763  0.32131  1.0000
  C   C983      1.0  0.60604  0.09287  0.29975  1.0000
  C   C984      1.0  0.61067  0.07056  0.30483  1.0000
  C   C985      1.0  0.61140  0.06306  0.33139  1.0000
  H   H1180     1.0  0.60085  0.11174  0.36426  1.0000
  H   H1181     1.0  0.59902  0.12494  0.31749  1.0000
  H   H1182     1.0  0.61384  0.05910  0.28835  1.0000
  H   H1183     1.0  0.61489  0.04577  0.33514  1.0000
  C   C986      1.0  0.61717  0.06783  0.04858  1.0000
  C   C987      1.0  0.61430  0.05370  0.06991  1.0000
  C   C988      1.0  0.61527  0.06120  0.09669  1.0000
  C   C989      1.0  0.61943  0.08283  0.10228  1.0000
  C   C990      1.0  0.62208  0.09700  0.08092  1.0000
  C   C991      1.0  0.62077  0.08959  0.05414  1.0000
  H   H1184     1.0  0.61132  0.03688  0.06574  1.0000
  H   H1185     1.0  0.61303  0.05022  0.11298  1.0000
  H   H1186     1.0  0.62524  0.11376  0.08515  1.0000
  H   H1187     1.0  0.62302  0.10060  0.03786  1.0000
  C   C992      1.0  0.67172  0.18391  0.37244  1.0000
  C   C993      1.0  0.67270  0.19546  0.39679  1.0000
  C   C994      1.0  0.66030  0.18966  0.41883  1.0000
  C   C995      1.0  0.64697  0.17217  0.41680  1.0000
  C   C996      1.0  0.64631  0.16037  0.39262  1.0000
  C   C997      1.0  0.65854  0.16630  0.37053  1.0000
  H   H1188     1.0  0.68275  0.20906  0.39849  1.0000
  H   H1189     1.0  0.66085  0.19893  0.43741  1.0000
  H   H1190     1.0  0.63607  0.14693  0.39075  1.0000
  H   H1191     1.0  0.65767  0.15730  0.35177  1.0000
  C   C998      1.0  0.73507  0.16097  0.99835  1.0000
  C   C999      1.0  0.75620  0.27291  0.21810  1.0000
  C   C1000     1.0  0.54933  0.08873  0.37119  1.0000
  C   C1001     1.0  0.74384  0.21437  0.99157  1.0000
  H   H1192     1.0  0.76356  0.29020  0.31336  1.0000
  C   C1002     1.0  0.73954  0.22523  0.44351  1.0000
  H   H1193     1.0  0.71017  0.17754  0.42857  1.0000
  C   C1003     1.0  0.66129  0.03050  0.37155  1.0000
  H   H1194     1.0  0.76195  0.25730  0.16500  1.0000
  H   H1195     1.0  0.72958  0.22361  0.42557  1.0000
  C   C1004     1.0  0.74890  0.21500  0.18974  1.0000
  C   C1005     1.0  0.73481  0.21383  0.21159  1.0000
  C   C1006     1.0  0.74317  0.21362  0.23808  1.0000
  H   H1196     1.0  0.74235  0.29272  0.07706  1.0000
  H   H1197     1.0  0.76120  0.27701  0.13903  1.0000
  C   C1007     1.0  0.72977  0.32641  0.08337  1.0000
  H   H1198     1.0  0.71733  0.21291  0.20806  1.0000
  H   H1199     1.0  0.73215  0.21239  0.25470  1.0000
  H   H1200     1.0  0.68893  0.19589  0.00444  1.0000
  H   H1201     1.0  0.56964  0.10176  0.07574  1.0000
  C   C1008     1.0  0.73953  0.33384  0.41024  1.0000
  H   H1202     1.0  0.69074  0.16746  0.05620  1.0000
  H   H1203     1.0  0.70749  0.30390  0.20611  1.0000
  C   C1009     1.0  0.72096  0.29480  0.21661  1.0000
  H   H1204     1.0  0.64367  0.03710  0.37047  1.0000
  H   H1205     1.0  0.65480  0.06746  0.39959  1.0000
  S   S274      1.0  0.76319  0.24878  0.33877  1.0000
  H   H1206     1.0  0.66427  0.01933  0.35402  1.0000
  C   C1010     1.0  0.72819  0.16185  0.39587  1.0000
  C   C1011     1.0  0.74028  0.31400  0.33227  1.0000
  Fe  Fe136     1.0  0.61149  0.08088  0.98032  1.0000
  H   H1207     1.0  0.64824  0.04288  0.97540  1.0000
  C   C1012     1.0  0.51413  0.10147  0.46319  1.0000
  S   S275      1.0  0.59588  0.11535  0.98328  1.0000
  H   H1208     1.0  0.65182  0.11346  0.32718  1.0000
  Fe  Fe137     1.0  0.75753  0.22058  0.12012  1.0000
  Fe  Fe138     1.0  0.62103  0.03509  0.20834  1.0000
  H   H1209     1.0  0.67681  0.02678  0.00674  1.0000
  H   H1210     1.0  0.67011  0.14375  0.03108  1.0000
  H   H1211     1.0  0.55352  0.05516  0.00604  1.0000
  H   H1212     1.0  0.68302  0.07451  0.39940  1.0000
  H   H1213     1.0  0.73409  0.27874  0.28046  1.0000
  C   C1013     1.0  0.67069  0.06496  0.29865  1.0000
  C   C1014     1.0  0.76089  0.30650  0.32183  1.0000
  Fe  Fe139     1.0  0.75360  0.22827  0.37271  1.0000
  N   N67       1.0  0.74053  0.28663  0.17292  1.0000
  H   H1214     1.0  0.65173  0.01975  0.05505  1.0000
  H   H1215     1.0  0.65800  0.09610  0.28261  1.0000
  C   C1015     1.0  0.54905  0.07431  0.07060  1.0000
  H   H1216     1.0  0.73640  0.29144  0.38864  1.0000
  H   H1217     1.0  0.72223  0.27685  0.13790  1.0000
  H   H1218     1.0  0.75278  0.15194  0.18092  1.0000
  H   H1219     1.0  0.55353  0.09366  0.00622  1.0000
  C   C1016     1.0  0.70404  0.16556  0.04101  1.0000
  C   C1017     1.0  0.72606  0.17005  0.42200  1.0000
  C   C1018     1.0  0.75475  0.27165  0.00555  1.0000
  C   C1019     1.0  0.69930  0.03854  0.37223  1.0000
  Fe  Fe140     1.0  0.57362  0.05385  0.19790  1.0000
  H   H1220     1.0  0.75904  0.33544  0.25400  1.0000
  N   N68       1.0  0.53616  0.08386  0.29596  1.0000
  H   H1221     1.0  0.70345  0.02911  0.39085  1.0000
  H   H1222     1.0  0.55996  0.08041  0.38631  1.0000
  H   H1223     1.0  0.54507  0.04957  0.30349  1.0000
  C   C1020     1.0  0.53618  0.09154  0.32431  1.0000
  S   S276      1.0  0.53091  0.12329  0.46044  1.0000
  H   H1224     1.0  0.53272  0.11581  0.27746  1.0000
  H   H1225     1.0  0.57233  0.05062  0.03393  1.0000
  Fe  Fe141     1.0  0.56770  0.11674  0.45352  1.0000
  H   H1226     1.0  0.57475  0.09101  0.03138  1.0000
  C   C1021     1.0  0.67553  0.05280  0.32187  1.0000
  C   C1022     1.0  0.73695  0.33546  0.34230  1.0000
  H   H1227     1.0  0.72083  0.25965  0.16658  1.0000
  H   H1228     1.0  0.72959  0.33875  0.25786  1.0000
  H   H1229     1.0  0.71595  0.15170  0.04749  1.0000
  C   C1023     1.0  0.74862  0.15272  0.38698  1.0000
  H   H1230     1.0  0.51840  0.08125  0.01306  1.0000
  C   C1024     1.0  0.54942  0.08067  0.34476  1.0000
  C   C1025     1.0  0.76092  0.32243  0.41281  1.0000
  C   C1026     1.0  0.74515  0.27111  0.97986  1.0000
  H   H1231     1.0  0.66898  0.04146  0.14139  1.0000
  S   S277      1.0  0.58361  0.08253  0.45491  1.0000
  H   H1232     1.0  0.69354  0.12707  0.01792  1.0000
  S   S278      1.0  0.53831  0.04589  0.19180  1.0000
  C   C1027     1.0  0.71916  0.29268  0.24442  1.0000
  C   C1028     1.0  0.52307  0.11092  0.33200  1.0000
  C   C1029     1.0  0.53967  0.05805  0.08560  1.0000
  C   C1030     1.0  0.74613  0.30866  0.08415  1.0000
  C   C1031     1.0  0.54437  0.10081  0.27875  1.0000
  N   N69       1.0  0.54562  0.07539  0.04110  1.0000
  H   H1233     1.0  0.64959  0.02159  0.14823  1.0000
  H   H1234     1.0  0.70704  0.01763  0.17025  1.0000
  H   H1235     1.0  0.75023  0.14686  0.36640  1.0000
  C   C1032     1.0  0.55450  0.07173  0.12724  1.0000
  C   C1033     1.0  0.66234  0.08682  0.30062  1.0000
  C   C1034     1.0  0.56137  0.08918  0.08529  1.0000
  H   H1236     1.0  0.66892  0.02849  0.17327  1.0000
  C   C1035     1.0  0.67169  0.06203  0.34786  1.0000
  N   N70       1.0  0.67606  0.04839  0.37203  1.0000
  H   H1237     1.0  0.72401  0.31942  0.17099  1.0000
  H   H1238     1.0  0.53698  0.07700  0.44479  1.0000
  C   C1036     1.0  0.55650  0.09324  0.02838  1.0000
  S   S279      1.0  0.60066  0.04016  0.17041  1.0000
  S   S280      1.0  0.59286  0.04533  0.23581  1.0000
  H   H1239     1.0  0.55685  0.07059  0.14881  1.0000
  H   H1240     1.0  0.67302  0.05725  0.27904  1.0000
  H   H1241     1.0  0.56794  0.06516  0.29583  1.0000
  H   H1242     1.0  0.55014  0.10962  0.03630  1.0000
  C   C1037     1.0  0.72141  0.27694  0.16024  1.0000
  C   C1038     1.0  0.66693  0.02563  0.15124  1.0000
  H   H1243     1.0  0.74103  0.16567  0.01792  1.0000
  C   C1039     1.0  0.76210  0.22749  0.44148  1.0000
  C   C1040     1.0  0.67982  0.18107  0.00646  1.0000
  H   H1244     1.0  0.56046  0.06618  0.34083  1.0000
  H   H1245     1.0  0.53672  0.11419  0.39848  1.0000
  C   C1041     1.0  0.73947  0.28481  0.20251  1.0000
  C   C1042     1.0  0.66317  0.08441  0.34916  1.0000
  C   C1043     1.0  0.55032  0.06313  0.29127  1.0000
  C   C1044     1.0  0.70546  0.01375  0.14841  1.0000
  H   H1246     1.0  0.53568  0.04399  0.12465  1.0000
  C   C1045     1.0  0.74434  0.16907  0.43947  1.0000
  H   H1247     1.0  0.66357  0.02013  0.38971  1.0000
  C   C1046     1.0  0.76086  0.27520  0.16124  1.0000
  H   H1248     1.0  0.65913  0.09282  0.36787  1.0000
  H   H1249     1.0  0.51408  0.09400  0.04534  1.0000
  H   H1250     1.0  0.71236  0.18096  0.04221  1.0000
  H   H1251     1.0  0.67602  0.05017  0.41544  1.0000
  C   C1047     1.0  0.75076  0.15852  0.97801  1.0000
  C   C1048     1.0  0.51761  0.06457  0.20537  1.0000
  H   H1252     1.0  0.73020  0.26298  0.97808  1.0000
  H   H1253     1.0  0.70270  0.02665  0.35539  1.0000
  Fe  Fe142     1.0  0.75469  0.22295  0.05869  1.0000
  H   H1254     1.0  0.75350  0.31805  0.17520  1.0000
  C   C1049     1.0  0.75426  0.27101  0.24592  1.0000
  H   H1255     1.0  0.74708  0.26418  0.02221  1.0000
  C   C1050     1.0  0.52327  0.11894  0.35845  1.0000
  H   H1256     1.0  0.72104  0.34145  0.35028  1.0000
  C   C1051     1.0  0.73575  0.28075  0.25900  1.0000
  H   H1257     1.0  0.74100  0.34172  0.01534  1.0000
  H   H1258     1.0  0.73204  0.29108  0.42461  1.0000
  H   H1259     1.0  0.63377  0.02096  0.26569  1.0000
  C   C1052     1.0  0.71244  0.15836  0.99289  1.0000
  H   H1260     1.0  0.70948  0.02824  0.13695  1.0000
  H   H1261     1.0  0.70538  0.28595  0.16558  1.0000
  C   C1053     1.0  0.52164  0.07904  0.03491  1.0000
  H   H1262     1.0  0.74129  0.31189  0.14328  1.0000
  H   H1263     1.0  0.74769  0.26897  0.40830  1.0000
  H   H1264     1.0  0.53030  0.04606  0.07578  1.0000
  H   H1265     1.0  0.76335  0.29668  0.45605  1.0000
  C   C1054     1.0  0.64877  0.01009  0.26705  1.0000
  C   C1055     1.0  0.66415  0.01073  0.06750  1.0000
  H   H1266     1.0  0.71752  0.08425  0.76577  1.0000
  S   S281      1.0  0.74257  0.24394  0.59748  1.0000
  C   C1056     1.0  0.54483  0.08244  0.81854  1.0000
  C   C1057     1.0  0.53156  0.10197  0.82527  1.0000
  H   H1267     1.0  0.74139  0.26916  0.79415  1.0000
  N   N71       1.0  0.54475  0.07360  0.79069  1.0000
  C   C1058     1.0  0.72355  0.27117  0.92849  1.0000
  S   S282      1.0  0.73035  0.22424  0.52398  1.0000
  H   H1268     1.0  0.55425  0.09454  0.50322  1.0000
  S   S283      1.0  0.73090  0.20642  0.65639  1.0000
  C   C1059     1.0  0.74067  0.26716  0.77187  1.0000
  H   H1269     1.0  0.55187  0.03959  0.80092  1.0000
  Fe  Fe143     1.0  0.72709  0.24850  0.84431  1.0000
  C   C1060     1.0  0.75502  0.28038  0.95752  1.0000
  H   H1270     1.0  0.73025  0.33761  0.68889  1.0000
  Fe  Fe144     1.0  0.70921  0.20323  0.84403  1.0000
  S   S284      1.0  0.74332  0.18577  0.84194  1.0000
  S   S285      1.0  0.68095  0.18149  0.84227  1.0000
  Fe  Fe145     1.0  0.75182  0.21039  0.87317  1.0000
  H   H1271     1.0  0.56944  0.07427  0.88073  1.0000
  Fe  Fe146     1.0  0.74966  0.21112  0.81166  1.0000
  H   H1272     1.0  0.56634  0.11092  0.57158  1.0000
  S   S286      1.0  0.71741  0.22659  0.87709  1.0000
  S   S287      1.0  0.71499  0.22700  0.81122  1.0000
  Fe  Fe147     1.0  0.61912  0.12247  0.95018  1.0000
  S   S288      1.0  0.63661  0.08854  0.94999  1.0000
  S   S289      1.0  0.64035  0.15108  0.95127  1.0000
  H   H1273     1.0  0.67072  0.16290  0.47813  1.0000
  C   C1061     1.0  0.66465  0.01811  0.88387  1.0000
  C   C1062     1.0  0.76211  0.29691  0.84461  1.0000
  C   C1063     1.0  0.75934  0.20583  0.74236  1.0000
  S   S290      1.0  0.62008  0.07681  0.51821  1.0000
  Fe  Fe148     1.0  0.61115  0.08166  0.91875  1.0000
  S   S291      1.0  0.61996  0.06107  0.88189  1.0000
  C   C1064     1.0  0.75801  0.27240  0.67197  1.0000
  S   S292      1.0  0.59477  0.11591  0.91730  1.0000
  Fe  Fe149     1.0  0.61304  0.09093  0.67207  1.0000
  S   S293      1.0  0.61775  0.11413  0.63803  1.0000
  Fe  Fe150     1.0  0.60915  0.09040  0.73344  1.0000
  H   H1274     1.0  0.73315  0.30373  0.90003  1.0000
  S   S294      1.0  0.61260  0.11088  0.77101  1.0000
  Fe  Fe151     1.0  0.57885  0.06546  0.69806  1.0000
  C   C1065     1.0  0.74876  0.34182  0.84212  1.0000
  S   S295      1.0  0.63770  0.08418  0.70572  1.0000
  S   S296      1.0  0.58527  0.10077  0.70024  1.0000
  H   H1275     1.0  0.52133  0.11073  0.81027  1.0000
  H   H1276     1.0  0.63910  0.15079  0.49855  1.0000
  C   C1066     1.0  0.54752  0.06415  0.61447  1.0000
  N   N72       1.0  0.74531  0.28031  0.93003  1.0000
  H   H1277     1.0  0.57413  0.09888  0.52879  1.0000
  H   H1278     1.0  0.53957  0.10012  0.70979  1.0000
  C   C1067     1.0  0.52181  0.07071  0.78161  1.0000
  Fe  Fe152     1.0  0.75238  0.22341  0.56116  1.0000
  S   S297      1.0  0.75889  0.19276  0.58524  1.0000
  H   H1279     1.0  0.69853  0.13133  0.83731  1.0000
  H   H1280     1.0  0.66663  0.05956  0.74943  1.0000
  C   C1068     1.0  0.56043  0.09767  0.58259  1.0000
  H   H1281     1.0  0.75821  0.27076  0.65025  1.0000
  C   C1069     1.0  0.61787  0.07515  0.85128  1.0000
  C   C1070     1.0  0.61684  0.09800  0.85059  1.0000
  C   C1071     1.0  0.61534  0.10884  0.82589  1.0000
  C   C1072     1.0  0.61478  0.09691  0.80176  1.0000
  C   C1073     1.0  0.61602  0.07407  0.80249  1.0000
  C   C1074     1.0  0.61772  0.06321  0.82713  1.0000
  H   H1282     1.0  0.61764  0.10734  0.86900  1.0000
  H   H1283     1.0  0.61459  0.12652  0.82557  1.0000
  H   H1284     1.0  0.61602  0.06466  0.78413  1.0000
  H   H1285     1.0  0.61882  0.04552  0.82749  1.0000
  C   C1075     1.0  0.61888  0.08772  0.55124  1.0000
  C   C1076     1.0  0.61563  0.11025  0.55639  1.0000
  C   C1077     1.0  0.61542  0.11822  0.58308  1.0000
  C   C1078     1.0  0.61800  0.10371  0.60473  1.0000
  C   C1079     1.0  0.62082  0.08121  0.59950  1.0000
  C   C1080     1.0  0.62143  0.07328  0.57289  1.0000
  H   H1286     1.0  0.61351  0.12147  0.53984  1.0000
  H   H1287     1.0  0.61313  0.13565  0.58699  1.0000
  H   H1288     1.0  0.62300  0.06988  0.61594  1.0000
  H   H1289     1.0  0.62403  0.05584  0.56907  1.0000
  C   C1081     1.0  0.66966  0.17332  0.87269  1.0000
  C   C1082     1.0  0.65488  0.15704  0.87218  1.0000
  C   C1083     1.0  0.64591  0.15004  0.89611  1.0000
  C   C1084     1.0  0.65117  0.15965  0.92073  1.0000
  C   C1085     1.0  0.66557  0.17626  0.92113  1.0000
  C   C1086     1.0  0.67504  0.18283  0.89731  1.0000
  H   H1290     1.0  0.65047  0.14960  0.85332  1.0000
  H   H1291     1.0  0.63478  0.13731  0.89548  1.0000
  H   H1292     1.0  0.66948  0.18416  0.93989  1.0000
  H   H1293     1.0  0.68622  0.19550  0.89802  1.0000
  H   H1294     1.0  0.54151  0.06576  0.95292  1.0000
  H   H1295     1.0  0.63333  0.15579  0.53316  1.0000
  H   H1296     1.0  0.56970  0.05817  0.83618  1.0000
  C   C1087     1.0  0.74275  0.22593  0.49240  1.0000
  S   S298      1.0  0.60533  0.05600  0.66791  1.0000
  C   C1088     1.0  0.73945  0.20880  0.94335  1.0000
  Fe  Fe153     1.0  0.57333  0.10510  0.95010  1.0000
  C   C1089     1.0  0.73386  0.32662  0.49903  1.0000
  H   H1297     1.0  0.73006  0.25567  0.72457  1.0000
  H   H1298     1.0  0.72879  0.20679  0.92620  1.0000
  C   C1090     1.0  0.74211  0.20639  0.68936  1.0000
  C   C1091     1.0  0.72793  0.20722  0.71143  1.0000
  C   C1092     1.0  0.73650  0.20698  0.73788  1.0000
  C   C1093     1.0  0.69752  0.19419  0.57364  1.0000
  C   C1094     1.0  0.54545  0.06268  0.58648  1.0000
  H   H1299     1.0  0.67955  0.11534  0.87469  1.0000
  H   H1300     1.0  0.71028  0.20821  0.70802  1.0000
  H   H1301     1.0  0.72548  0.20747  0.75472  1.0000
  C   C1095     1.0  0.74240  0.26258  0.68657  1.0000
  C   C1096     1.0  0.70030  0.08199  0.75925  1.0000
  C   C1097     1.0  0.76237  0.20651  0.94043  1.0000
  H   H1302     1.0  0.71635  0.32110  0.59530  1.0000
  C   C1098     1.0  0.55178  0.07945  0.56963  1.0000
  S   S299      1.0  0.58781  0.07034  0.94880  1.0000
  H   H1303     1.0  0.54611  0.11176  0.53107  1.0000
  H   H1304     1.0  0.64975  0.01401  0.80471  1.0000
  H   H1305     1.0  0.54547  0.10792  0.89135  1.0000
  C   C1099     1.0  0.66371  0.01177  0.73866  1.0000
  H   H1306     1.0  0.52479  0.07303  0.50986  1.0000
  C   C1100     1.0  0.73366  0.32294  0.59902  1.0000
  H   H1307     1.0  0.55795  0.08316  0.64813  1.0000
  H   H1308     1.0  0.53936  0.04806  0.57806  1.0000
  C   C1101     1.0  0.67259  0.17401  0.54544  1.0000
  H   H1309     1.0  0.69159  0.09814  0.75387  1.0000
  C   C1102     1.0  0.69479  0.10411  0.81005  1.0000
  C   C1103     1.0  0.67993  0.16457  0.59278  1.0000
  C   C1104     1.0  0.55856  0.08179  0.86528  1.0000
  S   S300      1.0  0.54459  0.05428  0.69331  1.0000
  C   C1105     1.0  0.68704  0.19072  0.54899  1.0000
  S   S301      1.0  0.60049  0.05573  0.73364  1.0000
  C   C1106     1.0  0.66931  0.16096  0.56819  1.0000
  H   H1310     1.0  0.56959  0.11274  0.62003  1.0000
  N   N73       1.0  0.66158  0.17091  0.51910  1.0000
  H   H1311     1.0  0.54314  0.05096  0.62703  1.0000
  C   C1107     1.0  0.64777  0.19126  0.51190  1.0000
  N   N74       1.0  0.68832  0.07107  0.78022  1.0000
  C   C1108     1.0  0.66598  0.06818  0.76931  1.0000
  H   H1312     1.0  0.70145  0.07210  0.74026  1.0000
  C   C1109     1.0  0.70023  0.04917  0.78470  1.0000
  C   C1110     1.0  0.68634  0.08344  0.80599  1.0000
  C   C1111     1.0  0.67534  0.07496  0.82796  1.0000
  C   C1112     1.0  0.67307  0.08635  0.85241  1.0000
  C   C1113     1.0  0.55789  0.05207  0.78755  1.0000
  C   C1114     1.0  0.74811  0.29215  0.51861  1.0000
  H   H1313     1.0  0.65666  0.05821  0.78265  1.0000
  H   H1314     1.0  0.63844  0.18930  0.49272  1.0000
  N   N75       1.0  0.75859  0.27770  0.75866  1.0000
  H   H1315     1.0  0.74123  0.30990  0.75836  1.0000
  H   H1316     1.0  0.69161  0.03922  0.79892  1.0000
  C   C1115     1.0  0.73386  0.30387  0.50072  1.0000
  H   H1317     1.0  0.71711  0.05054  0.79308  1.0000
  H   H1318     1.0  0.66812  0.05955  0.82631  1.0000
  H   H1319     1.0  0.66430  0.07970  0.86877  1.0000
  H   H1320     1.0  0.70336  0.11193  0.79463  1.0000
  H   H1321     1.0  0.65862  0.14786  0.56759  1.0000
  C   C1116     1.0  0.52677  0.07423  0.53206  1.0000
  H   H1322     1.0  0.57088  0.09282  0.77977  1.0000
  C   C1117     1.0  0.73300  0.32647  0.84306  1.0000
  H   H1323     1.0  0.70848  0.20710  0.57572  1.0000
  H   H1324     1.0  0.70229  0.18391  0.61456  1.0000
  C   C1118     1.0  0.69225  0.11543  0.83459  1.0000
  N   N76       1.0  0.65001  0.16909  0.76698  1.0000
  C   C1119     1.0  0.62553  0.17286  0.76800  1.0000
  C   C1120     1.0  0.65745  0.15098  0.78526  1.0000
  C   C1121     1.0  0.65897  0.18932  0.77746  1.0000
  C   C1122     1.0  0.65733  0.16306  0.73938  1.0000
  C   C1123     1.0  0.67550  0.17197  0.72730  1.0000
  C   C1124     1.0  0.64682  0.14719  0.72405  1.0000
  C   C1125     1.0  0.68186  0.16614  0.70106  1.0000
  C   C1126     1.0  0.65314  0.14171  0.69774  1.0000
  C   C1127     1.0  0.67056  0.15122  0.68625  1.0000
  H   H1325     1.0  0.61730  0.15757  0.76508  1.0000
  H   H1326     1.0  0.61980  0.17938  0.78795  1.0000
  H   H1327     1.0  0.61899  0.18470  0.75244  1.0000
  H   H1328     1.0  0.65074  0.13540  0.77906  1.0000
  H   H1329     1.0  0.65200  0.15469  0.80620  1.0000
  H   H1330     1.0  0.67577  0.14809  0.78588  1.0000
  H   H1331     1.0  0.65510  0.20326  0.76360  1.0000
  H   H1332     1.0  0.65198  0.19444  0.79740  1.0000
  H   H1333     1.0  0.67713  0.18694  0.78110  1.0000
  H   H1334     1.0  0.68507  0.18353  0.73764  1.0000
  H   H1335     1.0  0.63356  0.13888  0.73216  1.0000
  H   H1336     1.0  0.69560  0.17332  0.69205  1.0000
  H   H1337     1.0  0.64440  0.13008  0.68606  1.0000
  H   H1338     1.0  0.67534  0.14691  0.66583  1.0000
  H   H1339     1.0  0.63619  0.02763  0.76020  1.0000
  C   C1128     1.0  0.64703  0.15275  0.51865  1.0000
  C   C1129     1.0  0.53170  0.11092  0.85129  1.0000
  C   C1130     1.0  0.68151  0.10652  0.85572  1.0000
  S   S302      1.0  0.71910  0.28532  0.84570  1.0000
  H   H1340     1.0  0.71248  0.21438  0.97087  1.0000
  C   C1131     1.0  0.75651  0.30112  0.76697  1.0000
  H   H1341     1.0  0.55694  0.04554  0.76656  1.0000
  C   C1132     1.0  0.72241  0.15108  0.94574  1.0000
  S   S303      1.0  0.53626  0.11366  0.95117  1.0000
  H   H1342     1.0  0.74199  0.24921  0.76779  1.0000
  N   N77       1.0  0.54991  0.07723  0.54002  1.0000
  H   H1343     1.0  0.70177  0.03930  0.76573  1.0000
  C   C1133     1.0  0.51796  0.09385  0.95828  1.0000
  H   H1344     1.0  0.64969  0.03450  0.92781  1.0000
  H   H1345     1.0  0.63552  0.19606  0.52778  1.0000
  C   C1134     1.0  0.55852  0.07267  0.83937  1.0000
  C   C1135     1.0  0.56238  0.09897  0.61059  1.0000
  C   C1136     1.0  0.55595  0.08228  0.62647  1.0000
  C   C1137     1.0  0.69402  0.18114  0.59550  1.0000
  H   H1346     1.0  0.52172  0.12603  0.85591  1.0000
  H   H1347     1.0  0.71126  0.28046  0.94163  1.0000
  H   H1348     1.0  0.69041  0.20132  0.53268  1.0000
  C   C1138     1.0  0.52396  0.09339  0.71183  1.0000
  H   H1349     1.0  0.65606  0.08421  0.76675  1.0000
  Fe  Fe154     1.0  0.62783  0.04987  0.70401  1.0000
  C   C1139     1.0  0.67846  0.16604  0.49810  1.0000
  C   C1140     1.0  0.65148  0.01726  0.76172  1.0000
  H   H1350     1.0  0.55589  0.08254  0.75179  1.0000
  C   C1141     1.0  0.73957  0.30396  0.84425  1.0000
  H   H1351     1.0  0.58173  0.05887  0.53806  1.0000
  H   H1352     1.0  0.67721  0.15444  0.60984  1.0000
  H   H1353     1.0  0.65775  0.20528  0.50893  1.0000
  H   H1354     1.0  0.57574  0.05331  0.79182  1.0000
  C   C1142     1.0  0.73022  0.21282  0.96881  1.0000
  C   C1143     1.0  0.55418  0.08919  0.77265  1.0000
  C   C1144     1.0  0.52472  0.07142  0.95787  1.0000
  S   S304      1.0  0.76203  0.23392  0.84279  1.0000
  H   H1355     1.0  0.75461  0.33680  0.66866  1.0000
  C   C1145     1.0  0.52185  0.07160  0.70461  1.0000
  H   H1356     1.0  0.71647  0.27183  0.90767  1.0000
  H   H1357     1.0  0.71738  0.14779  0.92520  1.0000
  H   H1358     1.0  0.74791  0.27453  0.52014  1.0000
  H   H1359     1.0  0.72260  0.29521  0.48836  1.0000
  C   C1146     1.0  0.74864  0.30431  0.60170  1.0000
  H   H1360     1.0  0.56485  0.05646  0.50855  1.0000
  S   S305      1.0  0.59218  0.13011  0.48225  1.0000
  H   H1361     1.0  0.72405  0.27447  0.76534  1.0000
  H   H1362     1.0  0.65642  0.13673  0.52311  1.0000
  C   C1147     1.0  0.55639  0.09650  0.52535  1.0000
  C   C1148     1.0  0.74792  0.33842  0.51566  1.0000
  H   H1363     1.0  0.68877  0.17981  0.49520  1.0000
  H   H1364     1.0  0.74277  0.28839  0.59990  1.0000
  H   H1365     1.0  0.55908  0.04226  0.53836  1.0000
  C   C1149     1.0  0.56441  0.05785  0.53089  1.0000
  S   S306      1.0  0.65570  0.02288  0.70712  1.0000
  H   H1366     1.0  0.73229  0.31402  0.93395  1.0000
  H   H1367     1.0  0.66545  0.03612  0.88528  1.0000
  H   H1368     1.0  0.72496  0.25361  0.93417  1.0000
  H   H1369     1.0  0.54382  0.10506  0.77139  1.0000
  H   H1370     1.0  0.52106  0.05898  0.54000  1.0000
  Fe  Fe155     1.0  0.60922  0.09628  0.48135  1.0000
  H   H1371     1.0  0.75567  0.30316  0.78919  1.0000
  C   C1150     1.0  0.75799  0.27584  0.72894  1.0000
  H   H1372     1.0  0.73056  0.25326  0.67603  1.0000
  C   C1151     1.0  0.54514  0.10081  0.87127  1.0000
  H   H1373     1.0  0.68970  0.15131  0.50328  1.0000
  H   H1374     1.0  0.71560  0.33210  0.84284  1.0000
  C   C1152     1.0  0.74210  0.30300  0.91974  1.0000
  Fe  Fe156     1.0  0.75281  0.21417  0.62190  1.0000
  C   C1153     1.0  0.74233  0.26414  0.71463  1.0000
  C   C1154     1.0  0.76238  0.32592  0.53357  1.0000
  H   H1375     1.0  0.70674  0.02822  0.89465  1.0000
  H   H1376     1.0  0.75795  0.31007  0.91624  1.0000
  C   C1155     1.0  0.76046  0.26693  0.91193  1.0000
  H   H1377     1.0  0.75651  0.15281  0.93590  1.0000
  C   C1156     1.0  0.66280  0.02681  0.94030  1.0000
  H   H1378     1.0  0.75334  0.26587  0.89126  1.0000
  H   H1379     1.0  0.52142  0.06253  0.76151  1.0000
  H   H1380     1.0  0.51526  0.08824  0.53910  1.0000
  H   H1381     1.0  0.51491  0.03883  0.96291  1.0000
  H   H1382     1.0  0.68979  0.15103  0.96030  1.0000
  C   C1157     1.0  0.66174  0.03185  0.96777  1.0000
  C   C1158     1.0  0.74442  0.15379  0.95174  1.0000
  H   H1383     1.0  0.76387  0.24992  0.91945  1.0000
  C   C1159     1.0  0.70667  0.15312  0.96599  1.0000
  C   C1160     1.0  0.68026  0.01226  0.92982  1.0000
  H   H1384     1.0  0.66644  0.01345  0.86228  1.0000
  H   H1385     1.0  0.64774  0.01439  0.88937  1.0000
  H   H1386     1.0  0.72248  0.33497  0.48487  1.0000
  C   C1161     1.0  0.76244  0.30314  0.53482  1.0000
  C   C1162     1.0  0.70373  0.01086  0.89071  1.0000
  H   H1387     1.0  0.62187  0.55978  0.31191  1.0000
  S   S307      1.0  0.62793  0.55963  0.04195  1.0000
  Fe  Fe157     1.0  0.71093  0.45213  0.10045  1.0000
  C   C1163     1.0  0.70473  0.52080  0.17412  1.0000
  S   S308      1.0  0.68393  0.48000  0.10361  1.0000
  Fe  Fe158     1.0  0.72527  0.40345  0.09416  1.0000
  H   H1388     1.0  0.68010  0.66216  0.11872  1.0000
  S   S309      1.0  0.71416  0.36947  0.08960  1.0000
  C   C1164     1.0  0.56104  0.57036  0.08882  1.0000
  C   C1165     1.0  0.72937  0.49038  0.20613  1.0000
  C   C1166     1.0  0.73666  0.35674  0.40988  1.0000
  C   C1167     1.0  0.64633  0.65943  0.03617  1.0000
  S   S310      1.0  0.71777  0.42514  0.13014  1.0000
  S   S311      1.0  0.71478  0.42965  0.06418  1.0000
  Fe  Fe159     1.0  0.60064  0.57700  0.25285  1.0000
  S   S312      1.0  0.59192  0.54226  0.25090  1.0000
  S   S313      1.0  0.59773  0.59902  0.29002  1.0000
  Fe  Fe160     1.0  0.60366  0.57943  0.19126  1.0000
  S   S314      1.0  0.59443  0.54527  0.18498  1.0000
  H   H1389     1.0  0.64295  0.60864  0.37381  1.0000
  Fe  Fe161     1.0  0.56931  0.55367  0.21681  1.0000
  Fe  Fe162     1.0  0.61810  0.53734  0.21914  1.0000
  S   S315      1.0  0.64331  0.50780  0.21734  1.0000
  S   S316      1.0  0.57654  0.58859  0.22028  1.0000
  S   S317      1.0  0.62887  0.57131  0.22392  1.0000
  H   H1390     1.0  0.59311  0.60695  0.38789  1.0000
  C   C1168     1.0  0.73975  0.43649  0.46498  1.0000
  S   S318      1.0  0.73818  0.44068  0.27884  1.0000
  C   C1169     1.0  0.61552  0.57005  0.32840  1.0000
  C   C1170     1.0  0.61813  0.60314  0.10353  1.0000
  C   C1171     1.0  0.67238  0.66791  0.41609  1.0000
  Fe  Fe163     1.0  0.75294  0.43285  0.12696  1.0000
  C   C1172     1.0  0.72295  0.36529  0.21363  1.0000
  C   C1173     1.0  0.72654  0.38178  0.26989  1.0000
  H   H1391     1.0  0.71051  0.37491  0.26630  1.0000
  C   C1174     1.0  0.52611  0.57612  0.46849  1.0000
  H   H1392     1.0  0.57332  0.56149  0.10145  1.0000
  C   C1175     1.0  0.66432  0.61781  0.14984  1.0000
  N   N78       1.0  0.69904  0.67491  0.16636  1.0000
  C   C1176     1.0  0.58069  0.65076  0.09118  1.0000
  S   S319      1.0  0.75428  0.40875  0.34224  1.0000
  C   C1177     1.0  0.68721  0.65522  0.16107  1.0000
  H   H1393     1.0  0.72471  0.39901  0.26294  1.0000
  H   H1394     1.0  0.67030  0.61413  0.36630  1.0000
  H   H1395     1.0  0.76279  0.67270  0.00419  1.0000
  H   H1396     1.0  0.55487  0.58489  0.02336  1.0000
  H   H1397     1.0  0.64288  0.50855  0.03495  1.0000
  N   N79       1.0  0.53537  0.57609  0.12789  1.0000
  H   H1398     1.0  0.54517  0.56767  0.97605  1.0000
  C   C1178     1.0  0.73272  0.49056  0.17843  1.0000
  C   C1179     1.0  0.71680  0.65536  0.46957  1.0000
  H   H1399     1.0  0.53105  0.59028  0.22058  1.0000
  C   C1180     1.0  0.71993  0.36728  0.18582  1.0000
  H   H1400     1.0  0.72582  0.37952  0.02178  1.0000
  C   C1181     1.0  0.73549  0.43394  0.22466  1.0000
  C   C1182     1.0  0.74381  0.43293  0.19855  1.0000
  H   H1401     1.0  0.71817  0.43224  0.22771  1.0000
  H   H1402     1.0  0.73285  0.43060  0.18183  1.0000
  C   C1183     1.0  0.57218  0.65585  0.06554  1.0000
  C   C1184     1.0  0.51538  0.58543  0.21363  1.0000
  H   H1403     1.0  0.66883  0.61048  0.19159  1.0000
  C   C1185     1.0  0.59651  0.66299  0.10298  1.0000
  C   C1186     1.0  0.75842  0.67199  0.98302  1.0000
  H   H1404     1.0  0.72918  0.44325  0.00435  1.0000
  C   C1187     1.0  0.74264  0.38383  0.02725  1.0000
  C   C1188     1.0  0.67221  0.48703  0.13519  1.0000
  C   C1189     1.0  0.65803  0.50632  0.13780  1.0000
  C   C1190     1.0  0.64891  0.51268  0.16282  1.0000
  C   C1191     1.0  0.65366  0.49965  0.18537  1.0000
  C   C1192     1.0  0.66762  0.48022  0.18268  1.0000
  C   C1193     1.0  0.67696  0.47399  0.15774  1.0000
  H   H1405     1.0  0.65432  0.51655  0.12051  1.0000
  H   H1406     1.0  0.63843  0.52779  0.16470  1.0000
  H   H1407     1.0  0.67131  0.46993  0.19988  1.0000
  H   H1408     1.0  0.68783  0.45912  0.15603  1.0000
  C   C1194     1.0  0.62420  0.57134  0.07421  1.0000
  C   C1195     1.0  0.62242  0.55781  0.09634  1.0000
  C   C1196     1.0  0.61796  0.56699  0.12191  1.0000
  C   C1197     1.0  0.61537  0.58971  0.12546  1.0000
  H   H1409     1.0  0.62405  0.54021  0.09364  1.0000
  H   H1410     1.0  0.61651  0.55643  0.13875  1.0000
  C   C1198     1.0  0.67853  0.65104  0.13504  1.0000
  C   C1199     1.0  0.60273  0.58966  0.32313  1.0000
  C   C1200     1.0  0.59459  0.60287  0.34474  1.0000
  C   C1201     1.0  0.59944  0.59667  0.37144  1.0000
  H   H1411     1.0  0.58460  0.61803  0.34076  1.0000
  N   N80       1.0  0.65435  0.63611  0.39584  1.0000
  H   H1412     1.0  0.66000  0.63009  0.43833  1.0000
  S   S320      1.0  0.59192  0.57183  0.97790  1.0000
  H   H1413     1.0  0.74038  0.51564  0.25847  1.0000
  H   H1414     1.0  0.55301  0.60317  0.14143  1.0000
  C   C1202     1.0  0.63160  0.64610  0.40070  1.0000
  C   C1203     1.0  0.52789  0.57309  0.97367  1.0000
  H   H1415     1.0  0.60317  0.65881  0.12279  1.0000
  N   N81       1.0  0.74518  0.36899  0.25625  1.0000
  C   C1204     1.0  0.68322  0.64014  0.18150  1.0000
  H   H1416     1.0  0.68778  0.53188  0.20915  1.0000
  H   H1417     1.0  0.62613  0.65817  0.38492  1.0000
  S   S321      1.0  0.53952  0.61546  0.98092  1.0000
  C   C1205     1.0  0.73464  0.34732  0.09189  1.0000
  C   C1206     1.0  0.66937  0.65367  0.39387  1.0000
  C   C1207     1.0  0.53434  0.58854  0.34151  1.0000
  H   H1418     1.0  0.52072  0.57646  0.40477  1.0000
  H   H1419     1.0  0.75968  0.36610  0.10890  1.0000
  C   C1208     1.0  0.75501  0.43327  0.44409  1.0000
  H   H1420     1.0  0.54875  0.58807  0.32883  1.0000
  H   H1421     1.0  0.67861  0.61428  0.41631  1.0000
  H   H1422     1.0  0.72152  0.66016  0.19627  1.0000
  N   N82       1.0  0.70913  0.50381  0.24787  1.0000
  C   C1209     1.0  0.69777  0.48394  0.25264  1.0000
  C   C1210     1.0  0.73021  0.50218  0.26354  1.0000
  C   C1211     1.0  0.69501  0.52289  0.25872  1.0000
  C   C1212     1.0  0.66745  0.63250  0.12954  1.0000
  C   C1213     1.0  0.56604  0.57242  0.06174  1.0000
  C   C1214     1.0  0.62083  0.56413  0.35509  1.0000
  H   H1423     1.0  0.70732  0.46897  0.24488  1.0000
  H   H1424     1.0  0.69521  0.48139  0.27442  1.0000
  H   H1425     1.0  0.68131  0.48493  0.24246  1.0000
  H   H1426     1.0  0.72736  0.50280  0.28559  1.0000
  C   C1215     1.0  0.52233  0.53446  0.32734  1.0000
  C   C1216     1.0  0.64972  0.66787  0.01077  1.0000
  H   H1427     1.0  0.69298  0.52184  0.28083  1.0000
  H   H1428     1.0  0.70211  0.53852  0.25455  1.0000
  H   H1429     1.0  0.65569  0.60347  0.14556  1.0000
  Fe  Fe164     1.0  0.76269  0.43341  0.31252  1.0000
  H   H1430     1.0  0.63132  0.54926  0.35901  1.0000
  C   C1217     1.0  0.73642  0.37466  0.17020  1.0000
  H   H1431     1.0  0.69443  0.66108  0.97435  1.0000
  H   H1432     1.0  0.61711  0.62064  0.10636  1.0000
  C   C1218     1.0  0.62239  0.59403  0.07795  1.0000
  C   C1219     1.0  0.65453  0.66960  0.05933  1.0000
  H   H1433     1.0  0.64672  0.63158  0.35363  1.0000
  S   S322      1.0  0.59438  0.62395  0.44832  1.0000
  H   H1434     1.0  0.72793  0.66120  0.14539  1.0000
  H   H1435     1.0  0.56895  0.57721  0.14277  1.0000
  S   S323      1.0  0.62226  0.57070  0.40958  1.0000
  Fe  Fe165     1.0  0.61666  0.58225  0.00815  1.0000
  S   S324      1.0  0.60868  0.60195  0.15686  1.0000
  H   H1436     1.0  0.64912  0.48093  0.02289  1.0000
  C   C1220     1.0  0.71337  0.50532  0.21873  1.0000
  C   C1221     1.0  0.75598  0.38011  0.18230  1.0000
  Fe  Fe166     1.0  0.75031  0.43655  0.06549  1.0000
  H   H1437     1.0  0.74449  0.47845  0.16920  1.0000
  C   C1222     1.0  0.54053  0.57925  0.09931  1.0000
  C   C1223     1.0  0.65368  0.62215  0.37124  1.0000
  S   S325      1.0  0.74582  0.46119  0.09928  1.0000
  H   H1438     1.0  0.54303  0.57324  0.46231  1.0000
  C   C1224     1.0  0.73624  0.67485  0.97493  1.0000
  C   C1225     1.0  0.68068  0.65775  0.36990  1.0000
  H   H1439     1.0  0.62458  0.60458  0.06125  1.0000
  H   H1440     1.0  0.70458  0.36346  0.17629  1.0000
  S   S326      1.0  0.59936  0.61586  0.01394  1.0000
  H   H1441     1.0  0.58165  0.56515  0.05409  1.0000
  H   H1442     1.0  0.55257  0.54365  0.13098  1.0000
  H   H1443     1.0  0.66110  0.62954  0.10947  1.0000
  H   H1444     1.0  0.56022  0.64853  0.01170  1.0000
  C   C1226     1.0  0.75777  0.34645  0.02044  1.0000
  S   S327      1.0  0.53498  0.54310  0.21140  1.0000
  C   C1227     1.0  0.61304  0.57751  0.37668  1.0000
  H   H1445     1.0  0.68849  0.64222  0.20208  1.0000
  H   H1446     1.0  0.72239  0.50532  0.14083  1.0000
  H   H1447     1.0  0.53092  0.54928  0.15429  1.0000
  H   H1448     1.0  0.69877  0.48107  0.97806  1.0000
  C   C1228     1.0  0.66129  0.62150  0.41855  1.0000
  H   H1449     1.0  0.74029  0.48636  0.26014  1.0000
  H   H1450     1.0  0.57525  0.63701  0.10192  1.0000
  H   H1451     1.0  0.61957  0.63353  0.40067  1.0000
  H   H1452     1.0  0.72237  0.43990  0.46022  1.0000
  C   C1229     1.0  0.75157  0.65950  0.44642  1.0000
  C   C1230     1.0  0.68625  0.49434  0.97413  1.0000
  Fe  Fe167     1.0  0.61062  0.58966  0.44689  1.0000
  N   N83       1.0  0.67695  0.50017  0.02373  1.0000
  C   C1231     1.0  0.69379  0.48144  0.02853  1.0000
  C   C1232     1.0  0.68397  0.51929  0.03907  1.0000
  C   C1233     1.0  0.65575  0.49441  0.03475  1.0000
  C   C1234     1.0  0.67394  0.50572  0.99496  1.0000
  Fe  Fe168     1.0  0.62143  0.62511  0.98102  1.0000
  H   H1453     1.0  0.54064  0.53853  0.29142  1.0000
  C   C1235     1.0  0.75858  0.37253  0.98440  1.0000
  H   H1454     1.0  0.73388  0.37650  0.14871  1.0000
  C   C1236     1.0  0.65809  0.52293  0.98700  1.0000
  H   H1455     1.0  0.71041  0.48497  0.02171  1.0000
  H   H1456     1.0  0.69571  0.47769  0.05025  1.0000
  H   H1457     1.0  0.68909  0.46622  0.01847  1.0000
  H   H1458     1.0  0.69951  0.52464  0.03104  1.0000
  H   H1459     1.0  0.68676  0.51545  0.06077  1.0000
  H   H1460     1.0  0.67129  0.53357  0.03848  1.0000
  C   C1237     1.0  0.52458  0.54067  0.30082  1.0000
  H   H1461     1.0  0.65764  0.48904  0.05601  1.0000
  C   C1238     1.0  0.75584  0.35029  0.10160  1.0000
  S   S328      1.0  0.74532  0.43573  0.41058  1.0000
  C   C1239     1.0  0.55094  0.58352  0.04436  1.0000
  C   C1240     1.0  0.74521  0.34568  0.26366  1.0000
  H   H1462     1.0  0.64817  0.53235  0.00163  1.0000
  H   H1463     1.0  0.52433  0.54434  0.11958  1.0000
  H   H1464     1.0  0.63727  0.64520  0.03803  1.0000
  H   H1465     1.0  0.72902  0.38232  0.29212  1.0000
  H   H1466     1.0  0.67911  0.64814  0.35177  1.0000
  H   H1467     1.0  0.72031  0.36513  0.40707  1.0000
  H   H1468     1.0  0.53666  0.52763  0.33863  1.0000
  C   C1241     1.0  0.74937  0.43759  0.24661  1.0000
  H   H1469     1.0  0.65155  0.66314  0.07887  1.0000
  H   H1470     1.0  0.55273  0.57535  0.37564  1.0000
  C   C1242     1.0  0.74154  0.44129  0.98893  1.0000
  N   N84       1.0  0.76033  0.36957  0.01387  1.0000
  C   C1243     1.0  0.67194  0.62174  0.17579  1.0000
  C   C1244     1.0  0.70105  0.52058  0.20178  1.0000
  H   H1471     1.0  0.73899  0.47798  0.21746  1.0000
  H   H1472     1.0  0.69985  0.65119  0.46907  1.0000
  C   C1245     1.0  0.53583  0.55235  0.13333  1.0000
  H   H1473     1.0  0.69456  0.53203  0.16145  1.0000
  C   C1246     1.0  0.53069  0.59256  0.05391  1.0000
  C   C1247     1.0  0.52541  0.59052  0.08097  1.0000
  H   H1474     1.0  0.65066  0.60771  0.41992  1.0000
  H   H1475     1.0  0.73946  0.65925  0.39194  1.0000
  H   H1476     1.0  0.63009  0.65473  0.42052  1.0000
  H   H1477     1.0  0.67792  0.52370  0.25017  1.0000
  H   H1478     1.0  0.75165  0.36519  0.35162  1.0000
  C   C1248     1.0  0.75467  0.64896  0.39815  1.0000
  C   C1249     1.0  0.72944  0.65373  0.44623  1.0000
  H   H1479     1.0  0.59719  0.66196  0.00383  1.0000
  H   H1480     1.0  0.75255  0.38665  0.41092  1.0000
  C   C1250     1.0  0.74256  0.37101  0.22672  1.0000
  S   S329      1.0  0.64007  0.59179  0.97699  1.0000
  C   C1251     1.0  0.52073  0.59537  0.97565  1.0000
  C   C1252     1.0  0.75481  0.36892  0.41198  1.0000
  S   S330      1.0  0.63940  0.65607  0.98095  1.0000
  H   H1481     1.0  0.51889  0.60091  0.04005  1.0000
  H   H1482     1.0  0.56017  0.64550  0.05758  1.0000
  C   C1253     1.0  0.53653  0.58133  0.36788  1.0000
  C   C1254     1.0  0.55209  0.58551  0.14548  1.0000
  C   C1255     1.0  0.72038  0.50573  0.16244  1.0000
  H   H1483     1.0  0.53876  0.66666  0.02705  1.0000
  C   C1256     1.0  0.70989  0.67506  0.19332  1.0000
  H   H1484     1.0  0.74390  0.38253  0.04947  1.0000
  C   C1257     1.0  0.55336  0.66590  0.01377  1.0000
  H   H1485     1.0  0.72501  0.36290  0.98076  1.0000
  H   H1486     1.0  0.51837  0.54358  0.45743  1.0000
  H   H1487     1.0  0.54833  0.58389  0.16715  1.0000
  H   H1488     1.0  0.70967  0.35954  0.22491  1.0000
  H   H1489     1.0  0.72139  0.64817  0.42830  1.0000
  C   C1258     1.0  0.76391  0.43870  0.99612  1.0000
  Fe  Fe169     1.0  0.57649  0.60621  0.98076  1.0000
  C   C1259     1.0  0.69408  0.67502  0.36850  1.0000
  C   C1260     1.0  0.51806  0.58205  0.38437  1.0000
  H   H1490     1.0  0.75056  0.63200  0.40192  1.0000
  H   H1491     1.0  0.54707  0.67081  0.99340  1.0000
  S   S331      1.0  0.76102  0.40907  0.09327  1.0000
  C   C1261     1.0  0.75910  0.37842  0.21014  1.0000
  H   H1492     1.0  0.74361  0.40130  0.02212  1.0000
  C   C1262     1.0  0.75427  0.34907  0.34284  1.0000
  H   H1493     1.0  0.66390  0.66619  0.43475  1.0000
  C   C1263     1.0  0.57932  0.67361  0.05094  1.0000
  H   H1494     1.0  0.74128  0.36391  0.47099  1.0000
  H   H1495     1.0  0.74714  0.34356  0.28572  1.0000
  H   H1496     1.0  0.76025  0.34336  0.04232  1.0000
  S   S332      1.0  0.60474  0.60025  0.66004  1.0000
  S   S333      1.0  0.61666  0.56214  0.54201  1.0000
  Fe  Fe170     1.0  0.71492  0.44874  0.59902  1.0000
  S   S334      1.0  0.74903  0.46000  0.59785  1.0000
  S   S335      1.0  0.68450  0.47286  0.60092  1.0000
  Fe  Fe171     1.0  0.73223  0.40062  0.59812  1.0000
  H   H1497     1.0  0.66505  0.63052  0.72989  1.0000
  S   S336      1.0  0.72133  0.36665  0.59828  1.0000
  C   C1264     1.0  0.53887  0.54708  0.82188  1.0000
  Fe  Fe172     1.0  0.75802  0.42744  0.81102  1.0000
  H   H1498     1.0  0.71302  0.38275  0.66502  1.0000
  H   H1499     1.0  0.63395  0.62205  0.70022  1.0000
  S   S337      1.0  0.72260  0.42422  0.63141  1.0000
  S   S338      1.0  0.72114  0.42402  0.56536  1.0000
  Fe  Fe173     1.0  0.60850  0.57336  0.75472  1.0000
  S   S339      1.0  0.59994  0.53863  0.75495  1.0000
  S   S340      1.0  0.61603  0.59491  0.79038  1.0000
  Fe  Fe174     1.0  0.60273  0.57634  0.69362  1.0000
  S   S341      1.0  0.59347  0.54194  0.68910  1.0000
  C   C1265     1.0  0.54364  0.56858  0.58703  1.0000
  Fe  Fe175     1.0  0.57286  0.55014  0.72562  1.0000
  Fe  Fe176     1.0  0.62140  0.53385  0.71836  1.0000
  S   S342      1.0  0.64849  0.50600  0.71508  1.0000
  S   S343      1.0  0.58006  0.58520  0.72793  1.0000
  S   S344      1.0  0.63207  0.56786  0.72049  1.0000
  H   H1500     1.0  0.61983  0.60522  0.88804  1.0000
  C   C1266     1.0  0.76004  0.66706  0.47123  1.0000
  S   S345      1.0  0.73348  0.43427  0.77725  1.0000
  C   C1267     1.0  0.72993  0.67472  0.94734  1.0000
  C   C1268     1.0  0.64410  0.64102  0.66746  1.0000
  C   C1269     1.0  0.65965  0.65438  0.65819  1.0000
  H   H1501     1.0  0.54401  0.56600  0.66583  1.0000
  H   H1502     1.0  0.53202  0.53287  0.81314  1.0000
  C   C1270     1.0  0.73518  0.44186  0.96163  1.0000
  N   N85       1.0  0.54495  0.57378  0.89082  1.0000
  Fe  Fe177     1.0  0.75706  0.43400  0.62861  1.0000
  H   H1503     1.0  0.74429  0.67265  0.90697  1.0000
  H   H1504     1.0  0.74342  0.35907  0.84111  1.0000
  C   C1271     1.0  0.73911  0.34683  0.67406  1.0000
  S   S346      1.0  0.74234  0.44183  0.90748  1.0000
  S   S347      1.0  0.74899  0.40616  0.84445  1.0000
  H   H1505     1.0  0.65711  0.66088  0.63818  1.0000
  N   N86       1.0  0.68062  0.53858  0.57633  1.0000
  H   H1506     1.0  0.72212  0.66065  0.68804  1.0000
  H   H1507     1.0  0.71900  0.36755  0.53980  1.0000
  H   H1508     1.0  0.57361  0.59164  0.89653  1.0000
  C   C1272     1.0  0.75108  0.43946  0.94138  1.0000
  H   H1509     1.0  0.61136  0.55210  0.81321  1.0000
  C   C1273     1.0  0.75386  0.37863  0.92806  1.0000
  C   C1274     1.0  0.75430  0.36710  0.71120  1.0000
  C   C1275     1.0  0.73661  0.37145  0.94259  1.0000
  S   S348      1.0  0.64047  0.65674  0.48174  1.0000
  C   C1276     1.0  0.74613  0.37879  0.73441  1.0000
  C   C1277     1.0  0.74596  0.43740  0.74624  1.0000
  C   C1278     1.0  0.73300  0.43858  0.72276  1.0000
  C   C1279     1.0  0.74293  0.44008  0.69772  1.0000
  H   H1510     1.0  0.71532  0.43802  0.72384  1.0000
  H   H1511     1.0  0.73280  0.44128  0.67986  1.0000
  Fe  Fe178     1.0  0.76345  0.43071  0.87176  1.0000
  H   H1512     1.0  0.61673  0.60624  0.56378  1.0000
  H   H1513     1.0  0.57048  0.58928  0.55275  1.0000
  C   C1280     1.0  0.76332  0.34607  0.60585  1.0000
  H   H1514     1.0  0.55776  0.59982  0.59490  1.0000
  H   H1515     1.0  0.73502  0.43900  0.50787  1.0000
  H   H1516     1.0  0.75191  0.38156  0.90667  1.0000
  C   C1281     1.0  0.67415  0.48129  0.63283  1.0000
  C   C1282     1.0  0.65456  0.49528  0.63451  1.0000
  C   C1283     1.0  0.64655  0.50304  0.65957  1.0000
  C   C1284     1.0  0.65788  0.49655  0.68320  1.0000
  C   C1285     1.0  0.67729  0.48233  0.68158  1.0000
  C   C1286     1.0  0.68551  0.47490  0.65650  1.0000
  H   H1517     1.0  0.64555  0.50026  0.61643  1.0000
  H   H1518     1.0  0.63158  0.51397  0.66057  1.0000
  H   H1519     1.0  0.68609  0.47712  0.69975  1.0000
  H   H1520     1.0  0.70069  0.46434  0.65551  1.0000
  C   C1287     1.0  0.61229  0.57309  0.57447  1.0000
  C   C1288     1.0  0.60843  0.55910  0.59552  1.0000
  C   C1289     1.0  0.60606  0.56729  0.62184  1.0000
  H   H1521     1.0  0.72124  0.36877  0.93233  1.0000
  H   H1522     1.0  0.60755  0.54182  0.59160  1.0000
  H   H1523     1.0  0.60341  0.55632  0.63790  1.0000
  C   C1290     1.0  0.53723  0.55153  0.84946  1.0000
  C   C1291     1.0  0.61536  0.58565  0.82371  1.0000
  C   C1292     1.0  0.61757  0.60058  0.84499  1.0000
  C   C1293     1.0  0.61786  0.59364  0.87180  1.0000
  H   H1524     1.0  0.61925  0.61757  0.84069  1.0000
  C   C1294     1.0  0.61317  0.56373  0.82941  1.0000
  N   N87       1.0  0.70436  0.49952  0.77102  1.0000
  C   C1295     1.0  0.70807  0.50822  0.74390  1.0000
  C   C1296     1.0  0.72634  0.49111  0.78206  1.0000
  C   C1297     1.0  0.69063  0.48093  0.76806  1.0000
  C   C1298     1.0  0.69271  0.51646  0.78851  1.0000
  C   C1299     1.0  0.69832  0.51898  0.81617  1.0000
  C   C1300     1.0  0.67436  0.53018  0.77860  1.0000
  C   C1301     1.0  0.68696  0.53502  0.83230  1.0000
  C   C1302     1.0  0.66323  0.54623  0.79485  1.0000
  C   C1303     1.0  0.66961  0.54875  0.82159  1.0000
  H   H1525     1.0  0.71839  0.49622  0.73130  1.0000
  H   H1526     1.0  0.69252  0.51157  0.73211  1.0000
  H   H1527     1.0  0.71639  0.52358  0.74534  1.0000
  H   H1528     1.0  0.73586  0.48021  0.76747  1.0000
  H   H1529     1.0  0.72494  0.48081  0.80008  1.0000
  H   H1530     1.0  0.73660  0.50468  0.78723  1.0000
  H   H1531     1.0  0.68788  0.47346  0.78782  1.0000
  H   H1532     1.0  0.71129  0.50860  0.82587  1.0000
  H   H1533     1.0  0.66814  0.52848  0.75835  1.0000
  H   H1534     1.0  0.69148  0.53671  0.85332  1.0000
  H   H1535     1.0  0.64938  0.55664  0.78672  1.0000
  H   H1536     1.0  0.66082  0.56116  0.83413  1.0000
  C   C1304     1.0  0.65223  0.66755  0.51130  1.0000
  H   H1537     1.0  0.61171  0.62086  0.61011  1.0000
  H   H1538     1.0  0.54797  0.60855  0.89047  1.0000
  C   C1305     1.0  0.55093  0.58481  0.63135  1.0000
  S   S349      1.0  0.59682  0.61864  0.94801  1.0000
  C   C1306     1.0  0.55552  0.59342  0.90026  1.0000
  H   H1539     1.0  0.69857  0.46777  0.75487  1.0000
  C   C1307     1.0  0.61336  0.59538  0.57977  1.0000
  Fe  Fe179     1.0  0.61811  0.62905  0.48275  1.0000
  S   S350      1.0  0.53820  0.53995  0.72908  1.0000
  H   H1540     1.0  0.68084  0.55807  0.54043  1.0000
  Fe  Fe180     1.0  0.61041  0.58595  0.50823  1.0000
  C   C1308     1.0  0.74688  0.43598  0.49199  1.0000
  H   H1541     1.0  0.61252  0.53966  0.86043  1.0000
  H   H1542     1.0  0.65245  0.56676  0.60633  1.0000
  C   C1309     1.0  0.52113  0.56824  0.54644  1.0000
  S   S351      1.0  0.59436  0.62000  0.51404  1.0000
  H   H1543     1.0  0.70961  0.65921  0.90168  1.0000
  C   C1310     1.0  0.74729  0.67216  0.92838  1.0000
  C   C1311     1.0  0.61628  0.57162  0.87743  1.0000
  H   H1544     1.0  0.66324  0.50963  0.57611  1.0000
  C   C1312     1.0  0.73892  0.36829  0.97030  1.0000
  C   C1313     1.0  0.61382  0.55673  0.85619  1.0000
  H   H1545     1.0  0.55731  0.59778  0.64337  1.0000
  H   H1546     1.0  0.71610  0.67425  0.63039  1.0000
  C   C1314     1.0  0.55783  0.58305  0.84415  1.0000
  H   H1547     1.0  0.70230  0.50864  0.57328  1.0000
  H   H1548     1.0  0.69111  0.66282  0.62257  1.0000
  Fe  Fe181     1.0  0.75602  0.43304  0.56707  1.0000
  C   C1315     1.0  0.74093  0.34385  0.60098  1.0000
  C   C1316     1.0  0.61074  0.60361  0.60608  1.0000
  H   H1549     1.0  0.73130  0.38994  0.73405  1.0000
  H   H1550     1.0  0.53516  0.58597  0.71459  1.0000
  C   C1317     1.0  0.60728  0.58955  0.62721  1.0000
  C   C1318     1.0  0.55573  0.55472  0.90554  1.0000
  C   C1319     1.0  0.68257  0.49984  0.94714  1.0000
  H   H1551     1.0  0.55121  0.55703  0.78409  1.0000
  C   C1320     1.0  0.70104  0.52595  0.56653  1.0000
  H   H1552     1.0  0.65989  0.52520  0.54586  1.0000
  C   C1321     1.0  0.55306  0.58825  0.54612  1.0000
  H   H1553     1.0  0.75076  0.38587  0.77655  1.0000
  H   H1554     1.0  0.52077  0.56844  0.52411  1.0000
  C   C1322     1.0  0.54674  0.56963  0.86150  1.0000
  H   H1555     1.0  0.70131  0.52485  0.54420  1.0000
  C   C1323     1.0  0.74735  0.66836  0.49446  1.0000
  C   C1324     1.0  0.75717  0.37937  0.66562  1.0000
  H   H1556     1.0  0.70315  0.64289  0.94720  1.0000
  H   H1557     1.0  0.54727  0.53964  0.90214  1.0000
  H   H1558     1.0  0.67731  0.65964  0.94539  1.0000
  H   H1559     1.0  0.55042  0.53361  0.55144  1.0000
  C   C1325     1.0  0.53593  0.54989  0.62877  1.0000
  H   H1560     1.0  0.55369  0.59616  0.92236  1.0000
  C   C1326     1.0  0.66374  0.63714  0.70978  1.0000
  H   H1561     1.0  0.66191  0.56889  0.56454  1.0000
  H   H1562     1.0  0.51829  0.54042  0.96710  1.0000
  N   N88       1.0  0.54392  0.56872  0.55727  1.0000
  H   H1563     1.0  0.55595  0.55772  0.92764  1.0000
  H   H1564     1.0  0.67411  0.48609  0.75912  1.0000
  H   H1565     1.0  0.55324  0.58773  0.52376  1.0000
  S   S352      1.0  0.61778  0.56194  0.91063  1.0000
  H   H1566     1.0  0.71786  0.44424  0.95612  1.0000
  C   C1327     1.0  0.55111  0.58574  0.60328  1.0000
  H   H1567     1.0  0.64585  0.53456  0.57571  1.0000
  H   H1568     1.0  0.69099  0.57077  0.57046  1.0000
  H   H1569     1.0  0.53056  0.53580  0.63885  1.0000
  Fe  Fe182     1.0  0.61365  0.58456  0.94689  1.0000
  H   H1570     1.0  0.57321  0.55104  0.89926  1.0000
  C   C1328     1.0  0.68045  0.54175  0.60592  1.0000
  C   C1329     1.0  0.69500  0.52905  0.62349  1.0000
  C   C1330     1.0  0.66449  0.55695  0.61816  1.0000
  C   C1331     1.0  0.69360  0.53161  0.65140  1.0000
  C   C1332     1.0  0.66313  0.55929  0.64607  1.0000
  C   C1333     1.0  0.67762  0.54658  0.66267  1.0000
  H   H1571     1.0  0.70700  0.51634  0.61624  1.0000
  H   H1572     1.0  0.70432  0.52116  0.66437  1.0000
  H   H1573     1.0  0.65037  0.57062  0.65485  1.0000
  H   H1574     1.0  0.67598  0.54783  0.68429  1.0000
  H   H1575     1.0  0.72887  0.34779  0.65526  1.0000
  C   C1334     1.0  0.72130  0.38218  0.68519  1.0000
  C   C1335     1.0  0.54350  0.56689  0.64406  1.0000
  C   C1336     1.0  0.55911  0.57860  0.81654  1.0000
  C   C1337     1.0  0.66163  0.52650  0.56810  1.0000
  C   C1338     1.0  0.64615  0.63237  0.69315  1.0000
  C   C1339     1.0  0.67860  0.56002  0.56251  1.0000
  H   H1576     1.0  0.71605  0.53354  0.57347  1.0000
  N   N89       1.0  0.74303  0.36892  0.68463  1.0000
  C   C1340     1.0  0.55762  0.54912  0.54715  1.0000
  C   C1341     1.0  0.53587  0.55070  0.60069  1.0000
  H   H1577     1.0  0.55974  0.54952  0.52496  1.0000
  H   H1578     1.0  0.56609  0.59686  0.85139  1.0000
  S   S353      1.0  0.63563  0.59532  0.47933  1.0000
  C   C1342     1.0  0.70373  0.66402  0.63876  1.0000
  C   C1343     1.0  0.51876  0.58077  0.71521  1.0000
  H   H1579     1.0  0.54307  0.60371  0.55175  1.0000
  C   C1344     1.0  0.72576  0.66262  0.49361  1.0000
  H   H1580     1.0  0.53014  0.53698  0.58970  1.0000
  C   C1345     1.0  0.54974  0.56063  0.80544  1.0000
  N   N90       1.0  0.74711  0.36259  0.51399  1.0000
  S   S354      1.0  0.53528  0.61815  0.48254  1.0000
  H   H1581     1.0  0.64222  0.54140  0.95452  1.0000
  H   H1582     1.0  0.56799  0.58884  0.80372  1.0000
  H   H1583     1.0  0.66372  0.52095  0.91919  1.0000
  Fe  Fe183     1.0  0.57247  0.61112  0.47942  1.0000
  H   H1584     1.0  0.70981  0.37532  0.69928  1.0000
  H   H1585     1.0  0.72307  0.39951  0.69098  1.0000
  H   H1586     1.0  0.63384  0.64997  0.53893  1.0000
  H   H1587     1.0  0.52875  0.54050  0.86145  1.0000
  C   C1346     1.0  0.64601  0.66157  0.53689  1.0000
  C   C1347     1.0  0.72444  0.37250  0.51968  1.0000
  C   C1348     1.0  0.67946  0.65050  0.70072  1.0000
  H   H1588     1.0  0.64981  0.66670  0.57960  1.0000
  H   H1589     1.0  0.63025  0.63741  0.65470  1.0000
  H   H1590     1.0  0.72342  0.39071  0.51955  1.0000
  H   H1591     1.0  0.71191  0.64727  0.64202  1.0000
  H   H1592     1.0  0.69205  0.49086  0.93158  1.0000
  C   C1349     1.0  0.66671  0.51674  0.94010  1.0000
  H   H1593     1.0  0.57445  0.54804  0.55640  1.0000
  C   C1350     1.0  0.67795  0.65940  0.67444  1.0000
  C   C1351     1.0  0.65456  0.52827  0.96002  1.0000
  C   C1352     1.0  0.65511  0.67109  0.55993  1.0000
  C   C1353     1.0  0.52131  0.57699  0.89822  1.0000
  C   C1354     1.0  0.69489  0.65938  0.95210  1.0000
  H   H1594     1.0  0.75408  0.67452  0.51308  1.0000
  H   H1595     1.0  0.51918  0.58211  0.91961  1.0000
  C   C1355     1.0  0.75726  0.37666  0.75916  1.0000
  S   S355      1.0  0.58729  0.57652  0.47565  1.0000
  H   H1596     1.0  0.71584  0.66406  0.51158  1.0000
  C   C1356     1.0  0.51812  0.59661  0.47880  1.0000
  H   H1597     1.0  0.74900  0.38155  0.64556  1.0000
  H   H1598     1.0  0.71206  0.36771  0.50465  1.0000
  H   H1599     1.0  0.76089  0.39585  0.67310  1.0000
  N   N91       1.0  0.69418  0.67359  0.66403  1.0000
  C   C1357     1.0  0.70245  0.67523  0.90990  1.0000
  H   H1600     1.0  0.69251  0.65369  0.71474  1.0000
  C   C1358     1.0  0.51569  0.55914  0.72135  1.0000
  H   H1601     1.0  0.75345  0.38693  0.48486  1.0000
  C   C1359     1.0  0.75315  0.36885  0.48658  1.0000
  C   C1360     1.0  0.76228  0.37249  0.53332  1.0000
  H   H1602     1.0  0.76112  0.39065  0.53170  1.0000
  H   H1603     1.0  0.75818  0.36902  0.55445  1.0000
  C   C1361     1.0  0.69505  0.00828  0.97593  1.0000
  S   S356      1.0  0.71319  0.74771  0.05902  1.0000
  Fe  Fe184     1.0  0.74474  0.72737  0.12409  1.0000
  S   S357      1.0  0.71026  0.74358  0.12441  1.0000
  C   C1362     1.0  0.59570  0.68551  0.06345  1.0000
  Fe  Fe185     1.0  0.70426  0.72236  0.08807  1.0000
  S   S358      1.0  0.67559  0.70092  0.08707  1.0000
  Fe  Fe186     1.0  0.72301  0.76713  0.09534  1.0000
  S   S359      1.0  0.73821  0.70458  0.08979  1.0000
  S   S360      1.0  0.75484  0.97074  0.32872  1.0000
  C   C1363     1.0  0.74351  0.85609  0.33765  1.0000
  C   C1364     1.0  0.67912  0.98759  0.15590  1.0000
  C   C1365     1.0  0.73036  0.72643  0.46731  1.0000
  S   S361      1.0  0.74351  0.75965  0.34353  1.0000
  Fe  Fe187     1.0  0.74760  0.73099  0.06274  1.0000
  Fe  Fe188     1.0  0.75742  0.94650  0.11488  1.0000
  C   C1366     1.0  0.75483  0.89423  0.46365  1.0000
  C   C1367     1.0  0.73761  0.83627  0.34761  1.0000
  H   H1604     1.0  0.70272  0.97122  0.27225  1.0000
  S   S362      1.0  0.73008  0.73558  0.41376  1.0000
  H   H1605     1.0  0.75126  0.89277  0.38399  1.0000
  S   S363      1.0  0.69084  0.98642  0.32625  1.0000
  N   N92       1.0  0.57030  0.67997  0.02406  1.0000
  H   H1606     1.0  0.75486  0.69183  0.41244  1.0000
  H   H1607     1.0  0.67789  0.99106  0.03455  1.0000
  H   H1608     1.0  0.60233  0.69891  0.05343  1.0000
  H   H1609     1.0  0.74838  0.80284  0.35669  1.0000
  C   C1368     1.0  0.67738  0.98610  0.24586  1.0000
  C   C1369     1.0  0.68758  0.98181  0.27101  1.0000
  C   C1370     1.0  0.67820  0.99131  0.29436  1.0000
  H   H1610     1.0  0.72210  0.90909  0.23999  1.0000
  C   C1371     1.0  0.73829  0.73540  0.99145  1.0000
  H   H1611     1.0  0.68463  0.97847  0.22798  1.0000
  C   C1372     1.0  0.73522  0.82236  0.09502  1.0000
  H   H1612     1.0  0.73295  0.90575  0.19349  1.0000
  H   H1613     1.0  0.74730  0.78532  0.98761  1.0000
  C   C1373     1.0  0.72986  0.80840  0.21157  1.0000
  S   S364      1.0  0.73630  0.95534  0.15098  1.0000
  C   C1374     1.0  0.73644  0.89812  0.23466  1.0000
  C   C1375     1.0  0.75359  0.95437  0.43542  1.0000
  H   H1614     1.0  0.70665  0.70228  0.38933  1.0000
  S   S365      1.0  0.71504  0.80387  0.10014  1.0000
  C   C1376     1.0  0.69488  0.98314  0.07172  1.0000
  Fe  Fe189     1.0  0.72016  0.96085  0.32844  1.0000
  C   C1377     1.0  0.72979  0.80640  0.18352  1.0000
  H   H1615     1.0  0.70850  0.74001  0.22809  1.0000
  H   H1616     1.0  0.76247  0.79774  0.09003  1.0000
  C   C1378     1.0  0.67002  0.69632  0.03192  1.0000
  C   C1379     1.0  0.75877  0.77693  0.18622  1.0000
  C   C1380     1.0  0.74734  0.95205  0.23130  1.0000
  H   H1617     1.0  0.76319  0.86281  0.99689  1.0000
  H   H1618     1.0  0.68095  0.98986  0.17802  1.0000
  H   H1619     1.0  0.67887  0.71071  0.03013  1.0000
  C   C1381     1.0  0.75450  0.72091  0.19379  1.0000
  H   H1620     1.0  0.73386  0.83176  0.25858  1.0000
  C   C1382     1.0  0.72526  0.73310  0.22474  1.0000
  S   S366      1.0  0.64555  0.00533  0.21196  1.0000
  H   H1621     1.0  0.74198  0.95862  0.41924  1.0000
  H   H1622     1.0  0.72766  0.73898  0.00826  1.0000
  H   H1623     1.0  0.73994  0.80530  0.02979  1.0000
  C   C1383     1.0  0.67888  0.99468  0.05587  1.0000
  H   H1624     1.0  0.73489  0.88935  0.41268  1.0000
  C   C1384     1.0  0.55991  0.70280  0.02519  1.0000
  Fe  Fe190     1.0  0.75151  0.73626  0.37724  1.0000
  S   S367      1.0  0.75791  0.75195  0.09720  1.0000
  H   H1625     1.0  0.75348  0.85030  0.16471  1.0000
  H   H1626     1.0  0.70748  0.00087  0.98978  1.0000
  H   H1627     1.0  0.70640  0.97069  0.06258  1.0000
  C   C1385     1.0  0.75108  0.83523  0.01582  1.0000
  Fe  Fe191     1.0  0.75901  0.94725  0.05329  1.0000
  C   C1386     1.0  0.74319  0.73037  0.44510  1.0000
  H   H1628     1.0  0.73746  0.95310  0.24912  1.0000
  H   H1629     1.0  0.74901  0.77930  0.41322  1.0000
  C   C1387     1.0  0.65801  0.00033  0.24378  1.0000
  H   H1630     1.0  0.61678  0.68947  0.09804  1.0000
  C   C1388     1.0  0.74454  0.79469  0.22787  1.0000
  C   C1389     1.0  0.68586  0.68507  0.41447  1.0000
  H   H1631     1.0  0.71823  0.81676  0.17137  1.0000
  C   C1390     1.0  0.75127  0.89396  0.40634  1.0000
  C   C1391     1.0  0.66651  0.68801  0.05734  1.0000
  S   S368      1.0  0.72625  0.93872  0.36410  1.0000
  C   C1392     1.0  0.68134  0.00360  0.11195  1.0000
  H   H1632     1.0  0.74216  0.90533  0.45448  1.0000
  C   C1393     1.0  0.65864  0.00531  0.29226  1.0000
  H   H1633     1.0  0.68768  0.69593  0.43162  1.0000
  H   H1634     1.0  0.55218  0.70789  0.00557  1.0000
  H   H1635     1.0  0.73952  0.87744  0.09252  1.0000
  C   C1394     1.0  0.72897  0.84497  0.09571  1.0000
  H   H1636     1.0  0.66336  0.69352  0.98944  1.0000
  H   H1637     1.0  0.72236  0.73527  0.18157  1.0000
  H   H1638     1.0  0.67531  0.69629  0.14418  1.0000
  C   C1395     1.0  0.58841  0.67864  0.00435  1.0000
  H   H1639     1.0  0.74388  0.78901  0.14914  1.0000
  H   H1640     1.0  0.57205  0.71474  0.03022  1.0000
  C   C1396     1.0  0.75897  0.77874  0.21429  1.0000
  H   H1641     1.0  0.66215  0.98282  0.15193  1.0000
  S   S369      1.0  0.72626  0.93374  0.29800  1.0000
  H   H1642     1.0  0.72919  0.95971  0.46634  1.0000
  S   S370      1.0  0.72843  0.72997  0.27955  1.0000
  H   H1643     1.0  0.72120  0.83533  0.35533  1.0000
  C   C1397     1.0  0.73306  0.73037  0.19834  1.0000
  C   C1398     1.0  0.68316  0.69467  0.16448  1.0000
  H   H1644     1.0  0.66963  0.69418  0.17917  1.0000
  S   S371      1.0  0.73838  0.95746  0.01631  1.0000
  S   S372      1.0  0.72400  0.87902  0.33830  1.0000
  C   C1399     1.0  0.73705  0.95464  0.20595  1.0000
  H   H1645     1.0  0.58228  0.68236  0.98359  1.0000
  H   H1646     1.0  0.75255  0.91152  0.41139  1.0000
  C   C1400     1.0  0.69611  0.98745  0.09932  1.0000
  C   C1401     1.0  0.74466  0.86012  0.09214  1.0000
  C   C1402     1.0  0.73903  0.72696  0.24677  1.0000
  C   C1403     1.0  0.72218  0.79147  0.26712  1.0000
  H   H1647     1.0  0.70220  0.67820  0.34989  1.0000
  Fe  Fe192     1.0  0.73561  0.91248  0.33336  1.0000
  H   H1648     1.0  0.70840  0.80307  0.25966  1.0000
  H   H1649     1.0  0.71801  0.82052  0.22042  1.0000
  C   C1404     1.0  0.69662  0.68866  0.39070  1.0000
  H   H1650     1.0  0.71925  0.95734  0.20445  1.0000
  C   C1405     1.0  0.75295  0.81775  0.34815  1.0000
  C   C1406     1.0  0.74639  0.95503  0.46211  1.0000
  H   H1651     1.0  0.70871  0.97788  0.11074  1.0000
  C   C1407     1.0  0.74294  0.89602  0.20784  1.0000
  H   H1652     1.0  0.73804  0.88762  0.15230  1.0000
  C   C1408     1.0  0.75975  0.84585  0.99444  1.0000
  H   H1653     1.0  0.54683  0.70467  0.04068  1.0000
  H   H1654     1.0  0.72140  0.79181  0.28948  1.0000
  H   H1655     1.0  0.69095  0.97342  0.15039  1.0000
  H   H1656     1.0  0.71874  0.77475  0.26030  1.0000
  C   C1409     1.0  0.74423  0.79071  0.17088  1.0000
  H   H1657     1.0  0.71185  0.85080  0.09886  1.0000
  C   C1410     1.0  0.60409  0.68025  0.08908  1.0000
  C   C1411     1.0  0.66134  0.68649  0.00885  1.0000
  C   C1412     1.0  0.74970  0.95348  0.18261  1.0000
  S   S373      1.0  0.74559  0.92437  0.08255  1.0000
  H   H1658     1.0  0.73056  0.77897  0.45573  1.0000
  H   H1659     1.0  0.69135  0.70991  0.16836  1.0000
  N   N93       1.0  0.68302  0.00772  0.14128  1.0000
  H   H1660     1.0  0.72665  0.69029  0.15071  1.0000
  H   H1661     1.0  0.76319  0.82451  0.25854  1.0000
  H   H1662     1.0  0.75212  0.85087  0.41634  1.0000
  H   H1663     1.0  0.71263  0.72660  0.46502  1.0000
  H   H1664     1.0  0.60105  0.69012  0.00908  1.0000
  C   C1413     1.0  0.74723  0.81966  0.26594  1.0000
  H   H1665     1.0  0.75459  0.91041  0.15720  1.0000
  C   C1414     1.0  0.74615  0.78607  0.45569  1.0000
  H   H1666     1.0  0.74742  0.82160  0.28823  1.0000
  H   H1667     1.0  0.71848  0.00023  0.14432  1.0000
  C   C1415     1.0  0.75665  0.78612  0.43090  1.0000
  H   H1668     1.0  0.71978  0.68929  0.19611  1.0000
  C   C1416     1.0  0.74996  0.95545  0.98386  1.0000
  C   C1417     1.0  0.75095  0.80222  0.98872  1.0000
  S   S374      1.0  0.75554  0.70711  0.34950  1.0000
  N   N94       1.0  0.74395  0.79687  0.25757  1.0000
  Fe  Fe193     1.0  0.75145  0.73109  0.31564  1.0000
  H   H1669     1.0  0.74372  0.88874  0.27555  1.0000
  C   C1418     1.0  0.75517  0.89257  0.15270  1.0000
  C   C1419     1.0  0.74867  0.88677  0.25475  1.0000
  C   C1420     1.0  0.75736  0.81504  0.09073  1.0000
  H   H1670     1.0  0.72405  0.67739  0.99051  1.0000
  C   C1421     1.0  0.76201  0.88222  0.20034  1.0000
  C   C1422     1.0  0.74665  0.81348  0.01298  1.0000
  H   H1671     1.0  0.76141  0.89037  0.13184  1.0000
  C   C1423     1.0  0.76026  0.72728  0.99561  1.0000
  H   H1672     1.0  0.76066  0.78469  0.29379  1.0000
  H   H1673     1.0  0.70969  0.67956  0.12561  1.0000
  H   H1674     1.0  0.75886  0.76469  0.26790  1.0000
  C   C1424     1.0  0.76072  0.71822  0.24226  1.0000
  Fe  Fe194     1.0  0.76132  0.94223  0.30033  1.0000
  H   H1675     1.0  0.74780  0.84389  0.03469  1.0000
  Fe  Fe195     1.0  0.76151  0.94619  0.36170  1.0000
  C   C1425     1.0  0.76118  0.78225  0.27158  1.0000
  C   C1426     1.0  0.71653  0.67645  0.14616  1.0000
  H   H1676     1.0  0.69765  0.67646  0.20976  1.0000
  H   H1677     1.0  0.73337  0.95584  0.91785  1.0000
  S   S375      1.0  0.72049  0.74187  0.55705  1.0000
  C   C1427     1.0  0.74463  0.81698  0.58988  1.0000
  S   S376      1.0  0.71743  0.74075  0.62275  1.0000
  H   H1678     1.0  0.68924  0.70391  0.53005  1.0000
  Fe  Fe196     1.0  0.71075  0.71831  0.58778  1.0000
  C   C1428     1.0  0.67734  0.69203  0.53209  1.0000
  Fe  Fe197     1.0  0.73084  0.76239  0.59199  1.0000
  S   S377      1.0  0.74402  0.69926  0.59051  1.0000
  H   H1679     1.0  0.74734  0.80482  0.84485  1.0000
  S   S378      1.0  0.73000  0.93860  0.79288  1.0000
  Fe  Fe198     1.0  0.75892  0.95107  0.86106  1.0000
  S   S379      1.0  0.73154  0.73706  0.91078  1.0000
  C   C1429     1.0  0.74040  0.72194  0.49243  1.0000
  Fe  Fe199     1.0  0.73830  0.91621  0.82758  1.0000
  S   S380      1.0  0.75775  0.91703  0.58109  1.0000
  H   H1680     1.0  0.70992  0.99190  0.94205  1.0000
  H   H1681     1.0  0.70722  0.68521  0.70171  1.0000
  H   H1682     1.0  0.73177  0.00582  0.74006  1.0000
  C   C1430     1.0  0.75370  0.82018  0.84078  1.0000
  H   H1683     1.0  0.74153  0.90105  0.66118  1.0000
  S   S381      1.0  0.68909  0.98808  0.82127  1.0000
  C   C1431     1.0  0.72986  0.73870  0.96537  1.0000
  H   H1684     1.0  0.76360  0.76448  0.51742  1.0000
  C   C1432     1.0  0.74323  0.73359  0.94313  1.0000
  H   H1685     1.0  0.66965  0.69500  0.64285  1.0000
  C   C1433     1.0  0.73866  0.78910  0.67379  1.0000
  H   H1686     1.0  0.75916  0.89439  0.77735  1.0000
  C   C1434     1.0  0.69098  0.99003  0.76602  1.0000
  H   H1687     1.0  0.66371  0.97810  0.90575  1.0000
  C   C1435     1.0  0.76334  0.72129  0.49549  1.0000
  H   H1688     1.0  0.73169  0.80618  0.92577  1.0000
  C   C1436     1.0  0.76200  0.87807  0.70081  1.0000
  C   C1437     1.0  0.74424  0.79221  0.92995  1.0000
  Fe  Fe200     1.0  0.75741  0.73156  0.81495  1.0000
  C   C1438     1.0  0.68293  0.69556  0.65839  1.0000
  H   H1689     1.0  0.72719  0.77588  0.76957  1.0000
  H   H1690     1.0  0.73228  0.81858  0.53531  1.0000
  C   C1439     1.0  0.74470  0.95319  0.70343  1.0000
  C   C1440     1.0  0.74759  0.85664  0.66287  1.0000
  Fe  Fe201     1.0  0.71957  0.96400  0.82404  1.0000
  H   H1691     1.0  0.73537  0.79348  0.79626  1.0000
  C   C1441     1.0  0.68326  0.99782  0.74085  1.0000
  H   H1692     1.0  0.70622  0.97953  0.76750  1.0000
  H   H1693     1.0  0.71437  0.73462  0.72664  1.0000
  H   H1694     1.0  0.73508  0.78721  0.65249  1.0000
  C   C1442     1.0  0.76001  0.88978  0.75623  1.0000
  H   H1695     1.0  0.75070  0.87136  0.58297  1.0000
  C   C1443     1.0  0.74437  0.95562  0.93509  1.0000
  C   C1444     1.0  0.75587  0.77602  0.68583  1.0000
  S   S382      1.0  0.74696  0.94861  0.64895  1.0000
  C   C1445     1.0  0.74689  0.85913  0.83145  1.0000
  H   H1696     1.0  0.73057  0.87336  0.75711  1.0000
  C   C1446     1.0  0.75536  0.85406  0.58500  1.0000
  C   C1447     1.0  0.73893  0.83956  0.58740  1.0000
  H   H1697     1.0  0.71283  0.74512  0.96246  1.0000
  H   H1698     1.0  0.72510  0.68670  0.67390  1.0000
  N   N95       1.0  0.75216  0.79663  0.75881  1.0000
  C   C1448     1.0  0.67966  0.98242  0.89765  1.0000
  S   S383      1.0  0.76129  0.70713  0.84834  1.0000
  Fe  Fe202     1.0  0.75490  0.73595  0.87621  1.0000
  C   C1449     1.0  0.75162  0.00934  0.67702  1.0000
  H   H1699     1.0  0.71763  0.00029  0.89985  1.0000
  H   H1700     1.0  0.75192  0.78051  0.54503  1.0000
  H   H1701     1.0  0.74972  0.85197  0.64132  1.0000
  S   S384      1.0  0.73532  0.72948  0.77818  1.0000
  C   C1450     1.0  0.72587  0.80441  0.68922  1.0000
  H   H1702     1.0  0.70497  0.00778  0.86867  1.0000
  H   H1703     1.0  0.71153  0.79515  0.49198  1.0000
  N   N96       1.0  0.74534  0.79473  0.50598  1.0000
  H   H1704     1.0  0.74311  0.83161  0.76058  1.0000
  C   C1451     1.0  0.74776  0.79369  0.72968  1.0000
  C   C1452     1.0  0.74486  0.87183  0.71742  1.0000
  C   C1453     1.0  0.74593  0.72555  0.74556  1.0000
  C   C1454     1.0  0.75352  0.95455  0.72952  1.0000
  Fe  Fe203     1.0  0.75420  0.72415  0.56192  1.0000
  S   S385      1.0  0.74733  0.75960  0.84281  1.0000
  C   C1455     1.0  0.67073  0.68641  0.55767  1.0000
  H   H1705     1.0  0.69311  0.97217  0.90811  1.0000
  C   C1456     1.0  0.73587  0.95550  0.96124  1.0000
  C   C1457     1.0  0.74397  0.87773  0.74471  1.0000
  H   H1706     1.0  0.67283  0.68759  0.48933  1.0000
  H   H1707     1.0  0.73266  0.82845  0.50160  1.0000
  C   C1458     1.0  0.69630  0.00317  0.94852  1.0000
  H   H1708     1.0  0.75023  0.84125  0.67447  1.0000
  C   C1459     1.0  0.75995  0.81247  0.96651  1.0000
  C   C1460     1.0  0.73230  0.79250  0.77418  1.0000
  C   C1461     1.0  0.66800  0.68275  0.50902  1.0000
  S   S386      1.0  0.72342  0.79930  0.59206  1.0000
  H   H1709     1.0  0.72137  0.83759  0.83672  1.0000
  H   H1710     1.0  0.72808  0.72854  0.68023  1.0000
  C   C1462     1.0  0.73928  0.72566  0.69711  1.0000
  Fe  Fe204     1.0  0.75143  0.72325  0.62318  1.0000
  C   C1463     1.0  0.73156  0.72912  0.72341  1.0000
  H   H1711     1.0  0.71932  0.00583  0.69252  1.0000
  H   H1712     1.0  0.73169  0.86281  0.70975  1.0000
  H   H1713     1.0  0.73039  0.71821  0.50915  1.0000
  H   H1714     1.0  0.74259  0.95821  0.74612  1.0000
  C   C1464     1.0  0.75591  0.79449  0.47935  1.0000
  H   H1715     1.0  0.71794  0.80451  0.76982  1.0000
  H   H1716     1.0  0.72701  0.95551  0.70024  1.0000
  S   S387      1.0  0.72779  0.88183  0.82464  1.0000
  S   S388      1.0  0.68108  0.69849  0.58728  1.0000
  C   C1465     1.0  0.73898  0.83883  0.83628  1.0000
  H   H1717     1.0  0.72500  0.76818  0.49897  1.0000
  H   H1718     1.0  0.73010  0.86361  0.66462  1.0000
  H   H1719     1.0  0.69456  0.70680  0.65056  1.0000
  H   H1720     1.0  0.71598  0.78624  0.52580  1.0000
  C   C1466     1.0  0.73037  0.80681  0.71671  1.0000
  H   H1721     1.0  0.71225  0.81429  0.67978  1.0000
  H   H1722     1.0  0.71996  0.81884  0.72788  1.0000
  H   H1723     1.0  0.72171  0.84587  0.58717  1.0000
  S   S389      1.0  0.72454  0.94069  0.85860  1.0000
  C   C1467     1.0  0.74192  0.81756  0.51641  1.0000
  H   H1724     1.0  0.71828  0.95549  0.96401  1.0000
  H   H1725     1.0  0.74725  0.78285  0.91080  1.0000
  H   H1726     1.0  0.73666  0.78105  0.94367  1.0000
  C   C1468     1.0  0.67902  0.99598  0.78915  1.0000
  C   C1469     1.0  0.72352  0.78568  0.50548  1.0000
  H   H1727     1.0  0.68027  0.97722  0.87611  1.0000
  N   N97       1.0  0.68190  0.00617  0.90098  1.0000
  H   H1728     1.0  0.76242  0.82186  0.78563  1.0000
  H   H1729     1.0  0.69251  0.99306  0.72301  1.0000
  H   H1730     1.0  0.70963  0.68868  0.89916  1.0000
  H   H1731     1.0  0.67524  0.70320  0.67679  1.0000
  H   H1732     1.0  0.75770  0.82459  0.52138  1.0000
  S   S390      1.0  0.75297  0.97639  0.82887  1.0000
  H   H1733     1.0  0.67759  0.70001  0.94427  1.0000
  H   H1734     1.0  0.70263  0.71191  0.93782  1.0000
  C   C1470     1.0  0.69570  0.69840  0.94845  1.0000
  H   H1735     1.0  0.74429  0.90561  0.50300  1.0000
  S   S391      1.0  0.75141  0.95143  0.51653  1.0000
  C   C1471     1.0  0.75586  0.89457  0.49176  1.0000
  C   C1472     1.0  0.74341  0.00791  0.72428  1.0000
  C   C1473     1.0  0.65916  0.00948  0.78691  1.0000
  C   C1474     1.0  0.75744  0.81941  0.76429  1.0000
  H   H1736     1.0  0.74553  0.00783  0.65663  1.0000
  C   C1475     1.0  0.73644  0.00789  0.69753  1.0000
  H   H1737     1.0  0.75830  0.88952  0.63407  1.0000
  C   C1476     1.0  0.75809  0.89282  0.65613  1.0000
  C   C1477     1.0  0.75865  0.94930  0.68147  1.0000
  C   C1478     1.0  0.76038  0.77809  0.71337  1.0000
  C   C1479     1.0  0.76138  0.71822  0.69281  1.0000
  C   C1480     1.0  0.75981  0.78152  0.52511  1.0000
  C   C1481     1.0  0.76129  0.94986  0.48338  1.0000
  C   C1482     1.0  0.71289  0.67658  0.68287  1.0000
  H   H1738     1.0  0.69810  0.70138  0.97031  1.0000
  N   N98       1.0  0.76323  0.87259  0.67172  1.0000
  H   H1739     1.0  0.76313  0.82712  0.91387  1.0000
  Fe  Fe205     1.0  0.76387  0.94937  0.79984  1.0000
  N   N99       1.0  0.70625  0.67688  0.93938  1.0000
  H   H1740     1.0  0.68451  0.67672  0.90464  1.0000
  Fe  Fe206     1.0  0.88702  0.07439  0.42895  1.0000
  S   S392      1.0  0.89836  0.10800  0.42867  1.0000
  S   S393      1.0  0.88140  0.05416  0.39140  1.0000
  Fe  Fe207     1.0  0.89300  0.07109  0.99214  1.0000
  S   S394      1.0  0.90596  0.10402  0.99632  1.0000
  S   S395      1.0  0.88827  0.04991  0.02811  1.0000
  C   C1483     1.0  0.84585  0.01871  0.27017  1.0000
  H   H1741     1.0  0.95695  0.05455  0.26789  1.0000
  H   H1742     1.0  0.80145  0.13207  0.24673  1.0000
  H   H1743     1.0  0.79425  0.18986  0.43623  1.0000
  C   C1484     1.0  0.83040  0.18217  0.16895  1.0000
  C   C1485     1.0  0.79571  0.13576  0.45013  1.0000
  Fe  Fe208     1.0  0.88777  0.03460  0.20294  1.0000
  S   S396      1.0  0.86881  0.06776  0.20476  1.0000
  Fe  Fe209     1.0  0.93240  0.05386  0.20890  1.0000
  S   S397      1.0  0.91650  0.08821  0.21040  1.0000
  S   S398      1.0  0.96951  0.04557  0.21124  1.0000
  Fe  Fe210     1.0  0.89234  0.07502  0.23823  1.0000
  S   S399      1.0  0.88185  0.09552  0.27493  1.0000
  Fe  Fe211     1.0  0.89477  0.07727  0.17693  1.0000
  S   S400      1.0  0.88619  0.09881  0.14129  1.0000
  S   S401      1.0  0.90949  0.04110  0.23883  1.0000
  S   S402      1.0  0.91249  0.04372  0.17309  1.0000
  H   H1744     1.0  0.84439  0.12777  0.14335  1.0000
  H   H1745     1.0  0.82357  0.02016  0.36358  1.0000
  H   H1746     1.0  0.86427  0.03121  0.44201  1.0000
  Fe  Fe212     1.0  0.87665  0.11475  0.46455  1.0000
  H   H1747     1.0  0.79415  0.31419  0.31441  1.0000
  C   C1486     1.0  0.98851  0.06562  0.21431  1.0000
  C   C1487     1.0  0.98167  0.08784  0.21808  1.0000
  C   C1488     1.0  0.99743  0.10316  0.22098  1.0000
  H   H1748     1.0  0.96378  0.05772  0.97412  1.0000
  H   H1749     1.0  0.81710  0.16345  0.27241  1.0000
  H   H1750     1.0  0.96428  0.09324  0.21897  1.0000
  H   H1751     1.0  0.99200  0.12030  0.22407  1.0000
  C   C1489     1.0  0.85365  0.01932  0.44914  1.0000
  S   S403      1.0  0.79175  0.23094  0.12149  1.0000
  C   C1490     1.0  0.94372  0.08552  0.12298  1.0000
  C   C1491     1.0  0.82501  0.09578  0.11792  1.0000
  H   H1752     1.0  0.79954  0.16191  0.12052  1.0000
  H   H1753     1.0  0.77603  0.28195  0.16925  1.0000
  C   C1492     1.0  0.77488  0.22919  0.46493  1.0000
  S   S404      1.0  0.77504  0.22795  0.41015  1.0000
  H   H1754     1.0  0.83592  0.14883  0.11975  1.0000
  C   C1493     1.0  0.85156  0.17553  0.15999  1.0000
  C   C1494     1.0  0.88574  0.06374  0.05943  1.0000
  C   C1495     1.0  0.88544  0.08651  0.06119  1.0000
  C   C1496     1.0  0.88583  0.09707  0.08633  1.0000
  C   C1497     1.0  0.88592  0.08501  0.11000  1.0000
  C   C1498     1.0  0.88527  0.06232  0.10831  1.0000
  C   C1499     1.0  0.88524  0.05170  0.08310  1.0000
  H   H1755     1.0  0.88507  0.09606  0.04321  1.0000
  H   H1756     1.0  0.88636  0.11463  0.08734  1.0000
  H   H1757     1.0  0.88474  0.05290  0.12639  1.0000
  H   H1758     1.0  0.88516  0.03409  0.08201  1.0000
  C   C1500     1.0  0.88225  0.06591  0.35923  1.0000
  C   C1501     1.0  0.88517  0.05219  0.33649  1.0000
  C   C1502     1.0  0.88552  0.06105  0.31059  1.0000
  C   C1503     1.0  0.88254  0.08372  0.30719  1.0000
  C   C1504     1.0  0.87966  0.09743  0.32993  1.0000
  C   C1505     1.0  0.87968  0.08859  0.35586  1.0000
  H   H1759     1.0  0.88721  0.03463  0.33894  1.0000
  H   H1760     1.0  0.88784  0.05034  0.29326  1.0000
  H   H1761     1.0  0.87726  0.11497  0.32749  1.0000
  H   H1762     1.0  0.87714  0.09931  0.37317  1.0000
  C   C1506     1.0  0.85244  0.15623  0.05175  1.0000
  C   C1507     1.0  0.85817  0.14714  0.02645  1.0000
  C   C1508     1.0  0.84638  0.15447  0.00344  1.0000
  C   C1509     1.0  0.82845  0.17043  0.00597  1.0000
  C   C1510     1.0  0.82253  0.17927  0.03128  1.0000
  H   H1763     1.0  0.86197  0.15092  0.06937  1.0000
  H   H1764     1.0  0.87204  0.13490  0.02467  1.0000
  H   H1765     1.0  0.77703  0.27276  0.44022  1.0000
  N   N100      1.0  0.95434  0.08257  0.37141  1.0000
  C   C1511     1.0  0.94545  0.06573  0.38811  1.0000
  C   C1512     1.0  0.97705  0.08587  0.38105  1.0000
  C   C1513     1.0  0.94044  0.10349  0.37593  1.0000
  C   C1514     1.0  0.95476  0.07516  0.34294  1.0000
  C   C1515     1.0  0.96898  0.05662  0.33487  1.0000
  C   C1516     1.0  0.94102  0.08562  0.32263  1.0000
  N   N101      1.0  0.78529  0.15859  0.44882  1.0000
  H   H1766     1.0  0.95569  0.04978  0.38719  1.0000
  H   H1767     1.0  0.94467  0.07083  0.40968  1.0000
  H   H1768     1.0  0.92841  0.06269  0.38145  1.0000
  H   H1769     1.0  0.98786  0.07032  0.38245  1.0000
  H   H1770     1.0  0.97707  0.09314  0.40168  1.0000
  H   H1771     1.0  0.98503  0.09707  0.36770  1.0000
  H   H1772     1.0  0.92270  0.10176  0.37145  1.0000
  H   H1773     1.0  0.94118  0.10909  0.39731  1.0000
  H   H1774     1.0  0.94594  0.11687  0.36359  1.0000
  C   C1517     1.0  0.77985  0.21587  0.22107  1.0000
  H   H1775     1.0  0.92907  0.09934  0.32683  1.0000
  C   C1518     1.0  0.85094  0.01823  0.97608  1.0000
  C   C1519     1.0  0.77822  0.32016  0.32233  1.0000
  C   C1520     1.0  0.77148  0.21614  0.19455  1.0000
  H   H1776     1.0  0.00587  0.09311  0.07425  1.0000
  C   C1521     1.0  0.94631  0.06732  0.04016  1.0000
  C   C1522     1.0  0.83868  0.13092  0.12231  1.0000
  H   H1777     1.0  0.97928  0.04735  0.34934  1.0000
  H   H1778     1.0  0.00524  0.10728  0.45250  1.0000
  C   C1523     1.0  0.77436  0.29096  0.43927  1.0000
  H   H1779     1.0  0.95365  0.07731  0.16358  1.0000
  H   H1780     1.0  0.93443  0.10075  0.12885  1.0000
  H   H1781     1.0  0.78249  0.21709  0.17790  1.0000
  C   C1524     1.0  0.98137  0.08475  0.46157  1.0000
  H   H1782     1.0  0.80986  0.13425  0.46471  1.0000
  H   H1783     1.0  0.82532  0.11789  0.07326  1.0000
  C   C1525     1.0  0.95644  0.06029  0.28862  1.0000
  H   H1784     1.0  0.79583  0.09732  0.15409  1.0000
  C   C1526     1.0  0.83474  0.17247  0.05417  1.0000
  H   H1785     1.0  0.80028  0.29699  0.99158  1.0000
  H   H1786     1.0  0.79237  0.23086  0.46353  1.0000
  S   S405      1.0  0.78874  0.23382  0.05541  1.0000
  C   C1527     1.0  0.80142  0.17261  0.43775  1.0000
  H   H1787     1.0  0.97346  0.04192  0.15086  1.0000
  H   H1788     1.0  0.93120  0.08634  0.28080  1.0000
  N   N102      1.0  0.82793  0.15030  0.23373  1.0000
  C   C1528     1.0  0.84401  0.13440  0.24765  1.0000
  C   C1529     1.0  0.82251  0.16895  0.25255  1.0000
  C   C1530     1.0  0.80764  0.13927  0.22820  1.0000
  C   C1531     1.0  0.83627  0.15847  0.20831  1.0000
  C   C1532     1.0  0.82280  0.17378  0.19268  1.0000
  C   C1533     1.0  0.85765  0.15168  0.19830  1.0000
  C   C1534     1.0  0.77442  0.28117  0.00980  1.0000
  C   C1535     1.0  0.86507  0.16017  0.17450  1.0000
  H   H1789     1.0  0.00415  0.10103  0.30950  1.0000
  H   H1790     1.0  0.85953  0.14175  0.25324  1.0000
  H   H1791     1.0  0.83742  0.12857  0.26675  1.0000
  H   H1792     1.0  0.84832  0.11947  0.23511  1.0000
  H   H1793     1.0  0.83700  0.17846  0.25615  1.0000
  C   C1536     1.0  0.77499  0.34151  0.33289  1.0000
  H   H1794     1.0  0.80915  0.14201  0.08344  1.0000
  H   H1795     1.0  0.81077  0.12585  0.21307  1.0000
  C   C1537     1.0  0.94201  0.07826  0.29592  1.0000
  H   H1796     1.0  0.79383  0.15075  0.22048  1.0000
  H   H1797     1.0  0.80626  0.17942  0.19879  1.0000
  H   H1798     1.0  0.86902  0.13981  0.20840  1.0000
  C   C1538     1.0  0.01117  0.05895  0.21329  1.0000
  H   H1799     1.0  0.88136  0.15463  0.16709  1.0000
  S   S406      1.0  0.91420  0.06080  0.45674  1.0000
  S   S407      1.0  0.82804  0.18395  0.08596  1.0000
  H   H1800     1.0  0.85133  0.02048  0.24919  1.0000
  H   H1801     1.0  0.92846  0.07156  0.04380  1.0000
  S   S408      1.0  0.86291  0.08201  0.46247  1.0000
  C   C1539     1.0  0.95439  0.07230  0.14260  1.0000
  H   H1802     1.0  0.83282  0.03235  0.27376  1.0000
  C   C1540     1.0  0.77371  0.12317  0.16909  1.0000
  C   C1541     1.0  0.80072  0.12809  0.13397  1.0000
  H   H1803     1.0  0.87632  0.01605  0.14504  1.0000
  H   H1804     1.0  0.83840  0.09014  0.10369  1.0000
  C   C1542     1.0  0.95576  0.05870  0.08781  1.0000
  H   H1805     1.0  0.80875  0.19160  0.03297  1.0000
  H   H1806     1.0  0.81922  0.17611  0.98828  1.0000
  H   H1807     1.0  0.78858  0.33508  0.10973  1.0000
  H   H1808     1.0  0.85731  0.18200  0.14144  1.0000
  H   H1809     1.0  0.81087  0.08613  0.11298  1.0000
  S   S409      1.0  0.76437  0.19557  0.08717  1.0000
  S   S410      1.0  0.78842  0.29013  0.09477  1.0000
  H   H1810     1.0  0.79730  0.21691  0.22469  1.0000
  H   H1811     1.0  0.78188  0.28128  0.02976  1.0000
  H   H1812     1.0  0.98059  0.03508  0.30231  1.0000
  C   C1543     1.0  0.96560  0.05234  0.13535  1.0000
  H   H1813     1.0  0.95485  0.08258  0.04095  1.0000
  C   C1544     1.0  0.81215  0.12422  0.08746  1.0000
  N   N103      1.0  0.81874  0.11970  0.11582  1.0000
  H   H1814     1.0  0.83744  0.02594  0.31934  1.0000
  C   C1545     1.0  0.78469  0.29009  0.98829  1.0000
  H   H1815     1.0  0.98946  0.05869  0.05373  1.0000
  Fe  Fe213     1.0  0.79782  0.20807  0.08622  1.0000
  C   C1546     1.0  0.94371  0.03127  0.05710  1.0000
  H   H1816     1.0  0.80779  0.02183  0.02422  1.0000
  C   C1547     1.0  0.98020  0.06290  0.97269  1.0000
  H   H1817     1.0  0.85256  0.12536  0.10894  1.0000
  H   H1818     1.0  0.79574  0.32796  0.41728  1.0000
  N   N104      1.0  0.95620  0.05083  0.05952  1.0000
  C   C1548     1.0  0.94434  0.07894  0.09595  1.0000
  C   C1549     1.0  0.79080  0.11458  0.15237  1.0000
  H   H1819     1.0  0.79699  0.29606  0.39462  1.0000
  H   H1820     1.0  0.79681  0.11660  0.08193  1.0000
  C   C1550     1.0  0.77900  0.33541  0.41537  1.0000
  H   H1821     1.0  0.80874  0.18054  0.24503  1.0000
  H   H1822     1.0  0.78264  0.14496  0.39619  1.0000
  H   H1823     1.0  0.98004  0.03949  0.02966  1.0000
  C   C1551     1.0  0.96982  0.04941  0.30807  1.0000
  H   H1824     1.0  0.94723  0.06110  0.01905  1.0000
  C   C1552     1.0  0.00280  0.09107  0.45945  1.0000
  H   H1825     1.0  0.00930  0.07572  0.29094  1.0000
  H   H1826     1.0  0.76782  0.16119  0.98246  1.0000
  C   C1553     1.0  0.77218  0.33262  0.10227  1.0000
  C   C1554     1.0  0.99870  0.04855  0.97977  1.0000
  H   H1827     1.0  0.93527  0.08981  0.08198  1.0000
  H   H1828     1.0  0.84899  0.02399  0.03251  1.0000
  H   H1829     1.0  0.97452  0.02957  0.10402  1.0000
  H   H1830     1.0  0.77076  0.26448  0.20930  1.0000
  S   S411      1.0  0.77698  0.21310  0.27589  1.0000
  H   H1831     1.0  0.92656  0.03496  0.06440  1.0000
  C   C1555     1.0  0.96619  0.04551  0.10843  1.0000
  H   H1832     1.0  0.99649  0.03227  0.98660  1.0000
  H   H1833     1.0  0.83169  0.09132  0.13828  1.0000
  H   H1834     1.0  0.81984  0.19387  0.15731  1.0000
  S   S412      1.0  0.85516  0.14662  0.46813  1.0000
  C   C1556     1.0  0.97928  0.04469  0.05115  1.0000
  C   C1557     1.0  0.79272  0.15058  0.13379  1.0000
  H   H1835     1.0  0.80274  0.12979  0.43064  1.0000
  C   C1558     1.0  0.00918  0.08874  0.11622  1.0000
  H   H1836     1.0  0.77745  0.21272  0.00610  1.0000
  Fe  Fe214     1.0  0.77915  0.25559  0.09067  1.0000
  H   H1837     1.0  0.81655  0.17248  0.45051  1.0000
  H   H1838     1.0  0.86047  0.02106  0.28324  1.0000
  H   H1839     1.0  0.95138  0.01732  0.06901  1.0000
  H   H1840     1.0  0.98742  0.03069  0.06255  1.0000
  S   S413      1.0  0.95885  0.10372  0.45350  1.0000
  H   H1841     1.0  0.76977  0.17620  0.14990  1.0000
  H   H1842     1.0  0.78364  0.12437  0.45643  1.0000
  H   H1843     1.0  0.80695  0.16725  0.41736  1.0000
  H   H1844     1.0  0.99167  0.09257  0.11947  1.0000
  H   H1845     1.0  0.79070  0.29714  0.44320  1.0000
  Fe  Fe215     1.0  0.92405  0.09494  0.45857  1.0000
  H   H1846     1.0  0.94241  0.02548  0.03587  1.0000
  H   H1847     1.0  0.86405  0.02318  0.98901  1.0000
  C   C1559     1.0  0.76575  0.21446  0.24293  1.0000
  C   C1560     1.0  0.77574  0.15899  0.15064  1.0000
  C   C1561     1.0  0.76740  0.31177  0.09356  1.0000
  C   C1562     1.0  0.76677  0.21187  0.98871  1.0000
  C   C1563     1.0  0.76544  0.15967  0.43110  1.0000
  C   C1564     1.0  0.76703  0.15169  0.40423  1.0000
  H   H1848     1.0  0.78275  0.27220  0.39042  1.0000
  H   H1849     1.0  0.76695  0.26141  0.25739  1.0000
  C   C1565     1.0  0.78032  0.29042  0.39159  1.0000
  H   H1850     1.0  0.83978  0.01391  0.41000  1.0000
  H   H1851     1.0  0.76608  0.11255  0.18266  1.0000
  C   C1566     1.0  0.76618  0.14531  0.16818  1.0000
  H   H1852     1.0  0.77410  0.29625  0.37166  1.0000
  H   H1853     1.0  0.76998  0.33510  0.00955  1.0000
  C   C1567     1.0  0.83062  0.01059  0.32259  1.0000
  N   N105      1.0  0.76469  0.29820  0.41300  1.0000
  C   C1568     1.0  0.97837  0.06373  0.47040  1.0000
  Fe  Fe216     1.0  0.88705  0.07482  0.93082  1.0000
  S   S414      1.0  0.89895  0.10825  0.93092  1.0000
  S   S415      1.0  0.87452  0.05761  0.89359  1.0000
  Fe  Fe217     1.0  0.89131  0.07173  0.49031  1.0000
  S   S416      1.0  0.90354  0.10497  0.49448  1.0000
  S   S417      1.0  0.88852  0.04944  0.52555  1.0000
  H   H1854     1.0  0.87919  0.01412  0.65041  1.0000
  H   H1855     1.0  0.82313  0.02119  0.65259  1.0000
  H   H1856     1.0  0.78630  0.29450  0.72284  1.0000
  C   C1569     1.0  0.85117  0.02502  0.94940  1.0000
  C   C1570     1.0  0.96351  0.05110  0.62843  1.0000
  S   S418      1.0  0.91468  0.05995  0.95735  1.0000
  Fe  Fe218     1.0  0.89226  0.02959  0.70556  1.0000
  S   S419      1.0  0.87341  0.06282  0.70726  1.0000
  Fe  Fe219     1.0  0.93710  0.04871  0.70784  1.0000
  S   S420      1.0  0.92125  0.08305  0.70923  1.0000
  S   S421      1.0  0.97423  0.04047  0.70619  1.0000
  Fe  Fe220     1.0  0.89825  0.07051  0.73917  1.0000
  S   S422      1.0  0.89067  0.09193  0.77617  1.0000
  Fe  Fe221     1.0  0.89821  0.07182  0.67737  1.0000
  S   S423      1.0  0.88911  0.09346  0.64170  1.0000
  S   S424      1.0  0.91549  0.03658  0.73975  1.0000
  S   S425      1.0  0.91564  0.03813  0.67373  1.0000
  H   H1857     1.0  0.81914  0.19804  0.53352  1.0000
  N   N106      1.0  0.95843  0.08073  0.55007  1.0000
  Fe  Fe222     1.0  0.79358  0.20229  0.58799  1.0000
  C   C1571     1.0  0.77787  0.31226  0.84363  1.0000
  C   C1572     1.0  0.77365  0.28570  0.71337  1.0000
  C   C1573     1.0  0.99293  0.06030  0.71296  1.0000
  C   C1574     1.0  0.98596  0.08261  0.71541  1.0000
  C   C1575     1.0  0.00151  0.09792  0.71997  1.0000
  H   H1858     1.0  0.78231  0.24961  0.76238  1.0000
  H   H1859     1.0  0.77569  0.04503  0.64972  1.0000
  H   H1860     1.0  0.96863  0.08811  0.71364  1.0000
  H   H1861     1.0  0.99595  0.11514  0.72174  1.0000
  H   H1862     1.0  0.85059  0.11654  0.68569  1.0000
  H   H1863     1.0  0.83009  0.17921  0.63835  1.0000
  C   C1576     1.0  0.83083  0.16758  0.55203  1.0000
  H   H1864     1.0  0.93573  0.09400  0.59762  1.0000
  H   H1865     1.0  0.81962  0.11788  0.89620  1.0000
  S   S426      1.0  0.77097  0.20516  0.77508  1.0000
  C   C1577     1.0  0.94758  0.07983  0.59929  1.0000
  H   H1866     1.0  0.85043  0.18812  0.66084  1.0000
  H   H1867     1.0  0.83867  0.12309  0.92296  1.0000
  H   H1868     1.0  0.79377  0.20606  0.96115  1.0000
  C   C1578     1.0  0.88784  0.06181  0.55778  1.0000
  C   C1579     1.0  0.88476  0.08455  0.56102  1.0000
  C   C1580     1.0  0.88499  0.09407  0.58684  1.0000
  C   C1581     1.0  0.88833  0.08092  0.60962  1.0000
  C   C1582     1.0  0.89112  0.05817  0.60639  1.0000
  C   C1583     1.0  0.89086  0.04865  0.58056  1.0000
  H   H1869     1.0  0.88193  0.09483  0.54367  1.0000
  H   H1870     1.0  0.88255  0.11167  0.58912  1.0000
  H   H1871     1.0  0.89338  0.04784  0.62374  1.0000
  H   H1872     1.0  0.89317  0.03103  0.57826  1.0000
  C   C1584     1.0  0.88046  0.06658  0.86104  1.0000
  C   C1585     1.0  0.89049  0.08587  0.85726  1.0000
  C   C1586     1.0  0.89393  0.09319  0.83114  1.0000
  C   C1587     1.0  0.88793  0.08104  0.80853  1.0000
  C   C1588     1.0  0.87828  0.06152  0.81224  1.0000
  C   C1589     1.0  0.87435  0.05446  0.83841  1.0000
  H   H1873     1.0  0.89536  0.09531  0.87442  1.0000
  H   H1874     1.0  0.90131  0.10836  0.82843  1.0000
  H   H1875     1.0  0.87321  0.05233  0.79494  1.0000
  H   H1876     1.0  0.86632  0.03971  0.84117  1.0000
  C   C1590     1.0  0.84229  0.14690  0.54797  1.0000
  C   C1591     1.0  0.85000  0.14040  0.52234  1.0000
  C   C1592     1.0  0.84674  0.15475  0.50078  1.0000
  C   C1593     1.0  0.83587  0.17567  0.50506  1.0000
  C   C1594     1.0  0.82762  0.18195  0.53049  1.0000
  H   H1877     1.0  0.84488  0.13572  0.56455  1.0000
  H   H1878     1.0  0.85828  0.12423  0.51922  1.0000
  C   C1595     1.0  0.85404  0.01374  0.47630  1.0000
  H   H1879     1.0  0.83001  0.14186  0.62393  1.0000
  H   H1880     1.0  0.98642  0.02685  0.61019  1.0000
  H   H1881     1.0  0.80390  0.17296  0.86244  1.0000
  S   S427      1.0  0.79016  0.28325  0.60975  1.0000
  H   H1882     1.0  0.00866  0.10506  0.80803  1.0000
  H   H1883     1.0  0.89631  0.13312  0.74632  1.0000
  C   C1596     1.0  0.89186  0.15580  0.71361  1.0000
  H   H1884     1.0  0.82509  0.13519  0.65789  1.0000
  H   H1885     1.0  0.76750  0.27971  0.84566  1.0000
  S   S428      1.0  0.96038  0.10275  0.95547  1.0000
  H   H1886     1.0  0.79350  0.03171  0.62471  1.0000
  H   H1887     1.0  0.84757  0.12065  0.63943  1.0000
  H   H1888     1.0  0.99090  0.06850  0.53573  1.0000
  H   H1889     1.0  0.95160  0.11422  0.56353  1.0000
  H   H1890     1.0  0.88091  0.14006  0.62890  1.0000
  S   S429      1.0  0.78752  0.23174  0.56181  1.0000
  S   S430      1.0  0.82121  0.17519  0.58433  1.0000
  H   H1891     1.0  0.78594  0.29114  0.67364  1.0000
  H   H1892     1.0  0.84886  0.11204  0.89198  1.0000
  H   H1893     1.0  0.79528  0.30668  0.84392  1.0000
  H   H1894     1.0  0.99927  0.07103  0.88822  1.0000
  C   C1597     1.0  0.76525  0.22840  0.49027  1.0000
  C   C1598     1.0  0.88768  0.13717  0.72755  1.0000
  H   H1895     1.0  0.86133  0.15857  0.61124  1.0000
  H   H1896     1.0  0.77076  0.30980  0.76074  1.0000
  C   C1599     1.0  0.78105  0.02894  0.64017  1.0000
  C   C1600     1.0  0.94785  0.06556  0.53164  1.0000
  H   H1897     1.0  0.93178  0.06149  0.53965  1.0000
  Fe  Fe223     1.0  0.77826  0.25016  0.59994  1.0000
  C   C1601     1.0  0.94933  0.06996  0.62447  1.0000
  H   H1898     1.0  0.95820  0.04984  0.52861  1.0000
  H   H1899     1.0  0.82844  0.17371  0.67344  1.0000
  H   H1900     1.0  0.79556  0.16435  0.48987  1.0000
  H   H1901     1.0  0.94447  0.07280  0.51147  1.0000
  H   H1902     1.0  0.81006  0.03564  0.68058  1.0000
  H   H1903     1.0  0.77339  0.29395  0.54891  1.0000
  C   C1602     1.0  0.77831  0.32738  0.60876  1.0000
  H   H1904     1.0  0.77359  0.33330  0.54719  1.0000
  C   C1603     1.0  0.77129  0.33479  0.84242  1.0000
  H   H1905     1.0  0.92738  0.10062  0.55407  1.0000
  C   C1604     1.0  0.98063  0.08411  0.53972  1.0000
  H   H1906     1.0  0.86410  0.03462  0.94273  1.0000
  C   C1605     1.0  0.77988  0.26709  0.76906  1.0000
  Fe  Fe224     1.0  0.92536  0.09397  0.95950  1.0000
  H   H1907     1.0  0.96448  0.04335  0.64794  1.0000
  H   H1908     1.0  0.86525  0.02189  0.48915  1.0000
  H   H1909     1.0  0.78392  0.29661  0.94641  1.0000
  H   H1910     1.0  0.79428  0.27523  0.76213  1.0000
  S   S431      1.0  0.86427  0.08239  0.96555  1.0000
  C   C1606     1.0  0.78089  0.01117  0.71025  1.0000
  S   S432      1.0  0.85385  0.14451  0.97118  1.0000
  H   H1911     1.0  0.97953  0.09276  0.52013  1.0000
  H   H1912     1.0  0.78062  0.26732  0.79144  1.0000
  H   H1913     1.0  0.86941  0.10903  0.72815  1.0000
  H   H1914     1.0  0.79747  0.17361  0.81428  1.0000
  H   H1915     1.0  0.83373  0.18708  0.48869  1.0000
  C   C1607     1.0  0.81182  0.01964  0.66972  1.0000
  C   C1608     1.0  0.77518  0.28976  0.96252  1.0000
  H   H1916     1.0  0.88446  0.17557  0.67933  1.0000
  C   C1609     1.0  0.96031  0.07110  0.57722  1.0000
  C   C1610     1.0  0.97436  0.05168  0.58188  1.0000
  C   C1611     1.0  0.97594  0.04192  0.60716  1.0000
  H   H1917     1.0  0.83525  0.02498  0.91060  1.0000
  H   H1918     1.0  0.98986  0.09402  0.55410  1.0000
  N   N107      1.0  0.83687  0.14652  0.89082  1.0000
  C   C1612     1.0  0.85948  0.15306  0.89560  1.0000
  C   C1613     1.0  0.82147  0.16132  0.90719  1.0000
  C   C1614     1.0  0.83594  0.12394  0.90080  1.0000
  C   C1615     1.0  0.83171  0.14724  0.86166  1.0000
  C   C1616     1.0  0.81451  0.16176  0.85034  1.0000
  C   C1617     1.0  0.84450  0.13348  0.84349  1.0000
  C   C1618     1.0  0.81058  0.16232  0.82256  1.0000
  C   C1619     1.0  0.84044  0.13415  0.81579  1.0000
  C   C1620     1.0  0.82352  0.14858  0.80535  1.0000
  H   H1919     1.0  0.86115  0.16962  0.88752  1.0000
  H   H1920     1.0  0.86375  0.15355  0.91742  1.0000
  H   H1921     1.0  0.87233  0.14146  0.88617  1.0000
  H   H1922     1.0  0.82552  0.16022  0.92903  1.0000
  H   H1923     1.0  0.80411  0.15724  0.90479  1.0000
  H   H1924     1.0  0.82221  0.17881  0.90197  1.0000
  H   H1925     1.0  0.94476  0.10959  0.52895  1.0000
  H   H1926     1.0  0.85792  0.12216  0.85059  1.0000
  H   H1927     1.0  0.88000  0.16907  0.63478  1.0000
  H   H1928     1.0  0.85063  0.12348  0.80240  1.0000
  H   H1929     1.0  0.82046  0.14920  0.78386  1.0000
  N   N108      1.0  0.85352  0.15322  0.65269  1.0000
  C   C1621     1.0  0.86967  0.15536  0.63107  1.0000
  C   C1622     1.0  0.83840  0.13695  0.64326  1.0000
  C   C1623     1.0  0.84011  0.17446  0.65655  1.0000
  C   C1624     1.0  0.86535  0.14718  0.67812  1.0000
  H   H1930     1.0  0.79113  0.20422  0.72364  1.0000
  C   C1625     1.0  0.86160  0.12822  0.69280  1.0000
  S   S433      1.0  0.77431  0.20180  0.90859  1.0000
  S   S434      1.0  0.78808  0.22151  0.62654  1.0000
  C   C1626     1.0  0.83492  0.01952  0.93120  1.0000
  H   H1931     1.0  0.93919  0.07671  0.64091  1.0000
  C   C1627     1.0  0.87251  0.12353  0.71722  1.0000
  H   H1932     1.0  0.00133  0.08220  0.84188  1.0000
  H   H1933     1.0  0.98378  0.04357  0.56579  1.0000
  C   C1628     1.0  0.94498  0.10223  0.54930  1.0000
  C   C1629     1.0  0.88081  0.16086  0.68932  1.0000
  C   C1630     1.0  0.77601  0.20796  0.96320  1.0000
  H   H1934     1.0  0.90376  0.16633  0.72168  1.0000
  H   H1935     1.0  0.85030  0.02111  0.53232  1.0000
  H   H1936     1.0  0.77662  0.27375  0.90998  1.0000
  H   H1937     1.0  0.00679  0.10621  0.95336  1.0000
  Fe  Fe225     1.0  0.87837  0.11476  0.96775  1.0000
  H   H1938     1.0  0.79564  0.32912  0.61240  1.0000
  H   H1939     1.0  0.77435  0.18368  0.47772  1.0000
  C   C1631     1.0  0.00447  0.09012  0.96080  1.0000
  H   H1940     1.0  0.77598  0.20461  0.67720  1.0000
  H   H1941     1.0  0.76826  0.15633  0.48624  1.0000
  H   H1942     1.0  0.77536  0.22944  0.50808  1.0000
  C   C1632     1.0  0.77345  0.20514  0.72033  1.0000
  C   C1633     1.0  0.77360  0.28394  0.68530  1.0000
  H   H1943     1.0  0.00870  0.07698  0.79600  1.0000
  H   H1944     1.0  0.76679  0.02327  0.62873  1.0000
  C   C1634     1.0  0.77101  0.30642  0.60653  1.0000
  H   H1945     1.0  0.99434  0.03327  0.48519  1.0000
  C   C1635     1.0  0.98305  0.08384  0.96347  1.0000
  C   C1636     1.0  0.99672  0.04943  0.47805  1.0000
  H   H1946     1.0  0.87397  0.01236  0.79105  1.0000
  H   H1947     1.0  0.80100  0.34157  0.74106  1.0000
  C   C1637     1.0  0.78052  0.16607  0.47682  1.0000
  H   H1948     1.0  0.81120  0.01100  0.52380  1.0000
  N   N109      1.0  0.79004  0.01292  0.66058  1.0000
  H   H1949     1.0  0.79787  0.01163  0.71658  1.0000
  C   C1638     1.0  0.77424  0.01161  0.68272  1.0000
  H   H1950     1.0  0.96197  0.05847  0.47143  1.0000
  H   H1951     1.0  0.83348  0.01554  0.78175  1.0000
  C   C1639     1.0  0.76489  0.20546  0.69395  1.0000
  H   H1952     1.0  0.01328  0.06404  0.63846  1.0000
  H   H1953     1.0  0.87176  0.67457  0.36211  1.0000
  H   H1954     1.0  0.83429  0.52671  0.39827  1.0000
  C   C1640     1.0  0.78649  0.64487  0.42724  1.0000
  C   C1641     1.0  0.77981  0.43615  0.97588  1.0000
  C   C1642     1.0  0.92316  0.46072  0.25823  1.0000
  Fe  Fe226     1.0  0.87755  0.62429  0.97409  1.0000
  H   H1955     1.0  0.96628  0.50884  0.27634  1.0000
  S   S435      1.0  0.77686  0.43482  0.16170  1.0000
  Fe  Fe227     1.0  0.88960  0.57902  0.44951  1.0000
  S   S436      1.0  0.90213  0.61198  0.44430  1.0000
  S   S437      1.0  0.88530  0.55486  0.41559  1.0000
  Fe  Fe228     1.0  0.89473  0.58601  0.00944  1.0000
  S   S438      1.0  0.90267  0.62100  0.00800  1.0000
  S   S439      1.0  0.89313  0.56462  0.04607  1.0000
  H   H1956     1.0  0.82399  0.55736  0.15541  1.0000
  H   H1957     1.0  0.79588  0.36445  0.01739  1.0000
  S   S440      1.0  0.79701  0.35835  0.33292  1.0000
  H   H1958     1.0  0.86733  0.66095  0.05582  1.0000
  S   S441      1.0  0.92056  0.57394  0.97948  1.0000
  H   H1959     1.0  0.99235  0.53914  0.46533  1.0000
  Fe  Fe229     1.0  0.78933  0.39496  0.33845  1.0000
  S   S442      1.0  0.80195  0.41570  0.37202  1.0000
  S   S443      1.0  0.79712  0.41813  0.30606  1.0000
  Fe  Fe230     1.0  0.80609  0.44058  0.33972  1.0000
  S   S444      1.0  0.83425  0.46258  0.34006  1.0000
  H   H1960     1.0  0.83573  0.52083  0.20250  1.0000
  Fe  Fe231     1.0  0.89244  0.57431  0.20271  1.0000
  S   S445      1.0  0.91081  0.54086  0.20108  1.0000
  S   S446      1.0  0.87947  0.59514  0.16750  1.0000
  Fe  Fe232     1.0  0.89359  0.57550  0.26407  1.0000
  S   S447      1.0  0.91233  0.54254  0.26712  1.0000
  S   S448      1.0  0.88348  0.59668  0.29986  1.0000
  Fe  Fe233     1.0  0.93261  0.55372  0.23345  1.0000
  Fe  Fe234     1.0  0.88894  0.53273  0.23498  1.0000
  S   S449      1.0  0.87262  0.50098  0.23413  1.0000
  S   S450      1.0  0.91562  0.58775  0.23300  1.0000
  S   S451      1.0  0.86871  0.56515  0.23394  1.0000
  C   C1643     1.0  0.01313  0.59544  0.08417  1.0000
  C   C1644     1.0  0.84358  0.47395  0.31022  1.0000
  C   C1645     1.0  0.85695  0.49141  0.31213  1.0000
  C   C1646     1.0  0.86529  0.50035  0.28891  1.0000
  C   C1647     1.0  0.86080  0.49152  0.26358  1.0000
  C   C1648     1.0  0.84741  0.47411  0.26163  1.0000
  C   C1649     1.0  0.83863  0.46551  0.28481  1.0000
  H   H1961     1.0  0.86086  0.49809  0.33164  1.0000
  H   H1962     1.0  0.87551  0.51381  0.29069  1.0000
  H   H1963     1.0  0.84388  0.46714  0.24213  1.0000
  H   H1964     1.0  0.82846  0.45201  0.28305  1.0000
  H   H1965     1.0  0.79748  0.43970  0.21321  1.0000
  C   C1650     1.0  0.78016  0.43804  0.21635  1.0000
  C   C1651     1.0  0.80008  0.49163  0.46446  1.0000
  N   N110      1.0  0.84494  0.52746  0.14957  1.0000
  H   H1966     1.0  0.96347  0.45335  0.24127  1.0000
  C   C1652     1.0  0.88408  0.56642  0.38340  1.0000
  C   C1653     1.0  0.88768  0.55287  0.36069  1.0000
  C   C1654     1.0  0.88740  0.56190  0.33489  1.0000
  C   C1655     1.0  0.88318  0.58453  0.33170  1.0000
  C   C1656     1.0  0.87872  0.59793  0.35437  1.0000
  C   C1657     1.0  0.87940  0.58895  0.38015  1.0000
  H   H1967     1.0  0.89101  0.53543  0.36311  1.0000
  H   H1968     1.0  0.89036  0.55137  0.31755  1.0000
  H   H1969     1.0  0.87489  0.61533  0.35209  1.0000
  H   H1970     1.0  0.87608  0.59946  0.39745  1.0000
  C   C1658     1.0  0.89128  0.57448  0.07955  1.0000
  C   C1659     1.0  0.88110  0.59526  0.08591  1.0000
  C   C1660     1.0  0.87797  0.60160  0.11300  1.0000
  C   C1661     1.0  0.88544  0.58745  0.13384  1.0000
  C   C1662     1.0  0.89631  0.56703  0.12744  1.0000
  C   C1663     1.0  0.89888  0.56044  0.10042  1.0000
  H   H1971     1.0  0.87511  0.60614  0.06998  1.0000
  H   H1972     1.0  0.86960  0.61743  0.11789  1.0000
  H   H1973     1.0  0.90259  0.55625  0.14330  1.0000
  H   H1974     1.0  0.90689  0.54441  0.09561  1.0000
  H   H1975     1.0  0.84396  0.55158  0.18194  1.0000
  H   H1976     1.0  0.96234  0.59121  0.22380  1.0000
  H   H1977     1.0  0.77867  0.47020  0.40776  1.0000
  H   H1978     1.0  0.93769  0.48167  0.21730  1.0000
  H   H1979     1.0  0.00692  0.57912  0.01907  1.0000
  H   H1980     1.0  0.89044  0.63900  0.27934  1.0000
  S   S452      1.0  0.86759  0.59015  0.97814  1.0000
  C   C1664     1.0  0.79695  0.48799  0.18236  1.0000
  H   H1981     1.0  0.88044  0.52700  0.14996  1.0000
  C   C1665     1.0  0.91548  0.63922  0.37901  1.0000
  H   H1982     1.0  0.90604  0.66264  0.28207  1.0000
  H   H1983     1.0  0.84599  0.65991  0.29232  1.0000
  C   C1666     1.0  0.84322  0.66316  0.43678  1.0000
  C   C1667     1.0  0.84613  0.64907  0.41457  1.0000
  C   C1668     1.0  0.83774  0.65577  0.38925  1.0000
  C   C1669     1.0  0.96201  0.46466  0.25896  1.0000
  C   C1670     1.0  0.83670  0.66235  0.09650  1.0000
  H   H1984     1.0  0.85477  0.63297  0.41692  1.0000
  H   H1985     1.0  0.83995  0.64465  0.37225  1.0000
  H   H1986     1.0  0.92472  0.44916  0.27532  1.0000
  C   C1671     1.0  0.85644  0.67271  0.04369  1.0000
  C   C1672     1.0  0.93669  0.49121  0.23647  1.0000
  C   C1673     1.0  0.97984  0.58636  0.22323  1.0000
  H   H1987     1.0  0.78252  0.44277  0.25920  1.0000
  H   H1988     1.0  0.81517  0.50198  0.12196  1.0000
  H   H1989     1.0  0.86627  0.49734  0.45421  1.0000
  C   C1674     1.0  0.89182  0.65534  0.33263  1.0000
  C   C1675     1.0  0.81027  0.49952  0.19928  1.0000
  C   C1676     1.0  0.89761  0.65496  0.38163  1.0000
  C   C1677     1.0  0.82879  0.64699  0.04029  1.0000
  C   C1678     1.0  0.79033  0.47779  0.42077  1.0000
  H   H1990     1.0  0.89250  0.66071  0.40149  1.0000
  H   H1991     1.0  0.92486  0.45072  0.23942  1.0000
  C   C1679     1.0  0.77176  0.43953  0.24245  1.0000
  H   H1992     1.0  0.87949  0.66414  0.26549  1.0000
  H   H1993     1.0  0.98488  0.58974  0.05912  1.0000
  H   H1994     1.0  0.00249  0.59993  0.10088  1.0000
  H   H1995     1.0  0.85254  0.56113  0.15078  1.0000
  H   H1996     1.0  0.86926  0.51889  0.18070  1.0000
  H   H1997     1.0  0.82872  0.53546  0.11165  1.0000
  N   N111      1.0  0.93983  0.47691  0.26023  1.0000
  C   C1680     1.0  0.77744  0.42892  0.45038  1.0000
  H   H1998     1.0  0.98836  0.61891  0.21500  1.0000
  H   H1999     1.0  0.87017  0.50057  0.15241  1.0000
  C   C1681     1.0  0.85699  0.65387  0.30919  1.0000
  H   H2000     1.0  0.79678  0.64289  0.40889  1.0000
  H   H2001     1.0  0.81402  0.47864  0.39003  1.0000
  H   H2002     1.0  0.79136  0.38370  0.97777  1.0000
  C   C1682     1.0  0.93815  0.49050  0.28509  1.0000
  C   C1683     1.0  0.92137  0.48893  0.30437  1.0000
  C   C1684     1.0  0.95344  0.50621  0.29040  1.0000
  C   C1685     1.0  0.92005  0.50237  0.32731  1.0000
  C   C1686     1.0  0.95196  0.51955  0.31342  1.0000
  C   C1687     1.0  0.93526  0.51767  0.33182  1.0000
  H   H2003     1.0  0.97537  0.47570  0.25705  1.0000
  H   H2004     1.0  0.90878  0.47775  0.30203  1.0000
  H   H2005     1.0  0.90690  0.50113  0.34148  1.0000
  H   H2006     1.0  0.96350  0.53179  0.31664  1.0000
  H   H2007     1.0  0.93391  0.52834  0.34939  1.0000
  S   S453      1.0  0.85290  0.65510  0.46895  1.0000
  H   H2008     1.0  0.94923  0.50323  0.23553  1.0000
  H   H2009     1.0  0.78084  0.36729  0.25909  1.0000
  C   C1688     1.0  0.99465  0.60205  0.21818  1.0000
  H   H2010     1.0  0.84910  0.51191  0.11053  1.0000
  H   H2011     1.0  0.92021  0.50068  0.23679  1.0000
  S   S454      1.0  0.96961  0.54439  0.23429  1.0000
  C   C1689     1.0  0.77593  0.35827  0.41474  1.0000
  H   H2012     1.0  0.90603  0.46894  0.25771  1.0000
  C   C1690     1.0  0.79898  0.48920  0.15462  1.0000
  H   H2013     1.0  0.76572  0.64810  0.38041  1.0000
  H   H2014     1.0  0.79701  0.65227  0.44267  1.0000
  H   H2015     1.0  0.83117  0.50404  0.46898  1.0000
  H   H2016     1.0  0.79715  0.43418  0.98132  1.0000
  C   C1691     1.0  0.84494  0.52838  0.11975  1.0000
  N   N112      1.0  0.84797  0.49683  0.41663  1.0000
  C   C1692     1.0  0.84458  0.51133  0.39302  1.0000
  C   C1693     1.0  0.86220  0.50763  0.43628  1.0000
  C   C1694     1.0  0.86026  0.47594  0.40808  1.0000
  C   C1695     1.0  0.82634  0.49233  0.42751  1.0000
  C   C1696     1.0  0.82555  0.51246  0.18849  1.0000
  H   H2017     1.0  0.79006  0.36783  0.41570  1.0000
  C   C1697     1.0  0.82640  0.67491  0.07525  1.0000
  H   H2018     1.0  0.83644  0.50337  0.37581  1.0000
  C   C1698     1.0  0.86714  0.51809  0.15852  1.0000
  H   H2019     1.0  0.00691  0.62728  0.97262  1.0000
  H   H2020     1.0  0.86050  0.51618  0.38537  1.0000
  H   H2021     1.0  0.78237  0.37299  0.04789  1.0000
  H   H2022     1.0  0.85437  0.52394  0.44285  1.0000
  H   H2023     1.0  0.87831  0.51071  0.42743  1.0000
  H   H2024     1.0  0.01265  0.58869  0.29094  1.0000
  H   H2025     1.0  0.85133  0.46736  0.39211  1.0000
  H   H2026     1.0  0.87664  0.47860  0.39971  1.0000
  H   H2027     1.0  0.86294  0.46450  0.42520  1.0000
  C   C1699     1.0  0.91006  0.63913  0.33070  1.0000
  C   C1700     1.0  0.81064  0.48269  0.41086  1.0000
  H   H2028     1.0  0.84807  0.65792  0.32808  1.0000
  H   H2029     1.0  0.85754  0.53891  0.11242  1.0000
  C   C1701     1.0  0.81430  0.50204  0.14359  1.0000
  H   H2030     1.0  0.81137  0.64396  0.04407  1.0000
  H   H2031     1.0  0.84936  0.64919  0.09252  1.0000
  H   H2032     1.0  0.92430  0.63282  0.39672  1.0000
  C   C1702     1.0  0.82040  0.49675  0.45473  1.0000
  H   H2033     1.0  0.77441  0.38355  0.21816  1.0000
  N   N113      1.0  0.83268  0.66995  0.04705  1.0000
  H   H2034     1.0  0.78441  0.39256  0.02221  1.0000
  C   C1703     1.0  0.92165  0.63130  0.35362  1.0000
  H   H2035     1.0  0.83968  0.63493  0.05201  1.0000
  C   C1704     1.0  0.98772  0.56453  0.22752  1.0000
  H   H2036     1.0  0.78524  0.47783  0.19072  1.0000
  Fe  Fe235     1.0  0.92683  0.60907  0.97591  1.0000
  H   H2037     1.0  0.96558  0.45478  0.27737  1.0000
  H   H2038     1.0  0.93509  0.61849  0.35173  1.0000
  H   H2039     1.0  0.80906  0.49814  0.22089  1.0000
  C   C1705     1.0  0.82808  0.51414  0.16032  1.0000
  H   H2040     1.0  0.78933  0.42645  0.43444  1.0000
  Fe  Fe236     1.0  0.76696  0.43083  0.37392  1.0000
  H   H2041     1.0  0.83217  0.64297  0.01880  1.0000
  C   C1706     1.0  0.84113  0.55028  0.15990  1.0000
  H   H2042     1.0  0.91521  0.63159  0.31183  1.0000
  C   C1707     1.0  0.88590  0.66289  0.35887  1.0000
  C   C1708     1.0  0.83089  0.66650  0.12328  1.0000
  H   H2043     1.0  0.85909  0.63574  0.30778  1.0000
  H   H2044     1.0  0.78886  0.47972  0.14164  1.0000
  H   H2045     1.0  0.78354  0.62825  0.43415  1.0000
  C   C1709     1.0  0.78507  0.48224  0.44751  1.0000
  C   C1710     1.0  0.88921  0.65703  0.28291  1.0000
  S   S455      1.0  0.77280  0.43912  0.03004  1.0000
  H   H2046     1.0  0.76681  0.39457  0.26252  1.0000
  C   C1711     1.0  0.01055  0.55856  0.22660  1.0000
  H   H2047     1.0  0.83896  0.65663  0.13915  1.0000
  C   C1712     1.0  0.78173  0.37511  0.02568  1.0000
  N   N114      1.0  0.76536  0.65843  0.42208  1.0000
  N   N115      1.0  0.87852  0.66326  0.30891  1.0000
  S   S456      1.0  0.77179  0.45729  0.34433  1.0000
  H   H2048     1.0  0.86161  0.66994  0.02245  1.0000
  C   C1713     1.0  0.00272  0.58954  0.06023  1.0000
  C   C1714     1.0  0.99465  0.55633  0.46765  1.0000
  C   C1715     1.0  0.76592  0.37697  0.26705  1.0000
  H   H2049     1.0  0.76718  0.37561  0.28932  1.0000
  H   H2050     1.0  0.01291  0.61531  0.30638  1.0000
  H   H2051     1.0  0.76858  0.38638  0.17013  1.0000
  S   S457      1.0  0.96086  0.62089  0.97249  1.0000
  H   H2052     1.0  0.76942  0.47810  0.45518  1.0000
  C   C1716     1.0  0.76614  0.43507  0.19428  1.0000
  C   C1717     1.0  0.83038  0.40486  0.74354  1.0000
  H   H2053     1.0  0.79607  0.44127  0.71875  1.0000
  H   H2054     1.0  0.94629  0.54650  0.82139  1.0000
  H   H2055     1.0  0.86639  0.64424  0.79829  1.0000
  C   C1718     1.0  0.82665  0.65477  0.57633  1.0000
  H   H2056     1.0  0.92939  0.58326  0.90114  1.0000
  C   C1719     1.0  0.82626  0.40100  0.71636  1.0000
  C   C1720     1.0  0.93718  0.57251  0.57249  1.0000
  Fe  Fe237     1.0  0.89417  0.58133  0.94817  1.0000
  S   S458      1.0  0.90240  0.61570  0.94213  1.0000
  S   S459      1.0  0.89068  0.55758  0.91368  1.0000
  Fe  Fe238     1.0  0.88486  0.58498  0.51023  1.0000
  S   S460      1.0  0.89658  0.61844  0.50980  1.0000
  S   S461      1.0  0.87498  0.56702  0.54685  1.0000
  C   C1721     1.0  0.96402  0.60123  0.59788  1.0000
  C   C1722     1.0  0.94634  0.58773  0.90576  1.0000
  C   C1723     1.0  0.81200  0.66207  0.79301  1.0000
  H   H2057     1.0  0.84707  0.45832  0.64252  1.0000
  C   C1724     1.0  0.84089  0.43562  0.70471  1.0000
  Fe  Fe239     1.0  0.87520  0.62367  0.47273  1.0000
  C   C1725     1.0  0.98005  0.58603  0.73161  1.0000
  S   S462      1.0  0.79770  0.41352  0.87080  1.0000
  S   S463      1.0  0.96757  0.54383  0.72545  1.0000
  Fe  Fe240     1.0  0.80268  0.43472  0.83490  1.0000
  S   S464      1.0  0.83459  0.45110  0.83047  1.0000
  C   C1726     1.0  0.94737  0.58746  0.55734  1.0000
  Fe  Fe241     1.0  0.89217  0.57788  0.70140  1.0000
  S   S465      1.0  0.90605  0.54279  0.69873  1.0000
  S   S466      1.0  0.88709  0.60124  0.66647  1.0000
  Fe  Fe242     1.0  0.89538  0.57798  0.76311  1.0000
  S   S467      1.0  0.91010  0.54308  0.76465  1.0000
  S   S468      1.0  0.88855  0.60046  0.79882  1.0000
  Fe  Fe243     1.0  0.93064  0.55251  0.73005  1.0000
  Fe  Fe244     1.0  0.88386  0.53718  0.73368  1.0000
  S   S469      1.0  0.85902  0.51135  0.73407  1.0000
  S   S470      1.0  0.91767  0.58770  0.73096  1.0000
  S   S471      1.0  0.86822  0.57196  0.73382  1.0000
  H   H2058     1.0  0.96325  0.59093  0.73716  1.0000
  C   C1727     1.0  0.84044  0.46922  0.80456  1.0000
  C   C1728     1.0  0.86175  0.47623  0.80319  1.0000
  C   C1729     1.0  0.86730  0.49022  0.78265  1.0000
  C   C1730     1.0  0.85160  0.49726  0.76306  1.0000
  C   C1731     1.0  0.83010  0.49073  0.76487  1.0000
  C   C1732     1.0  0.82454  0.47675  0.78545  1.0000
  H   H2059     1.0  0.87422  0.47041  0.81778  1.0000
  H   H2060     1.0  0.88396  0.49486  0.78137  1.0000
  H   H2061     1.0  0.81771  0.49624  0.75006  1.0000
  H   H2062     1.0  0.80805  0.47158  0.78629  1.0000
  S   S472      1.0  0.85154  0.65308  0.97057  1.0000
  S   S473      1.0  0.77899  0.43910  0.66471  1.0000
  H   H2063     1.0  0.81161  0.65354  0.65262  1.0000
  H   H2064     1.0  0.96221  0.56709  0.78542  1.0000
  H   H2065     1.0  0.99018  0.61868  0.73575  1.0000
  C   C1733     1.0  0.88915  0.56950  0.88176  1.0000
  C   C1734     1.0  0.89405  0.55635  0.85904  1.0000
  C   C1735     1.0  0.89354  0.56566  0.83346  1.0000
  C   C1736     1.0  0.88833  0.58817  0.83047  1.0000
  C   C1737     1.0  0.88299  0.60123  0.85315  1.0000
  C   C1738     1.0  0.88330  0.59190  0.87874  1.0000
  H   H2066     1.0  0.89853  0.53899  0.86121  1.0000
  H   H2067     1.0  0.89741  0.55541  0.81615  1.0000
  H   H2068     1.0  0.87864  0.61862  0.85097  1.0000
  H   H2069     1.0  0.87878  0.60202  0.89603  1.0000
  C   C1739     1.0  0.87986  0.57637  0.57989  1.0000
  C   C1740     1.0  0.87647  0.56268  0.60148  1.0000
  C   C1741     1.0  0.87932  0.56988  0.62813  1.0000
  C   C1742     1.0  0.88515  0.59101  0.63334  1.0000
  C   C1743     1.0  0.88890  0.60461  0.61177  1.0000
  C   C1744     1.0  0.88651  0.59723  0.58509  1.0000
  H   H2070     1.0  0.87138  0.54650  0.59756  1.0000
  H   H2071     1.0  0.87634  0.55930  0.64462  1.0000
  H   H2072     1.0  0.89357  0.62094  0.61568  1.0000
  H   H2073     1.0  0.88947  0.60777  0.56861  1.0000
  H   H2074     1.0  0.99086  0.59562  0.64287  1.0000
  S   S474      1.0  0.79164  0.40984  0.80530  1.0000
  H   H2075     1.0  0.78194  0.34474  0.69738  1.0000
  H   H2076     1.0  0.96826  0.61366  0.55799  1.0000
  H   H2077     1.0  0.81188  0.46792  0.68701  1.0000
  H   H2078     1.0  0.94299  0.63467  0.87010  1.0000
  S   S475      1.0  0.79174  0.35343  0.84105  1.0000
  C   C1745     1.0  0.80505  0.66960  0.61485  1.0000
  N   N116      1.0  0.83312  0.65508  0.54780  1.0000
  H   H2079     1.0  0.84301  0.62025  0.54345  1.0000
  N   N117      1.0  0.95404  0.60258  0.88532  1.0000
  H   H2080     1.0  0.83454  0.63343  0.51311  1.0000
  C   C1746     1.0  0.79191  0.48783  0.93376  1.0000
  C   C1747     1.0  0.85209  0.65169  0.91507  1.0000
  H   H2081     1.0  0.84382  0.61401  0.78611  1.0000
  C   C1748     1.0  0.83119  0.66794  0.71172  1.0000
  H   H2082     1.0  0.98790  0.59545  0.89770  1.0000
  H   H2083     1.0  0.86339  0.63717  0.91690  1.0000
  H   H2084     1.0  0.81419  0.62819  0.53740  1.0000
  H   H2085     1.0  0.82692  0.41247  0.67658  1.0000
  N   N118      1.0  0.95738  0.58615  0.64354  1.0000
  C   C1749     1.0  0.94618  0.56905  0.65734  1.0000
  C   C1750     1.0  0.98132  0.58234  0.65005  1.0000
  C   C1751     1.0  0.94875  0.60762  0.65505  1.0000
  C   C1752     1.0  0.95388  0.58619  0.61400  1.0000
  C   C1753     1.0  0.83790  0.65121  0.75606  1.0000
  H   H2086     1.0  0.78539  0.36169  0.78089  1.0000
  C   C1754     1.0  0.83726  0.63900  0.59397  1.0000
  H   H2087     1.0  0.78581  0.43448  0.93318  1.0000
  H   H2088     1.0  0.94230  0.56156  0.86645  1.0000
  H   H2089     1.0  0.94930  0.56934  0.67945  1.0000
  H   H2090     1.0  0.92793  0.57154  0.65459  1.0000
  H   H2091     1.0  0.95215  0.55231  0.65019  1.0000
  C   C1755     1.0  0.76942  0.66917  0.93672  1.0000
  H   H2092     1.0  0.98443  0.58150  0.67214  1.0000
  C   C1756     1.0  0.84583  0.65966  0.88948  1.0000
  H   H2093     1.0  0.95015  0.60788  0.67741  1.0000
  H   H2094     1.0  0.95776  0.62127  0.64783  1.0000
  C   C1757     1.0  0.81579  0.65385  0.63156  1.0000
  C   C1758     1.0  0.98452  0.60218  0.96877  1.0000
  C   C1759     1.0  0.85074  0.65457  0.80208  1.0000
  H   H2095     1.0  0.95765  0.57249  0.90766  1.0000
  H   H2096     1.0  0.81851  0.38651  0.71022  1.0000
  C   C1760     1.0  0.77592  0.37968  0.96891  1.0000
  N   N119      1.0  0.84554  0.51154  0.89017  1.0000
  C   C1761     1.0  0.84070  0.53545  0.88642  1.0000
  C   C1762     1.0  0.86642  0.50749  0.90586  1.0000
  C   C1763     1.0  0.84928  0.50132  0.86321  1.0000
  C   C1764     1.0  0.82722  0.50301  0.90482  1.0000
  C   C1765     1.0  0.00868  0.55810  0.71874  1.0000
  H   H2097     1.0  0.84072  0.54476  0.90576  1.0000
  H   H2098     1.0  0.85335  0.54224  0.87390  1.0000
  H   H2099     1.0  0.82437  0.53930  0.87636  1.0000
  H   H2100     1.0  0.86610  0.51671  0.92526  1.0000
  H   H2101     1.0  0.88074  0.51286  0.89488  1.0000
  H   H2102     1.0  0.87004  0.48979  0.91034  1.0000
  H   H2103     1.0  0.86313  0.50805  0.85266  1.0000
  H   H2104     1.0  0.85369  0.48335  0.86465  1.0000
  H   H2105     1.0  0.83450  0.50423  0.84982  1.0000
  C   C1766     1.0  0.78459  0.42867  0.47740  1.0000
  H   H2106     1.0  0.84712  0.65268  0.82371  1.0000
  C   C1767     1.0  0.76937  0.43242  0.49826  1.0000
  H   H2107     1.0  0.80204  0.42591  0.48214  1.0000
  H   H2108     1.0  0.85882  0.67607  0.55632  1.0000
  C   C1768     1.0  0.83109  0.63333  0.53501  1.0000
  H   H2109     1.0  0.87630  0.63103  0.71000  1.0000
  H   H2110     1.0  0.82404  0.62273  0.81069  1.0000
  H   H2111     1.0  0.85383  0.43044  0.65228  1.0000
  C   C1769     1.0  0.96072  0.60182  0.56999  1.0000
  C   C1770     1.0  0.86204  0.64080  0.71799  1.0000
  H   H2112     1.0  0.92145  0.61748  0.87623  1.0000
  H   H2113     1.0  0.83108  0.52320  0.94074  1.0000
  S   S476      1.0  0.86116  0.59131  0.47549  1.0000
  C   C1771     1.0  0.95664  0.59234  0.85826  1.0000
  H   H2114     1.0  0.86801  0.64739  0.55599  1.0000
  C   C1772     1.0  0.84942  0.65528  0.70140  1.0000
  N   N120      1.0  0.83228  0.64847  0.78458  1.0000
  H   H2115     1.0  0.98859  0.56664  0.64107  1.0000
  C   C1773     1.0  0.93773  0.62205  0.88376  1.0000
  C   C1774     1.0  0.94982  0.57131  0.85190  1.0000
  S   S477      1.0  0.91218  0.56962  0.48447  1.0000
  H   H2116     1.0  0.92635  0.56171  0.56257  1.0000
  H   H2117     1.0  0.93130  0.56023  0.61086  1.0000
  H   H2118     1.0  0.78674  0.38845  0.92975  1.0000
  C   C1775     1.0  0.81410  0.48698  0.89373  1.0000
  H   H2119     1.0  0.85392  0.67195  0.79922  1.0000
  C   C1776     1.0  0.96084  0.57402  0.80559  1.0000
  H   H2120     1.0  0.96032  0.56575  0.47582  1.0000
  H   H2121     1.0  0.79734  0.65831  0.78081  1.0000
  C   C1777     1.0  0.96752  0.59473  0.81106  1.0000
  C   C1778     1.0  0.78552  0.35174  0.73916  1.0000
  H   H2122     1.0  0.97431  0.61288  0.60680  1.0000
  C   C1779     1.0  0.97536  0.60968  0.89540  1.0000
  H   H2123     1.0  0.97395  0.60391  0.79495  1.0000
  H   H2124     1.0  0.86182  0.66114  0.52511  1.0000
  H   H2125     1.0  0.81550  0.61976  0.77604  1.0000
  H   H2126     1.0  0.94466  0.58812  0.53574  1.0000
  C   C1780     1.0  0.85643  0.66012  0.54630  1.0000
  C   C1781     1.0  0.98284  0.57985  0.96433  1.0000
  C   C1782     1.0  0.82871  0.62528  0.78950  1.0000
  H   H2127     1.0  0.78684  0.46743  0.89928  1.0000
  H   H2128     1.0  0.82546  0.44252  0.65155  1.0000
  C   C1783     1.0  0.84283  0.44553  0.65670  1.0000
  H   H2129     1.0  0.88036  0.44482  0.68817  1.0000
  H   H2130     1.0  0.97010  0.62026  0.83987  1.0000
  H   H2131     1.0  0.84042  0.62635  0.63416  1.0000
  C   C1784     1.0  0.76583  0.44013  0.69601  1.0000
  C   C1785     1.0  0.83972  0.42378  0.75162  1.0000
  N   N121      1.0  0.84516  0.45267  0.68517  1.0000
  H   H2132     1.0  0.85164  0.45355  0.74001  1.0000
  H   H2133     1.0  0.81692  0.47979  0.87401  1.0000
  H   H2134     1.0  0.77842  0.48203  0.94478  1.0000
  C   C1786     1.0  0.81947  0.67164  0.53168  1.0000
  C   C1787     1.0  0.98657  0.56409  0.72546  1.0000
  H   H2135     1.0  0.97357  0.61776  0.91556  1.0000
  C   C1788     1.0  0.80450  0.50343  0.94525  1.0000
  H   H2136     1.0  0.77868  0.43895  0.76279  1.0000
  C   C1789     1.0  0.77496  0.66892  0.96396  1.0000
  C   C1790     1.0  0.84372  0.66253  0.93813  1.0000
  H   H2137     1.0  0.82604  0.39337  0.75845  1.0000
  H   H2138     1.0  0.86686  0.62729  0.75684  1.0000
  C   C1791     1.0  0.86790  0.45927  0.68896  1.0000
  H   H2139     1.0  0.98205  0.62186  0.88231  1.0000
  H   H2140     1.0  0.87205  0.47103  0.67342  1.0000
  H   H2141     1.0  0.87016  0.46798  0.70841  1.0000
  C   C1792     1.0  0.84492  0.43893  0.73257  1.0000
  S   S478      1.0  0.77912  0.43301  0.53181  1.0000
  H   H2142     1.0  0.96686  0.57357  0.96395  1.0000
  H   H2143     1.0  0.83086  0.47911  0.71006  1.0000
  C   C1793     1.0  0.85645  0.63875  0.74486  1.0000
  C   C1794     1.0  0.83137  0.41608  0.69712  1.0000
  H   H2144     1.0  0.76983  0.36121  0.48120  1.0000
  Fe  Fe245     1.0  0.78344  0.39035  0.84108  1.0000
  H   H2145     1.0  0.85389  0.65671  0.68055  1.0000
  H   H2146     1.0  0.93510  0.63014  0.90380  1.0000
  H   H2147     1.0  0.84261  0.42694  0.77285  1.0000
  Fe  Fe246     1.0  0.92245  0.60359  0.48147  1.0000
  H   H2148     1.0  0.80080  0.50965  0.96533  1.0000
  H   H2149     1.0  0.77985  0.36663  0.52965  1.0000
  C   C1795     1.0  0.00196  0.56552  0.96037  1.0000
  H   H2150     1.0  0.00051  0.54826  0.95696  1.0000
  C   C1796     1.0  0.99541  0.60177  0.73090  1.0000
  C   C1797     1.0  0.77854  0.44025  0.71966  1.0000
  C   C1798     1.0  0.82923  0.47210  0.68956  1.0000
  H   H2151     1.0  0.83178  0.48547  0.67539  1.0000
  C   C1799     1.0  0.95197  0.56239  0.82593  1.0000
  H   H2152     1.0  0.94560  0.59553  0.92608  1.0000
  H   H2153     1.0  0.84990  0.62689  0.58687  1.0000
  C   C1800     1.0  0.94022  0.57185  0.60041  1.0000
  C   C1801     1.0  0.77684  0.36312  0.76159  1.0000
  C   C1802     1.0  0.97647  0.57140  0.47361  1.0000
  C   C1803     1.0  0.96538  0.60386  0.83692  1.0000
  C   C1804     1.0  0.83192  0.63859  0.62115  1.0000
  S   S479      1.0  0.76936  0.45367  0.83826  1.0000
  H   H2154     1.0  0.93097  0.61143  0.64970  1.0000
  H   H2155     1.0  0.79597  0.49473  0.48537  1.0000
  S   S480      1.0  0.95739  0.61268  0.48697  1.0000
  H   H2156     1.0  0.01306  0.59752  0.54281  1.0000
  C   C1805     1.0  0.77447  0.35365  0.71431  1.0000
  C   C1806     1.0  0.82185  0.51100  0.93104  1.0000
  C   C1807     1.0  0.77343  0.43631  0.94860  1.0000
  H   H2157     1.0  0.82438  0.67125  0.51023  1.0000
  H   H2158     1.0  0.00401  0.57303  0.55676  1.0000
  C   C1808     1.0  0.76866  0.43886  0.74472  1.0000
  H   H2159     1.0  0.85260  0.65124  0.87186  1.0000
  C   C1809     1.0  0.77351  0.38253  0.94115  1.0000
  H   H2160     1.0  0.80802  0.65918  0.81436  1.0000
  H   H2161     1.0  0.80167  0.66887  0.53192  1.0000
  C   C1810     1.0  0.82546  0.66608  0.73867  1.0000
  S   S481      1.0  0.76741  0.40807  0.59802  1.0000
  C   C1811     1.0  0.81033  0.67019  0.58764  1.0000
  C   C1812     1.0  0.79669  0.47964  0.90808  1.0000
  H   H2162     1.0  0.77319  0.36956  0.66226  1.0000
  C   C1813     1.0  0.97936  0.59358  0.47724  1.0000
  H   H2163     1.0  0.76916  0.36208  0.60737  1.0000
  C   C1814     1.0  0.00547  0.61001  0.96924  1.0000
  H   H2164     1.0  0.00988  0.57445  0.52175  1.0000
  H   H2165     1.0  0.78242  0.66737  0.92196  1.0000
  H   H2166     1.0  0.00277  0.61781  0.47688  1.0000
  C   C1815     1.0  0.00043  0.60064  0.47427  1.0000
  H   H2167     1.0  0.01393  0.54118  0.71399  1.0000
  H   H2168     1.0  0.77642  0.67251  0.47276  1.0000
  H   H2169     1.0  0.79217  0.66687  0.97024  1.0000
  Fe  Fe247     1.0  0.77980  0.76292  0.34338  1.0000
  H   H2170     1.0  0.82512  0.68022  0.00626  1.0000
  S   S482      1.0  0.79334  0.79551  0.33767  1.0000
  S   S483      1.0  0.78736  0.74182  0.37940  1.0000
  H   H2171     1.0  0.86261  0.98188  0.24834  1.0000
  C   C1816     1.0  0.81011  0.69203  0.08255  1.0000
  C   C1817     1.0  0.78645  0.86716  0.46297  1.0000
  C   C1818     1.0  0.85570  0.97995  0.26866  1.0000
  S   S484      1.0  0.79110  0.92861  0.11860  1.0000
  C   C1819     1.0  0.76482  0.85728  0.32798  1.0000
  S   S485      1.0  0.78363  0.94376  0.26482  1.0000
  S   S486      1.0  0.79299  0.92957  0.05285  1.0000
  H   H2172     1.0  0.78374  0.95468  0.99739  1.0000
  Fe  Fe248     1.0  0.78001  0.90802  0.08418  1.0000
  S   S487      1.0  0.78751  0.87109  0.08548  1.0000
  Fe  Fe249     1.0  0.80031  0.95204  0.08751  1.0000
  S   S488      1.0  0.83023  0.97149  0.08900  1.0000
  C   C1820     1.0  0.83424  0.00553  0.98532  1.0000
  H   H2173     1.0  0.77584  0.85390  0.14263  1.0000
  H   H2174     1.0  0.81355  0.97804  0.25444  1.0000
  C   C1821     1.0  0.76750  0.87324  0.24814  1.0000
  H   H2175     1.0  0.81167  0.99917  0.04680  1.0000
  N   N122      1.0  0.83747  0.99706  0.27446  1.0000
  H   H2176     1.0  0.79337  0.90345  0.41633  1.0000
  H   H2177     1.0  0.86284  0.69346  0.32593  1.0000
  N   N123      1.0  0.76955  0.87963  0.17222  1.0000
  C   C1822     1.0  0.77274  0.95495  0.98013  1.0000
  H   H2178     1.0  0.81535  0.98659  0.42585  1.0000
  H   H2179     1.0  0.78047  0.68821  0.43090  1.0000
  C   C1823     1.0  0.84083  0.98169  0.16906  1.0000
  C   C1824     1.0  0.77031  0.94810  0.23344  1.0000
  H   H2180     1.0  0.83520  0.97561  0.18778  1.0000
  C   C1825     1.0  0.83182  0.68391  0.43356  1.0000
  C   C1826     1.0  0.77015  0.85632  0.16371  1.0000
  H   H2181     1.0  0.77727  0.86490  0.26396  1.0000
  H   H2182     1.0  0.78168  0.84545  0.17614  1.0000
  C   C1827     1.0  0.85561  0.99673  0.12055  1.0000
  C   C1828     1.0  0.78012  0.83864  0.32828  1.0000
  H   H2183     1.0  0.80524  0.87564  0.41412  1.0000
  H   H2184     1.0  0.80078  0.94491  0.21167  1.0000
  Fe  Fe250     1.0  0.79120  0.71389  0.34986  1.0000
  S   S489      1.0  0.78559  0.94859  0.39665  1.0000
  C   C1829     1.0  0.79207  0.88681  0.17015  1.0000
  H   H2185     1.0  0.80469  0.00644  0.25916  1.0000
  H   H2186     1.0  0.79838  0.99567  0.01538  1.0000
  H   H2187     1.0  0.76685  0.85607  0.38655  1.0000
  C   C1830     1.0  0.81197  0.00383  0.02526  1.0000
  C   C1831     1.0  0.85088  0.00578  0.03116  1.0000
  H   H2188     1.0  0.77809  0.78538  0.26544  1.0000
  H   H2189     1.0  0.80140  0.70259  0.06797  1.0000
  H   H2190     1.0  0.79803  0.88563  0.14904  1.0000
  C   C1832     1.0  0.77030  0.68080  0.41513  1.0000
  C   C1833     1.0  0.83975  0.98149  0.12020  1.0000
  S   S490      1.0  0.77082  0.72223  0.02830  1.0000
  C   C1834     1.0  0.76752  0.85700  0.40887  1.0000
  H   H2191     1.0  0.77618  0.73300  0.43142  1.0000
  C   C1835     1.0  0.77309  0.83017  0.08749  1.0000
  C   C1836     1.0  0.83219  0.97420  0.14458  1.0000
  H   H2192     1.0  0.89009  0.69526  0.31289  1.0000
  H   H2193     1.0  0.80765  0.98565  0.37448  1.0000
  H   H2194     1.0  0.77971  0.68097  0.39615  1.0000
  H   H2195     1.0  0.82002  0.96246  0.14460  1.0000
  H   H2196     1.0  0.82440  0.96542  0.00120  1.0000
  C   C1837     1.0  0.82278  0.00743  0.34837  1.0000
  C   C1838     1.0  0.83757  0.97312  0.01258  1.0000
  C   C1839     1.0  0.81477  0.68333  0.12969  1.0000
  H   H2197     1.0  0.79237  0.90416  0.17698  1.0000
  H   H2198     1.0  0.81017  0.68660  0.15043  1.0000
  C   C1840     1.0  0.77416  0.81879  0.33820  1.0000
  H   H2199     1.0  0.76948  0.87244  0.32007  1.0000
  H   H2200     1.0  0.79021  0.82431  0.08442  1.0000
  H   H2201     1.0  0.86017  0.68953  0.04964  1.0000
  S   S491      1.0  0.86779  0.00526  0.20057  1.0000
  H   H2202     1.0  0.79044  0.88784  0.38603  1.0000
  H   H2203     1.0  0.79091  0.71633  0.97639  1.0000
  C   C1841     1.0  0.79061  0.88687  0.40838  1.0000
  H   H2204     1.0  0.82950  0.69488  0.45070  1.0000
  H   H2205     1.0  0.80323  0.80874  0.45006  1.0000
  H   H2206     1.0  0.79655  0.83956  0.32064  1.0000
  H   H2207     1.0  0.78164  0.84533  0.41506  1.0000
  C   C1842     1.0  0.85678  0.99683  0.16940  1.0000
  S   S492      1.0  0.77122  0.91849  0.33316  1.0000
  H   H2208     1.0  0.78267  0.95034  0.16716  1.0000
  H   H2209     1.0  0.77144  0.71336  0.25908  1.0000
  C   C1843     1.0  0.76685  0.85277  0.08819  1.0000
  H   H2210     1.0  0.82266  0.70182  0.03053  1.0000
  S   S493      1.0  0.78750  0.73554  0.31354  1.0000
  H   H2211     1.0  0.79206  0.70925  0.11445  1.0000
  C   C1844     1.0  0.87441  0.68752  0.30975  1.0000
  H   H2212     1.0  0.78497  0.70773  0.21248  1.0000
  H   H2213     1.0  0.79889  0.85658  0.45272  1.0000
  C   C1845     1.0  0.82952  0.99432  0.30206  1.0000
  C   C1846     1.0  0.82615  0.99426  0.43994  1.0000
  C   C1847     1.0  0.79076  0.94343  0.45107  1.0000
  H   H2214     1.0  0.80601  0.95660  0.34002  1.0000
  S   S494      1.0  0.81648  0.68466  0.35378  1.0000
  H   H2215     1.0  0.81923  0.96157  0.29476  1.0000
  C   C1848     1.0  0.76834  0.71501  0.21584  1.0000
  N   N124      1.0  0.76972  0.87968  0.41857  1.0000
  H   H2216     1.0  0.85361  0.96755  0.00314  1.0000
  H   H2217     1.0  0.80798  0.93896  0.44682  1.0000
  H   H2218     1.0  0.81529  0.70688  0.40588  1.0000
  C   C1849     1.0  0.82368  0.69071  0.40818  1.0000
  N   N125      1.0  0.83381  0.99735  0.01314  1.0000
  C   C1850     1.0  0.86396  0.00451  0.14504  1.0000
  C   C1851     1.0  0.81390  0.98805  0.35458  1.0000
  C   C1852     1.0  0.80450  0.69608  0.10938  1.0000
  C   C1853     1.0  0.77584  0.94879  0.42984  1.0000
  H   H2219     1.0  0.83788  0.96624  0.03319  1.0000
  C   C1854     1.0  0.76611  0.72985  0.44824  1.0000
  H   H2220     1.0  0.80447  0.87674  0.18236  1.0000
  C   C1855     1.0  0.78298  0.94753  0.21015  1.0000
  H   H2221     1.0  0.85019  0.96320  0.26895  1.0000
  C   C1856     1.0  0.82055  0.97472  0.30921  1.0000
  C   C1857     1.0  0.77271  0.95035  0.18484  1.0000
  H   H2222     1.0  0.77026  0.76710  0.22483  1.0000
  C   C1858     1.0  0.82644  0.98857  0.46704  1.0000
  H   H2223     1.0  0.84985  0.99971  0.05203  1.0000
  H   H2224     1.0  0.86789  0.00039  0.02441  1.0000
  H   H2225     1.0  0.76962  0.76438  0.17627  1.0000
  S   S495      1.0  0.76708  0.97126  0.08568  1.0000
  C   C1859     1.0  0.78713  0.80270  0.45163  1.0000
  H   H2226     1.0  0.86160  0.00243  0.10183  1.0000
  C   C1860     1.0  0.82003  0.68427  0.02725  1.0000
  H   H2227     1.0  0.86644  0.69406  0.29088  1.0000
  C   C1861     1.0  0.77408  0.87087  0.22137  1.0000
  H   H2228     1.0  0.82452  0.99764  0.23376  1.0000
  C   C1862     1.0  0.77010  0.88038  0.44834  1.0000
  C   C1863     1.0  0.81929  0.99473  0.25468  1.0000
  H   H2229     1.0  0.86946  0.98063  0.28356  1.0000
  C   C1864     1.0  0.77711  0.79434  0.42885  1.0000
  S   S496      1.0  0.76436  0.71543  0.16099  1.0000
  H   H2230     1.0  0.80201  0.68254  0.02806  1.0000
  H   H2231     1.0  0.78527  0.79395  0.40958  1.0000
  H   H2232     1.0  0.78894  0.86039  0.21728  1.0000
  C   C1865     1.0  0.77387  0.72267  0.97336  1.0000
  C   C1866     1.0  0.81294  0.97168  0.33510  1.0000
  C   C1867     1.0  0.83979  0.00958  0.43101  1.0000
  C   C1868     1.0  0.82659  0.67666  0.38592  1.0000
  H   H2233     1.0  0.80491  0.99044  0.97168  1.0000
  Fe  Fe251     1.0  0.78317  0.76454  0.84512  1.0000
  H   H2234     1.0  0.76556  0.76383  0.67382  1.0000
  S   S497      1.0  0.79539  0.79811  0.84310  1.0000
  S   S498      1.0  0.79018  0.74299  0.88088  1.0000
  S   S499      1.0  0.79309  0.73787  0.81499  1.0000
  H   H2235     1.0  0.79297  0.70937  0.71175  1.0000
  H   H2236     1.0  0.86705  0.99997  0.60632  1.0000
  C   C1869     1.0  0.83636  0.99919  0.77180  1.0000
  S   S500      1.0  0.80244  0.92058  0.61897  1.0000
  C   C1870     1.0  0.78349  0.94380  0.47778  1.0000
  H   H2237     1.0  0.77578  0.78845  0.52900  1.0000
  S   S501      1.0  0.80581  0.92227  0.55295  1.0000
  H   H2238     1.0  0.78662  0.78430  0.75935  1.0000
  Fe  Fe252     1.0  0.79206  0.90057  0.58350  1.0000
  S   S502      1.0  0.79892  0.86364  0.58264  1.0000
  Fe  Fe253     1.0  0.81254  0.94411  0.58844  1.0000
  S   S503      1.0  0.84141  0.96473  0.59130  1.0000
  C   C1871     1.0  0.77671  0.80288  0.47651  1.0000
  H   H2239     1.0  0.79104  0.84859  0.67736  1.0000
  N   N126      1.0  0.85392  0.98527  0.78606  1.0000
  H   H2240     1.0  0.78532  0.77115  0.92857  1.0000
  C   C1872     1.0  0.85560  0.00324  0.53211  1.0000
  H   H2241     1.0  0.85545  0.99774  0.55334  1.0000
  H   H2242     1.0  0.80744  0.96234  0.85176  1.0000
  C   C1873     1.0  0.77208  0.88140  0.50545  1.0000
  H   H2243     1.0  0.81127  0.67651  0.74539  1.0000
  S   S504      1.0  0.78767  0.95420  0.76642  1.0000
  H   H2244     1.0  0.77363  0.76703  0.72140  1.0000
  C   C1874     1.0  0.78151  0.94639  0.68578  1.0000
  S   S505      1.0  0.77957  0.96356  0.58574  1.0000
  H   H2245     1.0  0.88902  0.98550  0.79301  1.0000
  H   H2246     1.0  0.81574  0.97647  0.47293  1.0000
  H   H2247     1.0  0.80187  0.97900  0.66170  1.0000
  C   C1875     1.0  0.81854  0.99379  0.52580  1.0000
  C   C1876     1.0  0.79036  0.94814  0.71187  1.0000
  H   H2248     1.0  0.78678  0.85756  0.64324  1.0000
  H   H2249     1.0  0.82150  0.67934  0.69876  1.0000
  C   C1877     1.0  0.83094  0.67840  0.88672  1.0000
  H   H2250     1.0  0.79240  0.94308  0.66904  1.0000
  H   H2251     1.0  0.80806  0.94621  0.71506  1.0000
  S   S506      1.0  0.82358  0.68807  0.85423  1.0000
  H   H2252     1.0  0.87956  0.99642  0.76145  1.0000
  H   H2253     1.0  0.80462  0.99141  0.62971  1.0000
  C   C1878     1.0  0.83430  0.97866  0.86844  1.0000
  C   C1879     1.0  0.81799  0.00016  0.96619  1.0000
  C   C1880     1.0  0.81836  0.00705  0.93957  1.0000
  C   C1881     1.0  0.77618  0.72512  0.47329  1.0000
  H   H2254     1.0  0.77805  0.98479  0.64066  1.0000
  Fe  Fe254     1.0  0.79640  0.71564  0.85081  1.0000
  H   H2255     1.0  0.79883  0.95497  0.95119  1.0000
  C   C1882     1.0  0.79378  0.99114  0.64751  1.0000
  H   H2256     1.0  0.79504  0.93960  0.49402  1.0000
  C   C1883     1.0  0.85039  0.97391  0.62304  1.0000
  C   C1884     1.0  0.86285  0.99200  0.62454  1.0000
  H   H2257     1.0  0.78516  0.80939  0.49366  1.0000
  S   S507      1.0  0.76529  0.74624  0.59464  1.0000
  C   C1885     1.0  0.85227  0.97162  0.67175  1.0000
  C   C1886     1.0  0.84512  0.96372  0.64674  1.0000
  C   C1887     1.0  0.85642  0.96347  0.77255  1.0000
  H   H2258     1.0  0.77403  0.76918  0.96104  1.0000
  C   C1888     1.0  0.87502  0.99532  0.78295  1.0000
  H   H2259     1.0  0.83570  0.94965  0.64581  1.0000
  H   H2260     1.0  0.77135  0.82369  0.75174  1.0000
  H   H2261     1.0  0.77935  0.71592  0.75824  1.0000
  C   C1889     1.0  0.77635  0.95215  0.73383  1.0000
  H   H2262     1.0  0.77019  0.90495  0.66028  1.0000
  C   C1890     1.0  0.78333  0.82351  0.58752  1.0000
  C   C1891     1.0  0.77581  0.71488  0.71497  1.0000
  H   H2263     1.0  0.84815  0.96365  0.68999  1.0000
  Fe  Fe255     1.0  0.77192  0.94003  0.55279  1.0000
  H   H2264     1.0  0.80055  0.81720  0.58768  1.0000
  C   C1892     1.0  0.82206  0.97047  0.84741  1.0000
  C   C1893     1.0  0.82875  0.68123  0.93539  1.0000
  C   C1894     1.0  0.78440  0.84189  0.83522  1.0000
  H   H2265     1.0  0.79837  0.87491  0.66705  1.0000
  C   C1895     1.0  0.77458  0.81280  0.92011  1.0000
  H   H2266     1.0  0.77815  0.80282  0.90150  1.0000
  C   C1896     1.0  0.78579  0.86299  0.66471  1.0000
  H   H2267     1.0  0.80201  0.84312  0.83455  1.0000
  C   C1897     1.0  0.77767  0.89092  0.71312  1.0000
  S   S508      1.0  0.77310  0.92500  0.83227  1.0000
  H   H2268     1.0  0.81405  0.67988  0.79181  1.0000
  H   H2269     1.0  0.87447  0.99952  0.83377  1.0000
  C   C1898     1.0  0.86983  0.00002  0.64953  1.0000
  C   C1899     1.0  0.84763  0.98301  0.81447  1.0000
  H   H2270     1.0  0.82918  0.97679  0.88898  1.0000
  C   C1900     1.0  0.84043  0.99807  0.48609  1.0000
  S   S509      1.0  0.77824  0.95843  0.89906  1.0000
  H   H2271     1.0  0.81085  0.70352  0.90793  1.0000
  C   C1901     1.0  0.86464  0.98981  0.67324  1.0000
  H   H2272     1.0  0.76756  0.76425  0.76693  1.0000
  H   H2273     1.0  0.86588  0.96451  0.50619  1.0000
  Fe  Fe256     1.0  0.76900  0.93876  0.61414  1.0000
  H   H2274     1.0  0.77113  0.00810  0.75141  1.0000
  H   H2275     1.0  0.84058  0.95581  0.77096  1.0000
  H   H2276     1.0  0.86230  0.96458  0.75153  1.0000
  C   C1902     1.0  0.76816  0.71867  0.74129  1.0000
  H   H2277     1.0  0.80143  0.68297  0.57599  1.0000
  H   H2278     1.0  0.77595  0.87618  0.82733  1.0000
  H   H2279     1.0  0.82039  0.99170  0.77117  1.0000
  H   H2280     1.0  0.77304  0.88209  0.52723  1.0000
  H   H2281     1.0  0.82228  0.68982  0.95309  1.0000
  C   C1903     1.0  0.76561  0.00931  0.73062  1.0000
  C   C1904     1.0  0.78077  0.78075  0.94709  1.0000
  C   C1905     1.0  0.82851  0.97266  0.82084  1.0000
  S   S510      1.0  0.77626  0.71549  0.52676  1.0000
  H   H2282     1.0  0.77572  0.72146  0.93009  1.0000
  C   C1906     1.0  0.78735  0.86771  0.49109  1.0000
  H   H2283     1.0  0.86850  0.95200  0.78358  1.0000
  C   C1907     1.0  0.77766  0.84609  0.58515  1.0000
  C   C1908     1.0  0.77086  0.78172  0.76933  1.0000
  H   H2284     1.0  0.77161  0.79173  0.59189  1.0000
  H   H2285     1.0  0.81832  0.96617  0.80531  1.0000
  H   H2286     1.0  0.79047  0.89731  0.70159  1.0000
  S   S511      1.0  0.87230  0.00012  0.70499  1.0000
  C   C1909     1.0  0.85305  0.98914  0.86297  1.0000
  C   C1910     1.0  0.76533  0.72568  0.94712  1.0000
  H   H2287     1.0  0.80703  0.98300  0.51595  1.0000
  C   C1911     1.0  0.84932  0.96745  0.51546  1.0000
  C   C1912     1.0  0.78122  0.95524  0.95398  1.0000
  H   H2288     1.0  0.82133  0.68862  0.53895  1.0000
  H   H2289     1.0  0.83809  0.95682  0.50482  1.0000
  N   N127      1.0  0.84106  0.99094  0.51441  1.0000
  H   H2290     1.0  0.79624  0.78589  0.95643  1.0000
  H   H2291     1.0  0.85094  0.96153  0.53648  1.0000
  H   H2292     1.0  0.78886  0.90635  0.74942  1.0000
  C   C1913     1.0  0.85975  0.99129  0.83644  1.0000
  H   H2293     1.0  0.80576  0.00256  0.92537  1.0000
  C   C1914     1.0  0.76413  0.83476  0.97006  1.0000
  H   H2294     1.0  0.87316  0.00086  0.52584  1.0000
  N   N128      1.0  0.76485  0.79997  0.94128  1.0000
  C   C1915     1.0  0.77647  0.82155  0.83983  1.0000
  H   H2295     1.0  0.82077  0.00726  0.68299  1.0000
  H   H2296     1.0  0.81870  0.98964  0.54752  1.0000
  H   H2297     1.0  0.79057  0.81863  0.92684  1.0000
  H   H2298     1.0  0.80019  0.85781  0.50192  1.0000
  C   C1916     1.0  0.76707  0.95589  0.93138  1.0000
  H   H2299     1.0  0.77377  0.78445  0.79125  1.0000
  C   C1917     1.0  0.76692  0.80902  0.58992  1.0000
  C   C1918     1.0  0.82229  0.68907  0.90978  1.0000
  H   H2300     1.0  0.84084  0.00180  0.75053  1.0000
  H   H2301     1.0  0.79261  0.68155  0.62307  1.0000
  H   H2302     1.0  0.86251  0.99565  0.87939  1.0000
  H   H2303     1.0  0.77086  0.84402  0.95439  1.0000
  C   C1919     1.0  0.76966  0.86065  0.83113  1.0000
  C   C1920     1.0  0.77679  0.89640  0.74047  1.0000
  H   H2304     1.0  0.79394  0.72463  0.47549  1.0000
  S   S512      1.0  0.77141  0.71233  0.66020  1.0000
