data_image0
_chemical_formula_structural       HFeS2FeSFeSH2FeS2HS2FeSFeSHSFeHSFeHSFeSCSFeCSFeCSFeH2S2CSCHNH2SC6H4CHCH2CH4C4H5CHCHC2HNCFeHC4H3C5H4C7H4CH5SH3C2H3C2H2CH2CH2C2H3C2H3CS2CH3C2H2C2HC2NH3CNHCH2CHCHFeHCH6C2SH3CSH2C3HCH2C2HCHCSC2H4CHNC9H6C2NCHCH2C3HCH2CH2CHSH2FeC2FeS2FeCFeS3FeSFeSHFeS2FeCFeSCSCSC6H4SHNHC5H5FeCSC6H4CHC3HSH2CHSHCH2CH5CHCH2CHC2H3C2H2SH5CH3SH2CNH2CSH4CHCH3CHNC3H8CNC9H10CH2CHCH6CNCHCFeCSFeS2FeSH2S3FeHSC2SNCFeSHS2H3CH2CHC2FeC2H4SH2CHFeC2H3CSCNH4SHCH5FeCHC2H3CH2CNC5H4C7H2C2HNC2HC2SC3H3CH2NHC2HCH2CHC2H2CHC2H3C3H2SC8SH4CH2C3HC2H3CHNH3SHC3H2CHC2H4CHCHCH3C2HC2H3CHCH3C2H2C2HCH2CH4CH2CFeHSFeCSHSFeSFeSHSHNSFeSFeS2CFeHSFeS2FeSHS3HSH2SC2FeSHC7H5CHCHC2SC2HC8H5C3HCH4C6H4C6H6C2HCH2FeHCSH7C2H2CH2C5H2SHCH4CH2NCHC7HCH12NFeCHC2NCHCSHNC2H4C4HC2HCH7C2HCH3FeC2HSH4C2H2CHCFeH2CHSHNHCHCSH2CHCHCSCHNH3C3HC3H3FeHNHFeH2NHCHCH2FeS2FeSFeSHCFeS2HSHFeSFeSCSFeS2FeS2FeSHSFeS2FeCSFeH2S2CH2C2H3C6H8SCH2CH3C2NCH5CHCH2C9H2CHC3H5C6HSH3CH5CH6NH2CHCH2CSCH2C2H5CHCH2C3HCH4FeCH2SHC2H3C3H3CH3SHNCHSHNCH2N2C5HC3H2CH6CH3CNC9H2SH4C2H2CHC2HC3HC2FeHCH2NCH2C5H6CHC3FeHCFeS2FeHFeS3FeSFeS2FeS2C2FeSHSNSC6H4CHCHC6H2CH4C6H9C2H4C2HCH2C2H3SCNCHCH2FeHCH8CSHFeCHSHC2H3CHCHC2SCHCHC2H3CH4CHNSH2CHC2NC7H2C2HCH3C3H2FeHSFeS2FeSH2S3FeCSNCHC2HSCS2C4H2C3HC2H5C2H5NFeHC3HCHC2H3SC2HSH2C4H5C2SNH3SH5CH3SFeSH2CHC5H2C2NCH4CHCHC5HFeH3C2HCHCHCHNC4HCHCHC2H5CHCHCH2C2H2CHCHC5H2SFeH3FeCHSCHCHC2HC2HCH3C2H2CFeS2H2C2SHSHSHSNS2FeSFeS2HFeCSFeS2FeSH2S2CSHCSC2FeSH2C6H6NCHCFeHCH2CHC6H5SCSH4FeC7H4C6H5SFeNC6H2CH12C4H2CH4SC2SCHSH6CH4C6HNCH2SH2C2SC2H4CHCHCH3FeHNC10H2CH2CH5CHSHCHC4Fe2C2H2CHFeCH2C2HSCH5CH2CH3CH2C2HCH3CH3C3HSFeS2FeSFeSCHFeS2HS2FeSFeSHSFeHSFeCSFeSCSFeHSFeCSFeSCS4H6C6H4CHCHC2H4CHC5H4C3HCHC7H2C2HC5H3C6H2CH2CHCNHSCHCH2C2H7CNC2H2C2HCH6C2HSCHCHC5H2CH3NCNSCH3NC5HC2HC3H7C2HC2H3CHCH3CHCHCHC2H2FeHCHCHC3HC4HCHCH2C3HCH2C2H4CH2CHC2HSC2HCHCHFeHCFeS2FeCFeS3FeSFeSCFeS2FeCFeS3CSC6H5CH2C4HC3H2CH2C6H9C2FeCHC3NHC2H4C2HCSCH2C2H2CH6CH2CHC2HCH6C2H5CNCH2SC2H3CSNC2H5CHCHC3HCSH2NH2CH2C2HCH4CNSHC3HC2H3NSCHCHCHCFeHSFeS2FeSHCS3FeCSFeCSCSFeSHS2CH3C3SHCHCFeCH2C3HC2H2C5HCH2C2H3SCH4C4H2CH3FeH2CH2CHC2H3C2HNCHC3H6CH2CHC3HFeC3H2CH3CH5CH6SCH2CHCHCNCSHC3HC2HC2NHCH3CH4C7HSC2H2CHC2H4C2SH3SHCHNFeCSFeCSCSFeSHSFeSH2SFeSFeS2CFe2SFeS2FeSHS3CSH2SFeSFeSHC7H6C2H2CHCH2NC7H6CHC3H3C6H4C6H2CH3FeC2H3CNC4HCH3CH7CH2C2HCHCH3CH2C2H2CH11CH2CFeNH4NSHCHSH3C3H3CNSCSH4C3NC2SH2CH3C6H3NHC5H3CSCH3C2FeCHCHC2H5SH2SHCH2CH2CHCH2CSC2H2C2H2SCFeCNHSCH2SFeS2FeSFeSHSFeS2HSCFeSFeSHSFeHSFeCSFeSCSFeNSFeHSFeSCHS2H3CH3C6H5CHCHCHSCHC5H5C4HSHC2HC3HCH3C3H2CHCHC6H4C2H3C4H2C3HCHCSH2SCH4NH2C2HCHCFeCSHC2H2CH3C3HNC5HCH12SHCH2SHNC3HCH3SCHC2H4C3HNH2C3HC3FeHC2H2CH2C2H4C2H2FeHFeH2FeS2FeHFeS3CSFeSCFeS2FeHFeSCSHSC6H7C7HCH2CHFeC6H4CH4CH7SFeHNC2H3NHCHC3HCH2CH3C2HC2HCHNH2NC9H15CH3SHCH2C2HCH5SHCHSHC2HC2H2C4H4CHNC2HC2SNH2CHCHCH2CHCHCHCH3CSCH2SH6CHCFe2SFeS2FeS6FeHSHS2FeSHCHSC4HCHCHCHC2HCH3C3HCHCHNC3H4C3HNHCNC2H3CHCH2C3HC2HCSHCHC2H9CHCHCHC2HCH3C2FeHCH2NCHC3HC2H3CHC3FeHCH2CHNHCHC3H3C2H2CHCH3CH3C2SCHSH3CH2CH2C2HCH3SHNHC2HSCHNCH2FeH4CHCH3C2H2C2H5C2HFeCSFeHSFeSFeS3HSH2SFeSFeS2CFeHSFeS2FeS5CSCHSHSFeSH2C6H4CH2CHCHC2H4C6H5SC2SC2HC8H4C6H4FeCH2CH3CHCH3C2H6CSCHNCH2CH2C3HSH2C2HNCHNH2CHCHFeH4CH4NH2CHC2HC2H2CHCHC2HC2HCH2C4H2CH2SCNC9H8FeH2CHCSHCHCFeHFeCH2CNH6C2H2CHCNH2C6H5SC
_chemical_formula_sum              "H1728 Fe192 S384 C1440 N96"
_cell_length_a       59.8365
_cell_length_b       59.9084
_cell_length_c       56.684
_cell_angle_alpha    90.0048
_cell_angle_beta     90.1748
_cell_angle_gamma    120.135

_space_group_name_H-M_alt    "P 1"
_space_group_IT_number       1

loop_
  _space_group_symop_operation_xyz
  'x, y, z'

loop_
  _atom_site_type_symbol
  _atom_site_label
  _atom_site_symmetry_multiplicity
  _atom_site_fract_x
  _atom_site_fract_y
  _atom_site_fract_z
  _atom_site_occupancy
  H   H1        1.0  0.20930  0.46348  0.02558  1.0000
  Fe  Fe1       1.0  0.34547  0.36404  0.23181  1.0000
  S   S1        1.0  0.34622  0.33846  0.20328  1.0000
  S   S2        1.0  0.33154  0.39213  0.22655  1.0000
  Fe  Fe2       1.0  0.32619  0.30651  0.22992  1.0000
  S   S3        1.0  0.29250  0.26612  0.21935  1.0000
  Fe  Fe3       1.0  0.38497  0.34794  0.21893  1.0000
  S   S4        1.0  0.41795  0.35539  0.19258  1.0000
  H   H2        1.0  0.25984  0.35099  0.22286  1.0000
  H   H3        1.0  0.05967  0.04117  0.20996  1.0000
  Fe  Fe4       1.0  0.36363  0.01602  0.08652  1.0000
  S   S5        1.0  0.36854  0.04653  0.11292  1.0000
  S   S6        1.0  0.37375  0.02600  0.04784  1.0000
  H   H4        1.0  0.25695  0.28251  0.23835  1.0000
  S   S7        1.0  0.35031  0.00264  0.15322  1.0000
  S   S8        1.0  0.34943  0.43417  0.12279  1.0000
  Fe  Fe5       1.0  0.32984  0.01516  0.12725  1.0000
  S   S9        1.0  0.29516  0.01990  0.13814  1.0000
  Fe  Fe6       1.0  0.38866  0.03114  0.13646  1.0000
  S   S10       1.0  0.42773  0.04875  0.15756  1.0000
  H   H5        1.0  0.20887  0.26012  0.24027  1.0000
  S   S11       1.0  0.38545  0.00246  0.10891  1.0000
  Fe  Fe7       1.0  0.13195  0.16781  0.22704  1.0000
  H   H6        1.0  0.23162  0.30794  0.11311  1.0000
  S   S12       1.0  0.16801  0.20927  0.22729  1.0000
  Fe  Fe8       1.0  0.07288  0.12810  0.21305  1.0000
  H   H7        1.0  0.40588  0.30244  0.18966  1.0000
  S   S13       1.0  0.03957  0.11256  0.18470  1.0000
  Fe  Fe9       1.0  0.10894  0.10929  0.23031  1.0000
  S   S14       1.0  0.11401  0.07467  0.23012  1.0000
  C   C1        1.0  0.21795  0.99773  0.13713  1.0000
  S   S15       1.0  0.11210  0.13523  0.20031  1.0000
  Fe  Fe10      1.0  0.13966  0.45293  0.13187  1.0000
  C   C2        1.0  0.42937  0.46752  0.18277  1.0000
  S   S16       1.0  0.17202  0.44254  0.13289  1.0000
  Fe  Fe11      1.0  0.08381  0.44306  0.14756  1.0000
  C   C3        1.0  0.97237  0.99966  0.19307  1.0000
  S   S17       1.0  0.04996  0.42445  0.17478  1.0000
  Fe  Fe12      1.0  0.10685  0.46481  0.09842  1.0000
  H   H8        1.0  0.01860  0.03315  0.14098  1.0000
  H   H9        1.0  0.37488  0.27744  0.21710  1.0000
  S   S18       1.0  0.13408  0.04464  0.12932  1.0000
  S   S19       1.0  0.09869  0.42850  0.11780  1.0000
  C   C4        1.0  0.46231  0.37458  0.16497  1.0000
  S   S20       1.0  0.36491  0.31352  0.24350  1.0000
  C   C5        1.0  0.97901  0.39291  0.20775  1.0000
  H   H10       1.0  0.42743  0.06435  0.04122  1.0000
  N   N1        1.0  0.35528  0.26423  0.18350  1.0000
  H   H11       1.0  0.39801  0.23889  0.12948  1.0000
  H   H12       1.0  0.97232  0.38969  0.22580  1.0000
  S   S21       1.0  0.09447  0.45895  0.05977  1.0000
  C   C6        1.0  0.12236  0.06724  0.20289  1.0000
  C   C7        1.0  0.11492  0.04157  0.19792  1.0000
  C   C8        1.0  0.11887  0.03460  0.17542  1.0000
  C   C9        1.0  0.13110  0.05344  0.15808  1.0000
  C   C10       1.0  0.13931  0.07931  0.16326  1.0000
  C   C11       1.0  0.13477  0.08620  0.18563  1.0000
  H   H13       1.0  0.10526  0.02689  0.21124  1.0000
  H   H14       1.0  0.11193  0.01458  0.17142  1.0000
  H   H15       1.0  0.14868  0.09391  0.14981  1.0000
  H   H16       1.0  0.14075  0.10610  0.18951  1.0000
  C   C12       1.0  0.26101  0.00231  0.13172  1.0000
  H   H17       1.0  0.07800  0.07530  0.13415  1.0000
  C   C13       1.0  0.22209  0.45149  0.12848  1.0000
  H   H18       1.0  0.00257  0.46812  0.20958  1.0000
  H   H19       1.0  0.45304  0.09623  0.04736  1.0000
  C   C14       1.0  0.24510  0.01144  0.14071  1.0000
  H   H20       1.0  0.26101  0.45761  0.12600  1.0000
  H   H21       1.0  0.21310  0.43069  0.12885  1.0000
  H   H22       1.0  0.20622  0.00514  0.14435  1.0000
  H   H23       1.0  0.25382  0.02929  0.15065  1.0000
  C   C15       1.0  0.33051  0.24194  0.17521  1.0000
  C   C16       1.0  0.16686  0.00952  0.03300  1.0000
  C   C17       1.0  0.99395  0.08488  0.15879  1.0000
  C   C18       1.0  0.00481  0.09608  0.18089  1.0000
  H   H24       1.0  0.28850  0.98792  0.17885  1.0000
  H   H25       1.0  0.30212  0.37951  0.12416  1.0000
  H   H26       1.0  0.33875  0.43733  0.01655  1.0000
  H   H27       1.0  0.00661  0.08630  0.14462  1.0000
  H   H28       1.0  0.99545  0.10270  0.21584  1.0000
  C   C19       1.0  0.10134  0.47122  0.01271  1.0000
  H   H29       1.0  0.42209  0.40753  0.19240  1.0000
  C   C20       1.0  0.36002  0.00216  0.02529  1.0000
  H   H30       1.0  0.05148  0.00083  0.22686  1.0000
  C   C21       1.0  0.36371  0.00993  0.00153  1.0000
  C   C22       1.0  0.44767  0.07555  0.04801  1.0000
  H   H31       1.0  0.40455  0.43414  0.20523  1.0000
  N   N2        1.0  0.05339  0.05089  0.16224  1.0000
  C   C23       1.0  0.25798  0.25021  0.22312  1.0000
  Fe  Fe13      1.0  0.35390  0.47339  0.11944  1.0000
  H   H32       1.0  0.12147  0.04074  0.02171  1.0000
  C   C24       1.0  0.20266  0.22401  0.22621  1.0000
  C   C25       1.0  0.21518  0.21116  0.21775  1.0000
  C   C26       1.0  0.24251  0.22423  0.21602  1.0000
  C   C27       1.0  0.35360  0.28787  0.17974  1.0000
  H   H33       1.0  0.46052  0.40058  0.21761  1.0000
  H   H34       1.0  0.20377  0.19131  0.21196  1.0000
  H   H35       1.0  0.25171  0.21408  0.20895  1.0000
  C   C28       1.0  0.45913  0.46010  0.15867  1.0000
  C   C29       1.0  0.18226  0.43465  0.06470  1.0000
  C   C30       1.0  0.99736  0.40127  0.16115  1.0000
  C   C31       1.0  0.01546  0.40932  0.17960  1.0000
  C   C32       1.0  0.00592  0.40517  0.20293  1.0000
  H   H36       1.0  0.43980  0.03140  0.08947  1.0000
  H   H37       1.0  0.44404  0.30831  0.16915  1.0000
  H   H38       1.0  0.00404  0.40417  0.14310  1.0000
  H   H39       1.0  0.01946  0.41119  0.21749  1.0000
  C   C33       1.0  0.46005  0.07266  0.16682  1.0000
  C   C34       1.0  0.33811  0.40533  0.19828  1.0000
  C   C35       1.0  0.35240  0.39957  0.18251  1.0000
  C   C36       1.0  0.35585  0.40854  0.15928  1.0000
  C   C37       1.0  0.34556  0.42384  0.15200  1.0000
  C   C38       1.0  0.33205  0.43042  0.16799  1.0000
  C   C39       1.0  0.32819  0.42102  0.19113  1.0000
  H   H40       1.0  0.36086  0.38825  0.18812  1.0000
  H   H41       1.0  0.36661  0.40375  0.14697  1.0000
  H   H42       1.0  0.32385  0.44201  0.16229  1.0000
  H   H43       1.0  0.31722  0.42560  0.20338  1.0000
  C   C40       1.0  0.24915  0.97914  0.11887  1.0000
  H   H44       1.0  0.18158  0.43159  0.08416  1.0000
  H   H45       1.0  0.43021  0.06347  0.10552  1.0000
  H   H46       1.0  0.45898  0.10668  0.20674  1.0000
  H   H47       1.0  0.35911  0.23229  0.14896  1.0000
  H   H48       1.0  0.45008  0.35910  0.15301  1.0000
  S   S22       1.0  0.13780  0.99075  0.09743  1.0000
  H   H49       1.0  0.45415  0.03566  0.06083  1.0000
  H   H50       1.0  0.29891  0.37193  0.16647  1.0000
  H   H51       1.0  0.28326  0.31205  0.19099  1.0000
  C   C41       1.0  0.35744  0.47657  0.02942  1.0000
  C   C42       1.0  0.42343  0.27393  0.14804  1.0000
  H   H52       1.0  0.40492  0.46873  0.22392  1.0000
  H   H53       1.0  0.17195  0.45523  0.18334  1.0000
  H   H54       1.0  0.15831  0.01030  0.05018  1.0000
  C   C43       1.0  0.10584  0.00171  0.03447  1.0000
  C   C44       1.0  0.44096  0.03956  0.07162  1.0000
  H   H55       1.0  0.08388  0.45280  0.01023  1.0000
  H   H56       1.0  0.15513  0.46146  0.20592  1.0000
  C   C45       1.0  0.19303  0.99568  0.05308  1.0000
  H   H57       1.0  0.08469  0.07604  0.18532  1.0000
  H   H58       1.0  0.13567  0.45073  0.06759  1.0000
  C   C46       1.0  0.04698  0.00136  0.20838  1.0000
  H   H59       1.0  0.42183  0.06996  0.22608  1.0000
  H   H60       1.0  0.21183  0.01355  0.04975  1.0000
  C   C47       1.0  0.37708  0.24911  0.15404  1.0000
  C   C48       1.0  0.11374  0.02074  0.01676  1.0000
  H   H61       1.0  0.26869  0.34781  0.09715  1.0000
  H   H62       1.0  0.42105  0.00546  0.19837  1.0000
  H   H63       1.0  0.07139  0.09193  0.16876  1.0000
  C   C49       1.0  0.37838  0.26696  0.17131  1.0000
  C   C50       1.0  0.97044  0.38871  0.16597  1.0000
  H   H64       1.0  0.43913  0.09271  0.08976  1.0000
  H   H65       1.0  0.06134  0.04174  0.12726  1.0000
  H   H66       1.0  0.31362  0.24081  0.18469  1.0000
  C   C51       1.0  0.20644  0.46287  0.12999  1.0000
  S   S23       1.0  0.12405  0.46322  0.16349  1.0000
  S   S24       1.0  0.38498  0.37569  0.24581  1.0000
  C   C52       1.0  0.04735  0.02634  0.17385  1.0000
  H   H67       1.0  0.28290  0.32613  0.21892  1.0000
  H   H68       1.0  0.30196  0.34636  0.19547  1.0000
  H   H69       1.0  0.13107  0.41896  0.06215  1.0000
  C   C53       1.0  0.21815  0.24990  0.23358  1.0000
  C   C54       1.0  0.43223  0.07177  0.08758  1.0000
  H   H70       1.0  0.35456  0.47096  0.04779  1.0000
  H   H71       1.0  0.18351  0.02917  0.02961  1.0000
  C   C55       1.0  0.02923  0.04928  0.15363  1.0000
  C   C56       1.0  0.24551  0.26278  0.23236  1.0000
  H   H72       1.0  0.41237  0.06258  0.07998  1.0000
  C   C57       1.0  0.40327  0.28817  0.17659  1.0000
  C   C58       1.0  0.44037  0.07990  0.23505  1.0000
  N   N3        1.0  0.17030  0.45027  0.05785  1.0000
  H   H73       1.0  0.34045  0.25891  0.21900  1.0000
  H   H74       1.0  0.35877  0.24325  0.21273  1.0000
  H   H75       1.0  0.33560  0.28594  0.18736  1.0000
  C   C59       1.0  0.42984  0.42679  0.18514  1.0000
  N   N4        1.0  0.44991  0.06757  0.07234  1.0000
  H   H76       1.0  0.45924  0.99364  0.16054  1.0000
  C   C60       1.0  0.14461  0.43844  0.06944  1.0000
  H   H77       1.0  0.42122  0.02825  0.06377  1.0000
  H   H78       1.0  0.36985  0.30518  0.18819  1.0000
  C   C61       1.0  0.98777  0.09424  0.19874  1.0000
  H   H79       1.0  0.08800  0.05456  0.14731  1.0000
  C   C62       1.0  0.18702  0.98884  0.01048  1.0000
  H   H80       1.0  0.22733  0.29945  0.15515  1.0000
  Fe  Fe14      1.0  0.11947  0.00222  0.12564  1.0000
  H   H81       1.0  0.46210  0.10426  0.14703  1.0000
  C   C63       1.0  0.03771  0.97920  0.19459  1.0000
  H   H82       1.0  0.01605  0.04655  0.16856  1.0000
  H   H83       1.0  0.20307  0.44408  0.06012  1.0000
  H   H84       1.0  0.15157  0.00514  0.01963  1.0000
  H   H85       1.0  0.10751  0.00711  0.05289  1.0000
  H   H86       1.0  0.32974  0.22326  0.17857  1.0000
  H   H87       1.0  0.20963  0.45454  0.18908  1.0000
  C   C64       1.0  0.07080  0.05578  0.14186  1.0000
  C   C65       1.0  0.41751  0.98737  0.19072  1.0000
  S   S25       1.0  0.06986  0.10114  0.24210  1.0000
  H   H88       1.0  0.17203  0.41527  0.05620  1.0000
  H   H89       1.0  0.39309  0.47072  0.15897  1.0000
  H   H90       1.0  0.96943  0.03402  0.19078  1.0000
  C   C66       1.0  0.45168  0.37751  0.18617  1.0000
  S   S26       1.0  0.32454  0.98623  0.09952  1.0000
  H   H91       1.0  0.99065  0.00925  0.20250  1.0000
  H   H92       1.0  0.32728  0.24353  0.15608  1.0000
  C   C67       1.0  0.42535  0.29164  0.16499  1.0000
  C   C68       1.0  0.16883  0.45166  0.03183  1.0000
  C   C69       1.0  0.06636  0.07365  0.17811  1.0000
  H   H93       1.0  0.05378  0.07230  0.19311  1.0000
  C   C70       1.0  0.05169  0.02463  0.19831  1.0000
  H   H94       1.0  0.12838  0.44251  0.02903  1.0000
  H   H95       1.0  0.46511  0.04606  0.18871  1.0000
  C   C71       1.0  0.41993  0.44242  0.19239  1.0000
  C   C72       1.0  0.39938  0.25267  0.14265  1.0000
  H   H96       1.0  0.21937  0.30832  0.19343  1.0000
  C   C73       1.0  0.35746  0.26082  0.20916  1.0000
  H   H97       1.0  0.03332  0.06741  0.14453  1.0000
  C   C74       1.0  0.44931  0.43556  0.16828  1.0000
  S   S27       1.0  0.09310  0.16328  0.23720  1.0000
  C   C75       1.0  0.34852  0.45749  0.01165  1.0000
  C   C76       1.0  0.19097  0.45873  0.01771  1.0000
  H   H98       1.0  0.44063  0.27673  0.13907  1.0000
  H   H99       1.0  0.35388  0.29221  0.16062  1.0000
  H   H100      1.0  0.38104  0.45457  0.20068  1.0000
  H   H101      1.0  0.23580  0.28983  0.19203  1.0000
  C   C77       1.0  0.03706  0.00316  0.16050  1.0000
  H   H102      1.0  0.14597  0.43608  0.08877  1.0000
  N   N5        1.0  0.26096  0.33126  0.19131  1.0000
  C   C78       1.0  0.26190  0.35373  0.20338  1.0000
  C   C79       1.0  0.23694  0.30778  0.19901  1.0000
  C   C80       1.0  0.28318  0.32880  0.19947  1.0000
  C   C81       1.0  0.26262  0.33524  0.16542  1.0000
  C   C82       1.0  0.28372  0.35763  0.15549  1.0000
  C   C83       1.0  0.24389  0.31724  0.14938  1.0000
  C   C84       1.0  0.28579  0.36207  0.13120  1.0000
  C   C85       1.0  0.24614  0.32184  0.12504  1.0000
  C   C86       1.0  0.26699  0.34424  0.11599  1.0000
  H   H103      1.0  0.24635  0.35719  0.19683  1.0000
  H   H104      1.0  0.02448  0.46522  0.17609  1.0000
  H   H105      1.0  0.28065  0.37183  0.20082  1.0000
  H   H106      1.0  0.03314  0.00291  0.14187  1.0000
  H   H107      1.0  0.40042  0.99222  0.15926  1.0000
  H   H108      1.0  0.23603  0.30581  0.21857  1.0000
  C   C87       1.0  0.24937  0.46675  0.12681  1.0000
  C   C88       1.0  0.44940  0.47592  0.16577  1.0000
  N   N6        1.0  0.17486  0.98972  0.03295  1.0000
  C   C89       1.0  0.03254  0.98004  0.17074  1.0000
  H   H109      1.0  0.04153  0.47085  0.20386  1.0000
  C   C90       1.0  0.40595  0.97993  0.16859  1.0000
  H   H110      1.0  0.18511  0.99857  0.06986  1.0000
  H   H111      1.0  0.45663  0.42319  0.16247  1.0000
  C   C91       1.0  0.46133  0.10064  0.22417  1.0000
  C   C92       1.0  0.17425  0.46370  0.20132  1.0000
  C   C93       1.0  0.14599  0.44714  0.01984  1.0000
  H   H112      1.0  0.25269  0.46276  0.18037  1.0000
  C   C94       1.0  0.22516  0.47431  0.19021  1.0000
  H   H113      1.0  0.45974  0.07205  0.03532  1.0000
  H   H114      1.0  0.17790  0.45182  0.21415  1.0000
  C   C95       1.0  0.39788  0.47277  0.20715  1.0000
  H   H115      1.0  0.05845  0.47717  0.17679  1.0000
  H   H116      1.0  0.18754  0.47660  0.08698  1.0000
  C   C96       1.0  0.18631  0.47673  0.06737  1.0000
  H   H117      1.0  0.46620  0.06212  0.11619  1.0000
  S   S28       1.0  0.09053  0.47836  0.12747  1.0000
  H   H118      1.0  0.97092  0.47508  0.22965  1.0000
  H   H119      1.0  0.19697  0.97980  0.05700  1.0000
  Fe  Fe15      1.0  0.36853  0.37167  0.45917  1.0000
  C   C97       1.0  0.03372  0.17324  0.48408  1.0000
  C   C98       1.0  0.06166  0.13090  0.49061  1.0000
  Fe  Fe16      1.0  0.34168  0.38814  0.42451  1.0000
  S   S29       1.0  0.31741  0.39202  0.45294  1.0000
  S   S30       1.0  0.33613  0.39323  0.38570  1.0000
  Fe  Fe17      1.0  0.35448  0.41204  0.47466  1.0000
  C   C99       1.0  0.98419  0.44282  0.44448  1.0000
  Fe  Fe18      1.0  0.31139  0.35349  0.46575  1.0000
  S   S31       1.0  0.27106  0.31929  0.47505  1.0000
  S   S32       1.0  0.37876  0.41052  0.44495  1.0000
  S   S33       1.0  0.33363  0.34919  0.43628  1.0000
  Fe  Fe19      1.0  0.36265  0.34108  0.26929  1.0000
  S   S34       1.0  0.37149  0.34028  0.30810  1.0000
  Fe  Fe20      1.0  0.13131  0.10223  0.47459  1.0000
  S   S35       1.0  0.10214  0.09754  0.44729  1.0000
  H   H120      1.0  0.03655  0.18402  0.46732  1.0000
  Fe  Fe21      1.0  0.16889  0.16080  0.45991  1.0000
  S   S36       1.0  0.14110  0.15885  0.43200  1.0000
  S   S37       1.0  0.21072  0.19579  0.46074  1.0000
  Fe  Fe22      1.0  0.11042  0.13670  0.45902  1.0000
  C   C100      1.0  0.10985  0.98957  0.47054  1.0000
  Fe  Fe23      1.0  0.13539  0.12000  0.42276  1.0000
  S   S38       1.0  0.13542  0.10688  0.38522  1.0000
  C   C101      1.0  0.06426  0.45340  0.48081  1.0000
  S   S39       1.0  0.16478  0.12245  0.44911  1.0000
  C   C102      1.0  0.11869  0.01189  0.45691  1.0000
  S   S40       1.0  0.08435  0.13982  0.30353  1.0000
  C   C103      1.0  0.12048  0.11549  0.36277  1.0000
  C   C104      1.0  0.12298  0.11017  0.33910  1.0000
  C   C105      1.0  0.11165  0.11713  0.32084  1.0000
  C   C106      1.0  0.09765  0.12946  0.32609  1.0000
  C   C107      1.0  0.09500  0.13463  0.34978  1.0000
  C   C108      1.0  0.10640  0.12773  0.36805  1.0000
  H   H121      1.0  0.13379  0.10068  0.33484  1.0000
  H   H122      1.0  0.11369  0.11285  0.30270  1.0000
  H   H123      1.0  0.08420  0.14413  0.35403  1.0000
  H   H124      1.0  0.10420  0.13184  0.38621  1.0000
  S   S41       1.0  0.12421  0.06855  0.49970  1.0000
  H   H125      1.0  0.44974  0.37538  0.45005  1.0000
  N   N7        1.0  0.17974  0.20147  0.30240  1.0000
  H   H126      1.0  0.02317  0.10618  0.47718  1.0000
  C   C109      1.0  0.25423  0.28521  0.46911  1.0000
  C   C110      1.0  0.26659  0.27246  0.46004  1.0000
  C   C111      1.0  0.25286  0.24528  0.45728  1.0000
  C   C112      1.0  0.22644  0.23032  0.46308  1.0000
  C   C113      1.0  0.21385  0.24318  0.47131  1.0000
  H   H127      1.0  0.13171  0.06318  0.44842  1.0000
  H   H128      1.0  0.28678  0.28343  0.45543  1.0000
  H   H129      1.0  0.26290  0.23568  0.45088  1.0000
  H   H130      1.0  0.19360  0.23214  0.47590  1.0000
  H   H131      1.0  0.97624  0.43109  0.46077  1.0000
  Fe  Fe24      1.0  0.09245  0.13605  0.26506  1.0000
  C   C114      1.0  0.06174  0.99420  0.49625  1.0000
  S   S42       1.0  0.07531  0.14066  0.46264  1.0000
  C   C115      1.0  0.34669  0.37904  0.36424  1.0000
  C   C116      1.0  0.34102  0.37998  0.34030  1.0000
  C   C117      1.0  0.34848  0.36819  0.32292  1.0000
  C   C118      1.0  0.36171  0.35535  0.32936  1.0000
  C   C119      1.0  0.36728  0.35436  0.35331  1.0000
  C   C120      1.0  0.35984  0.36615  0.37067  1.0000
  H   H132      1.0  0.33093  0.38997  0.33515  1.0000
  H   H133      1.0  0.34418  0.36920  0.30454  1.0000
  H   H134      1.0  0.37756  0.34454  0.35843  1.0000
  H   H135      1.0  0.36446  0.36538  0.38901  1.0000
  C   C121      1.0  0.18711  0.19960  0.32702  1.0000
  H   H136      1.0  0.42308  0.33076  0.47161  1.0000
  C   C122      1.0  0.98892  0.15954  0.48955  1.0000
  C   C123      1.0  0.10646  0.01154  0.43521  1.0000
  C   C124      1.0  0.46433  0.08552  0.46461  1.0000
  H   H137      1.0  0.05301  0.18046  0.49239  1.0000
  S   S43       1.0  0.34608  0.37345  0.49001  1.0000
  H   H138      1.0  0.18461  0.23060  0.27719  1.0000
  H   H139      1.0  0.18722  0.24019  0.30759  1.0000
  C   C125      1.0  0.22769  0.27033  0.47444  1.0000
  H   H140      1.0  0.07504  0.98568  0.41173  1.0000
  S   S44       1.0  0.32316  0.33181  0.25731  1.0000
  H   H141      1.0  0.11890  0.99047  0.48741  1.0000
  C   C126      1.0  0.33004  0.30596  0.49056  1.0000
  H   H142      1.0  0.24112  0.22133  0.36215  1.0000
  H   H143      1.0  0.22859  0.22507  0.32191  1.0000
  C   C127      1.0  0.44335  0.07191  0.25733  1.0000
  H   H144      1.0  0.02692  0.15284  0.47920  1.0000
  H   H145      1.0  0.31562  0.31245  0.48909  1.0000
  H   H146      1.0  0.43629  0.13553  0.47537  1.0000
  H   H147      1.0  0.14847  0.17168  0.34027  1.0000
  H   H148      1.0  0.14290  0.19788  0.31123  1.0000
  C   C128      1.0  0.15139  0.18965  0.29896  1.0000
  H   H149      1.0  0.14117  0.16840  0.30155  1.0000
  C   C129      1.0  0.41901  0.33784  0.48765  1.0000
  H   H150      1.0  0.04351  0.41357  0.49274  1.0000
  H   H151      1.0  0.44652  0.15868  0.49890  1.0000
  C   C130      1.0  0.19176  0.22887  0.29491  1.0000
  H   H152      1.0  0.46228  0.39108  0.49073  1.0000
  C   C131      1.0  0.08523  0.98746  0.42802  1.0000
  C   C132      1.0  0.17652  0.18095  0.36687  1.0000
  H   H153      1.0  0.98376  0.13899  0.48753  1.0000
  H   H154      1.0  0.45567  0.45341  0.44832  1.0000
  H   H155      1.0  0.01421  0.46650  0.48269  1.0000
  C   C133      1.0  0.22090  0.21088  0.35708  1.0000
  C   C134      1.0  0.40644  0.35220  0.48652  1.0000
  H   H156      1.0  0.99674  0.43627  0.43607  1.0000
  H   H157      1.0  0.21022  0.19675  0.28717  1.0000
  S   S45       1.0  0.39771  0.35857  0.45898  1.0000
  H   H158      1.0  0.98745  0.16653  0.47175  1.0000
  H   H159      1.0  0.18353  0.18866  0.26785  1.0000
  H   H160      1.0  0.06037  0.44820  0.46237  1.0000
  H   H161      1.0  0.17680  0.22856  0.38593  1.0000
  H   H162      1.0  0.20822  0.19273  0.39108  1.0000
  C   C135      1.0  0.20246  0.19477  0.37339  1.0000
  H   H163      1.0  0.98028  0.99566  0.49133  1.0000
  H   H164      1.0  0.18658  0.25905  0.35292  1.0000
  H   H165      1.0  0.32687  0.29299  0.47530  1.0000
  S   S46       1.0  0.13114  0.14159  0.25569  1.0000
  H   H166      1.0  0.07571  0.02954  0.47613  1.0000
  H   H167      1.0  0.45086  0.41150  0.45712  1.0000
  C   C136      1.0  0.44878  0.14274  0.49135  1.0000
  N   N8        1.0  0.99870  0.47095  0.44975  1.0000
  H   H168      1.0  0.42697  0.05575  0.26576  1.0000
  H   H169      1.0  0.14633  0.19248  0.28068  1.0000
  C   C137      1.0  0.02078  0.47600  0.46525  1.0000
  S   S47       1.0  0.13805  0.14087  0.48801  1.0000
  H   H170      1.0  0.20825  0.23945  0.41840  1.0000
  H   H171      1.0  0.13463  0.02929  0.46423  1.0000
  H   H172      1.0  0.34951  0.32333  0.48842  1.0000
  H   H173      1.0  0.15424  0.05659  0.43296  1.0000
  C   C138      1.0  0.21346  0.21312  0.33415  1.0000
  H   H174      1.0  0.21306  0.23832  0.29305  1.0000
  C   C139      1.0  0.45972  0.10465  0.47343  1.0000
  H   H175      1.0  0.16225  0.16794  0.37945  1.0000
  H   H176      1.0  0.37737  0.98665  0.48007  1.0000
  H   H177      1.0  0.18016  0.16728  0.29154  1.0000
  C   C140      1.0  0.18887  0.18801  0.28659  1.0000
  H   H178      1.0  0.22685  0.30002  0.35191  1.0000
  N   N9        1.0  0.11475  0.03489  0.42059  1.0000
  C   C141      1.0  0.12282  0.03107  0.39692  1.0000
  C   C142      1.0  0.09297  0.03988  0.41768  1.0000
  C   C143      1.0  0.13678  0.05851  0.43091  1.0000
  H   H179      1.0  0.10673  0.01505  0.38700  1.0000
  H   H180      1.0  0.12979  0.04868  0.38574  1.0000
  H   H181      1.0  0.13879  0.02669  0.39833  1.0000
  H   H182      1.0  0.07645  0.02429  0.40781  1.0000
  H   H183      1.0  0.09889  0.05801  0.40763  1.0000
  H   H184      1.0  0.08568  0.04190  0.43511  1.0000
  H   H185      1.0  0.44871  0.06561  0.46388  1.0000
  H   H186      1.0  0.14261  0.07566  0.41946  1.0000
  C   C144      1.0  0.16884  0.18328  0.34411  1.0000
  N   N10       1.0  0.26694  0.31947  0.38598  1.0000
  C   C145      1.0  0.28896  0.31465  0.38626  1.0000
  C   C146      1.0  0.27051  0.33641  0.36548  1.0000
  C   C147      1.0  0.26817  0.33396  0.40767  1.0000
  C   C148      1.0  0.24225  0.29455  0.38534  1.0000
  C   C149      1.0  0.23593  0.27641  0.40382  1.0000
  C   C150      1.0  0.22384  0.28754  0.36675  1.0000
  C   C151      1.0  0.21266  0.25290  0.40392  1.0000
  C   C152      1.0  0.20054  0.26395  0.36704  1.0000
  C   C153      1.0  0.19494  0.24673  0.38563  1.0000
  H   H187      1.0  0.28861  0.30337  0.37052  1.0000
  H   H188      1.0  0.30783  0.33306  0.38622  1.0000
  H   H189      1.0  0.28914  0.30403  0.40227  1.0000
  H   H190      1.0  0.27118  0.32735  0.34856  1.0000
  H   H191      1.0  0.28912  0.35501  0.36662  1.0000
  H   H192      1.0  0.25513  0.34164  0.36465  1.0000
  H   H193      1.0  0.26849  0.32393  0.42405  1.0000
  H   H194      1.0  0.28601  0.35336  0.40823  1.0000
  H   H195      1.0  0.25128  0.33694  0.40887  1.0000
  H   H196      1.0  0.24891  0.28043  0.41851  1.0000
  C   C154      1.0  0.05475  0.43358  0.49807  1.0000
  H   H197      1.0  0.44022  0.09827  0.47910  1.0000
  H   H198      1.0  0.04537  0.98316  0.48472  1.0000
  C   C155      1.0  0.07905  0.02062  0.49123  1.0000
  H   H199      1.0  0.21777  0.27982  0.48138  1.0000
  C   C156      1.0  0.03500  0.11428  0.49280  1.0000
  H   H200      1.0  0.03305  0.46899  0.45712  1.0000
  H   H201      1.0  0.43141  0.98489  0.49988  1.0000
  H   H202      1.0  0.96787  0.43771  0.43200  1.0000
  H   H203      1.0  0.34845  0.27496  0.49843  1.0000
  H   H204      1.0  0.98653  0.20068  0.49148  1.0000
  H   H205      1.0  0.00115  0.24610  0.49661  1.0000
  C   C157      1.0  0.00622  0.21290  0.49733  1.0000
  N   N11       1.0  0.01519  0.17559  0.49982  1.0000
  C   C158      1.0  0.46738  0.08453  0.26872  1.0000
  H   H206      1.0  0.02058  0.47767  0.41764  1.0000
  C   C159      1.0  0.01438  0.23908  0.50017  1.0000
  Fe  Fe25      1.0  0.00285  0.31241  0.55570  1.0000
  C   C160      1.0  0.30148  0.26980  0.51487  1.0000
  S   S48       1.0  0.01186  0.27942  0.55183  1.0000
  Fe  Fe26      1.0  0.02128  0.37200  0.55368  1.0000
  S   S49       1.0  0.98962  0.36618  0.57895  1.0000
  S   S50       1.0  0.04872  0.41555  0.54504  1.0000
  Fe  Fe27      1.0  0.99808  0.33929  0.59963  1.0000
  S   S51       1.0  0.00265  0.33461  0.63886  1.0000
  H   H207      1.0  0.43670  0.20211  0.64754  1.0000
  H   H208      1.0  0.31172  0.23981  0.50857  1.0000
  S   S52       1.0  0.03176  0.34741  0.57652  1.0000
  S   S53       1.0  0.99530  0.33760  0.53054  1.0000
  S   S54       1.0  0.01844  0.13287  0.71506  1.0000
  Fe  Fe28      1.0  0.41811  0.05196  0.54898  1.0000
  H   H209      1.0  0.02840  0.45400  0.55193  1.0000
  S   S55       1.0  0.39495  0.01831  0.52215  1.0000
  C   C161      1.0  0.02353  0.10850  0.51515  1.0000
  C   C162      1.0  0.29655  0.24412  0.51186  1.0000
  S   S56       1.0  0.44133  0.14971  0.55149  1.0000
  N   N12       1.0  0.02640  0.40228  0.72197  1.0000
  C   C163      1.0  0.10087  0.03520  0.50548  1.0000
  Fe  Fe29      1.0  0.44014  0.07664  0.59827  1.0000
  S   S57       1.0  0.43433  0.07110  0.63788  1.0000
  H   H210      1.0  0.45673  0.27183  0.62357  1.0000
  S   S58       1.0  0.41014  0.07698  0.57409  1.0000
  S   S59       1.0  0.44157  0.32639  0.71524  1.0000
  H   H211      1.0  0.06051  0.08334  0.51589  1.0000
  H   H212      1.0  0.01216  0.17455  0.72182  1.0000
  H   H213      1.0  0.97123  0.17347  0.72176  1.0000
  C   C164      1.0  0.06551  0.13539  0.53310  1.0000
  H   H214      1.0  0.98538  0.37731  0.72682  1.0000
  H   H215      1.0  0.07731  0.14386  0.54867  1.0000
  C   C165      1.0  0.99357  0.12016  0.69340  1.0000
  H   H216      1.0  0.06626  0.43262  0.72590  1.0000
  C   C166      1.0  0.96774  0.25844  0.65281  1.0000
  C   C167      1.0  0.44628  0.19843  0.54987  1.0000
  Fe  Fe30      1.0  0.44428  0.11292  0.55871  1.0000
  C   C168      1.0  0.99998  0.12016  0.66956  1.0000
  C   C169      1.0  0.45602  0.07716  0.68178  1.0000
  H   H217      1.0  0.43632  0.06567  0.68789  1.0000
  H   H218      1.0  0.23824  0.25446  0.52137  1.0000
  H   H219      1.0  0.01994  0.12744  0.66472  1.0000
  H   H220      1.0  0.00173  0.16619  0.53555  1.0000
  S   S60       1.0  0.44951  0.08816  0.53147  1.0000
  H   H221      1.0  0.08051  0.47109  0.54658  1.0000
  H   H222      1.0  0.97475  0.39461  0.52098  1.0000
  C   C170      1.0  0.41956  0.34025  0.53029  1.0000
  H   H223      1.0  0.00294  0.09565  0.51678  1.0000
  Fe  Fe31      1.0  0.98253  0.10289  0.56309  1.0000
  C   C171      1.0  0.99080  0.24517  0.55071  1.0000
  C   C172      1.0  0.06046  0.43965  0.52203  1.0000
  H   H224      1.0  0.04193  0.24590  0.71909  1.0000
  H   H225      1.0  0.99600  0.41136  0.72694  1.0000
  H   H226      1.0  0.12123  0.03377  0.53637  1.0000
  C   C173      1.0  0.99976  0.22886  0.55901  1.0000
  S   S61       1.0  0.96998  0.30409  0.57961  1.0000
  C   C174      1.0  0.98639  0.00978  0.50543  1.0000
  N   N13       1.0  0.97816  0.42917  0.53613  1.0000
  H   H227      1.0  0.01877  0.23732  0.56690  1.0000
  H   H228      1.0  0.42020  0.12089  0.69683  1.0000
  H   H229      1.0  0.45566  0.28552  0.70189  1.0000
  H   H230      1.0  0.06168  0.21496  0.51578  1.0000
  S   S62       1.0  0.44522  0.04932  0.57475  1.0000
  H   H231      1.0  0.44234  0.16324  0.71578  1.0000
  C   C175      1.0  0.97012  0.32946  0.70275  1.0000
  H   H232      1.0  0.32840  0.30103  0.55025  1.0000
  H   H233      1.0  0.01832  0.36308  0.72315  1.0000
  H   H234      1.0  0.05187  0.38660  0.72631  1.0000
  H   H235      1.0  0.96994  0.42943  0.57306  1.0000
  H   H236      1.0  0.33596  0.45246  0.57663  1.0000
  Fe  Fe32      1.0  0.46498  0.33551  0.55928  1.0000
  C   C176      1.0  0.33829  0.47515  0.54652  1.0000
  H   H237      1.0  0.97871  0.25706  0.59448  1.0000
  C   C177      1.0  0.00206  0.04650  0.54147  1.0000
  C   C178      1.0  0.42580  0.33207  0.50952  1.0000
  H   H238      1.0  0.00679  0.06073  0.55517  1.0000
  H   H239      1.0  0.99188  0.18962  0.56323  1.0000
  H   H240      1.0  0.00156  0.32594  0.68839  1.0000
  C   C179      1.0  0.45626  0.33413  0.66877  1.0000
  H   H241      1.0  0.43580  0.32528  0.66500  1.0000
  H   H242      1.0  0.44673  0.00638  0.53713  1.0000
  C   C180      1.0  0.27136  0.22300  0.51253  1.0000
  N   N14       1.0  0.04738  0.05246  0.54114  1.0000
  C   C181      1.0  0.04646  0.42780  0.73111  1.0000
  C   C182      1.0  0.98170  0.19451  0.72572  1.0000
  C   C183      1.0  0.02140  0.23496  0.72482  1.0000
  C   C184      1.0  0.02031  0.04004  0.53258  1.0000
  C   C185      1.0  0.43940  0.12249  0.69439  1.0000
  H   H243      1.0  0.07408  0.04132  0.55498  1.0000
  H   H244      1.0  0.04065  0.01992  0.56243  1.0000
  H   H245      1.0  0.05046  0.08645  0.55738  1.0000
  H   H246      1.0  0.28154  0.29176  0.51916  1.0000
  C   C186      1.0  0.44212  0.18736  0.64718  1.0000
  C   C187      1.0  0.44845  0.15643  0.62538  1.0000
  C   C188      1.0  0.44252  0.17611  0.62575  1.0000
  C   C189      1.0  0.02221  0.46688  0.54505  1.0000
  C   C190      1.0  0.07702  0.14092  0.51078  1.0000
  C   C191      1.0  0.03869  0.11977  0.53523  1.0000
  C   C192      1.0  0.98463  0.20172  0.55667  1.0000
  H   H247      1.0  0.99202  0.28251  0.61527  1.0000
  H   H248      1.0  0.32046  0.32033  0.53138  1.0000
  C   C193      1.0  0.00708  0.20601  0.68977  1.0000
  C   C194      1.0  0.01722  0.22523  0.65011  1.0000
  H   H249      1.0  0.35274  0.32719  0.53324  1.0000
  N   N15       1.0  0.32775  0.29268  0.51322  1.0000
  C   C195      1.0  0.00529  0.20077  0.63985  1.0000
  C   C196      1.0  0.01534  0.16465  0.52323  1.0000
  H   H250      1.0  0.98351  0.25615  0.66069  1.0000
  C   C197      1.0  0.33241  0.31097  0.53288  1.0000
  C   C198      1.0  0.98073  0.11072  0.65188  1.0000
  S   S63       1.0  0.37247  0.44660  0.50125  1.0000
  C   C199      1.0  0.25464  0.25159  0.51930  1.0000
  C   C200      1.0  0.00503  0.39840  0.68197  1.0000
  C   C201      1.0  0.05384  0.03253  0.54832  1.0000
  H   H251      1.0  0.98966  0.42244  0.50209  1.0000
  H   H252      1.0  0.02464  0.01603  0.50600  1.0000
  H   H253      1.0  0.06627  0.41014  0.69270  1.0000
  C   C202      1.0  0.37710  0.98366  0.51799  1.0000
  H   H254      1.0  0.46615  0.15715  0.72802  1.0000
  H   H255      1.0  0.98904  0.39461  0.64707  1.0000
  N   N16       1.0  0.00825  0.20799  0.71587  1.0000
  H   H256      1.0  0.09042  0.98763  0.54544  1.0000
  C   C203      1.0  0.99082  0.47578  0.52687  1.0000
  C   C204      1.0  0.98349  0.26121  0.61350  1.0000
  H   H257      1.0  0.02522  0.19790  0.74475  1.0000
  C   C205      1.0  0.45941  0.22578  0.55132  1.0000
  H   H258      1.0  0.03478  0.17427  0.53163  1.0000
  H   H259      1.0  0.06675  0.40933  0.64962  1.0000
  C   C206      1.0  0.05269  0.06965  0.56184  1.0000
  H   H260      1.0  0.98684  0.39424  0.68965  1.0000
  C   C207      1.0  0.46674  0.26079  0.62000  1.0000
  C   C208      1.0  0.44800  0.17926  0.66828  1.0000
  H   H261      1.0  0.03963  0.05919  0.57685  1.0000
  H   H262      1.0  0.26785  0.20361  0.50963  1.0000
  C   C209      1.0  0.97541  0.41878  0.56042  1.0000
  H   H263      1.0  0.04197  0.20377  0.71706  1.0000
  C   C210      1.0  0.07557  0.46596  0.52824  1.0000
  C   C211      1.0  0.08700  0.99661  0.53037  1.0000
  H   H264      1.0  0.97485  0.27959  0.65222  1.0000
  H   H265      1.0  0.96997  0.20265  0.71860  1.0000
  H   H266      1.0  0.02793  0.24745  0.68145  1.0000
  C   C212      1.0  0.03907  0.25614  0.50867  1.0000
  C   C213      1.0  0.98128  0.33349  0.66094  1.0000
  C   C214      1.0  0.40089  0.36105  0.50726  1.0000
  H   H267      1.0  0.02179  0.23554  0.74449  1.0000
  H   H268      1.0  0.05248  0.01986  0.53353  1.0000
  S   S64       1.0  0.02463  0.11493  0.56315  1.0000
  C   C215      1.0  0.05588  0.24717  0.51415  1.0000
  C   C216      1.0  0.04970  0.40670  0.65876  1.0000
  C   C217      1.0  0.01812  0.22797  0.67470  1.0000
  C   C218      1.0  0.98575  0.32921  0.68439  1.0000
  C   C219      1.0  0.03205  0.38229  0.73077  1.0000
  C   C220      1.0  0.00127  0.39670  0.73219  1.0000
  C   C221      1.0  0.02254  0.19561  0.72525  1.0000
  C   C222      1.0  0.02666  0.40253  0.69583  1.0000
  S   S65       1.0  0.42548  0.33084  0.55765  1.0000
  H   H269      1.0  0.97378  0.15924  0.50116  1.0000
  H   H270      1.0  0.44707  0.18863  0.68421  1.0000
  H   H271      1.0  0.43779  0.18223  0.60938  1.0000
  H   H272      1.0  0.98595  0.11069  0.63363  1.0000
  C   C223      1.0  0.04911  0.40692  0.68343  1.0000
  H   H273      1.0  0.07497  0.26049  0.52101  1.0000
  H   H274      1.0  0.06347  0.05651  0.50619  1.0000
  C   C224      1.0  0.45425  0.15927  0.66851  1.0000
  C   C225      1.0  0.40723  0.35484  0.52918  1.0000
  C   C226      1.0  0.10454  0.02290  0.52512  1.0000
  H   H275      1.0  0.43734  0.10987  0.67919  1.0000
  C   C227      1.0  0.45405  0.14795  0.64638  1.0000
  C   C228      1.0  0.96907  0.01666  0.51449  1.0000
  H   H276      1.0  0.44345  0.11401  0.71022  1.0000
  H   H277      1.0  0.46624  0.29063  0.66005  1.0000
  H   H278      1.0  0.99895  0.25669  0.61759  1.0000
  C   C229      1.0  0.01171  0.02142  0.51412  1.0000
  H   H279      1.0  0.07292  0.07796  0.56832  1.0000
  N   N17       1.0  0.45991  0.14966  0.69053  1.0000
  H   H280      1.0  0.00695  0.41921  0.52637  1.0000
  H   H281      1.0  0.40257  0.36129  0.54530  1.0000
  H   H282      1.0  0.01122  0.24530  0.71909  1.0000
  S   S66       1.0  0.97155  0.12796  0.58345  1.0000
  H   H283      1.0  0.97368  0.32600  0.72067  1.0000
  C   C230      1.0  0.45889  0.18437  0.55487  1.0000
  C   C231      1.0  0.99432  0.17893  0.65410  1.0000
  C   C232      1.0  0.04805  0.22109  0.51114  1.0000
  H   H284      1.0  0.09763  0.15379  0.50911  1.0000
  H   H285      1.0  0.02620  0.24215  0.63890  1.0000
  C   C233      1.0  0.06497  0.06827  0.52189  1.0000
  H   H286      1.0  0.08563  0.07828  0.52752  1.0000
  C   C234      1.0  0.99684  0.45727  0.53604  1.0000
  C   C235      1.0  0.02298  0.20313  0.50262  1.0000
  H   H287      1.0  0.44821  0.14732  0.60871  1.0000
  H   H288      1.0  0.32867  0.45862  0.53480  1.0000
  H   H289      1.0  0.42615  0.18806  0.54467  1.0000
  H   H290      1.0  0.99351  0.41993  0.56697  1.0000
  C   C236      1.0  0.98777  0.41587  0.52067  1.0000
  H   H291      1.0  0.02842  0.40155  0.62663  1.0000
  C   C237      1.0  0.44619  0.46848  0.50520  1.0000
  H   H292      1.0  0.04489  0.27625  0.51155  1.0000
  C   C238      1.0  0.25047  0.22672  0.51629  1.0000
  H   H293      1.0  0.44927  0.23602  0.54720  1.0000
  H   H294      1.0  0.46691  0.25909  0.72732  1.0000
  H   H295      1.0  0.44854  0.43442  0.51194  1.0000
  C   C239      1.0  0.46086  0.08190  0.65753  1.0000
  C   C240      1.0  0.27965  0.27287  0.51824  1.0000
  H   H296      1.0  0.45276  0.24011  0.62338  1.0000
  C   C241      1.0  0.46514  0.27577  0.69428  1.0000
  C   C242      1.0  0.06554  0.98186  0.51582  1.0000
  H   H297      1.0  0.23092  0.21036  0.51604  1.0000
  H   H298      1.0  0.97213  0.47044  0.51951  1.0000
  H   H299      1.0  0.00927  0.14391  0.52194  1.0000
  C   C243      1.0  0.97691  0.03496  0.53241  1.0000
  H   H300      1.0  0.45773  0.13202  0.64513  1.0000
  C   C244      1.0  0.34262  0.47179  0.57007  1.0000
  H   H301      1.0  0.04323  0.44344  0.72442  1.0000
  H   H302      1.0  0.39168  0.37259  0.50646  1.0000
  H   H303      1.0  0.34733  0.27515  0.53048  1.0000
  C   C245      1.0  0.99510  0.18143  0.67866  1.0000
  C   C246      1.0  0.44156  0.98761  0.54550  1.0000
  H   H304      1.0  0.43495  0.32044  0.51037  1.0000
  H   H305      1.0  0.00461  0.19865  0.62080  1.0000
  C   C247      1.0  0.45931  0.45509  0.50896  1.0000
  C   C248      1.0  0.46122  0.16460  0.71196  1.0000
  H   H306      1.0  0.45482  0.99174  0.56078  1.0000
  C   C249      1.0  0.46472  0.33728  0.69232  1.0000
  H   H307      1.0  0.98515  0.15988  0.64608  1.0000
  H   H308      1.0  0.42167  0.98008  0.55250  1.0000
  C   C250      1.0  0.00599  0.39857  0.65730  1.0000
  H   H309      1.0  0.98194  0.19614  0.74535  1.0000
  H   H310      1.0  0.44094  0.12735  0.50504  1.0000
  H   H311      1.0  0.98655  0.16386  0.68889  1.0000
  H   H312      1.0  0.46722  0.34015  0.63202  1.0000
  C   C251      1.0  0.34865  0.28614  0.51418  1.0000
  H   H313      1.0  0.36814  0.30372  0.51427  1.0000
  H   H314      1.0  0.42521  0.45817  0.50531  1.0000
  C   C252      1.0  0.02815  0.40246  0.64573  1.0000
  Fe  Fe33      1.0  0.34982  0.43701  0.87714  1.0000
  H   H315      1.0  0.44553  0.45012  0.79840  1.0000
  S   S67       1.0  0.35963  0.41204  0.85229  1.0000
  Fe  Fe34      1.0  0.30991  0.45619  0.88769  1.0000
  C   C253      1.0  0.31944  0.02839  0.87383  1.0000
  S   S68       1.0  0.27060  0.45246  0.87764  1.0000
  H   H316      1.0  0.06455  0.34681  0.82926  1.0000
  S   S69       1.0  0.38311  0.03612  0.88708  1.0000
  Fe  Fe35      1.0  0.34209  0.45132  0.92751  1.0000
  S   S70       1.0  0.34089  0.43978  0.96578  1.0000
  Fe  Fe36      1.0  0.00883  0.13470  0.75349  1.0000
  S   S71       1.0  0.31461  0.42286  0.90063  1.0000
  H   H317      1.0  0.35658  0.40438  0.90481  1.0000
  S   S72       1.0  0.99204  0.13810  0.81888  1.0000
  H   H318      1.0  0.19442  0.46411  0.87405  1.0000
  N   N18       1.0  0.10318  0.09043  0.93331  1.0000
  S   S73       1.0  0.03784  0.16214  0.78009  1.0000
  Fe  Fe37      1.0  0.02174  0.12798  0.80541  1.0000
  S   S74       1.0  0.03699  0.10947  0.83297  1.0000
  Fe  Fe38      1.0  0.00559  0.16966  0.79123  1.0000
  S   S75       1.0  0.01287  0.21169  0.79143  1.0000
  S   S76       1.0  0.99516  0.10080  0.77756  1.0000
  C   C254      1.0  0.09941  0.13071  0.88258  1.0000
  Fe  Fe39      1.0  0.15741  0.01760  0.89718  1.0000
  H   H319      1.0  0.41532  0.45327  0.85516  1.0000
  S   S77       1.0  0.19753  0.02067  0.89910  1.0000
  Fe  Fe40      1.0  0.11906  0.03687  0.88084  1.0000
  S   S78       1.0  0.09011  0.01311  0.90854  1.0000
  S   S79       1.0  0.11066  0.06094  0.85365  1.0000
  Fe  Fe41      1.0  0.12378  0.02594  0.93324  1.0000
  S   S80       1.0  0.12263  0.03832  0.97080  1.0000
  H   H320      1.0  0.06798  0.02727  0.81419  1.0000
  S   S81       1.0  0.07634  0.43452  0.89729  1.0000
  S   S82       1.0  0.15296  0.05206  0.90641  1.0000
  S   S83       1.0  0.12629  0.00470  0.86911  1.0000
  H   H321      1.0  0.04177  0.00766  0.79446  1.0000
  S   S84       1.0  0.42381  0.30153  0.78061  1.0000
  H   H322      1.0  0.39425  0.44300  0.81659  1.0000
  H   H323      1.0  0.01568  0.35115  0.82172  1.0000
  S   S85       1.0  0.02566  0.39821  0.79643  1.0000
  C   C255      1.0  0.99359  0.04473  0.81274  1.0000
  C   C256      1.0  0.02374  0.30291  0.84361  1.0000
  Fe  Fe42      1.0  0.44102  0.33670  0.80487  1.0000
  S   S86       1.0  0.42485  0.35393  0.83285  1.0000
  H   H324      1.0  0.09529  0.10300  0.96650  1.0000
  C   C257      1.0  0.00836  0.34998  0.90137  1.0000
  C   C258      1.0  0.06265  0.42448  0.86916  1.0000
  C   C259      1.0  0.03604  0.40751  0.86710  1.0000
  C   C260      1.0  0.02448  0.39945  0.84484  1.0000
  C   C261      1.0  0.03961  0.40808  0.82451  1.0000
  C   C262      1.0  0.06632  0.42486  0.82653  1.0000
  C   C263      1.0  0.07783  0.43311  0.84884  1.0000
  H   H325      1.0  0.02424  0.40091  0.88278  1.0000
  H   H326      1.0  0.00384  0.38685  0.84349  1.0000
  H   H327      1.0  0.07815  0.43154  0.81085  1.0000
  H   H328      1.0  0.09846  0.44586  0.85031  1.0000
  H   H329      1.0  0.02670  0.33247  0.80602  1.0000
  C   C264      1.0  0.36561  0.32799  0.91188  1.0000
  H   H330      1.0  0.33359  0.02180  0.87119  1.0000
  C   C265      1.0  0.99369  0.22688  0.79561  1.0000
  H   H331      1.0  0.12745  0.12300  0.95539  1.0000
  C   C266      1.0  0.19829  0.00082  0.96883  1.0000
  C   C267      1.0  0.23587  0.00811  0.90527  1.0000
  S   S87       1.0  0.32013  0.98564  0.91701  1.0000
  C   C268      1.0  0.00386  0.25288  0.78877  1.0000
  C   C269      1.0  0.18991  0.45988  0.99310  1.0000
  H   H332      1.0  0.30003  0.02033  0.81677  1.0000
  C   C270      1.0  0.98429  0.31318  0.86584  1.0000
  C   C271      1.0  0.11189  0.01402  0.99277  1.0000
  C   C272      1.0  0.05657  0.09461  0.83727  1.0000
  C   C273      1.0  0.05215  0.07871  0.85718  1.0000
  C   C274      1.0  0.06788  0.06774  0.86216  1.0000
  C   C275      1.0  0.08880  0.07283  0.84757  1.0000
  C   C276      1.0  0.09279  0.08814  0.82735  1.0000
  C   C277      1.0  0.07679  0.09877  0.82215  1.0000
  H   H333      1.0  0.03668  0.07524  0.86914  1.0000
  H   H334      1.0  0.06413  0.05585  0.87761  1.0000
  H   H335      1.0  0.10871  0.09224  0.81573  1.0000
  H   H336      1.0  0.08066  0.11086  0.80677  1.0000
  H   H337      1.0  0.34796  0.38976  0.96822  1.0000
  C   C278      1.0  0.10773  0.11700  0.89654  1.0000
  C   C279      1.0  0.43720  0.00439  0.82621  1.0000
  C   C280      1.0  0.21271  0.00187  0.89337  1.0000
  H   H338      1.0  0.05277  0.46144  0.84121  1.0000
  C   C281      1.0  0.22796  0.45926  0.87658  1.0000
  H   H339      1.0  0.11991  0.07835  0.90602  1.0000
  H   H340      1.0  0.97925  0.07697  0.82863  1.0000
  H   H341      1.0  0.32818  0.04405  0.88722  1.0000
  H   H342      1.0  0.21801  0.44006  0.86904  1.0000
  C   C282      1.0  0.37844  0.39649  0.84718  1.0000
  C   C283      1.0  0.37653  0.38451  0.82521  1.0000
  C   C284      1.0  0.39088  0.37203  0.82027  1.0000
  C   C285      1.0  0.40709  0.37067  0.83744  1.0000
  C   C286      1.0  0.40900  0.38269  0.85941  1.0000
  C   C287      1.0  0.39525  0.39582  0.86411  1.0000
  H   H343      1.0  0.36371  0.38475  0.81182  1.0000
  H   H344      1.0  0.38887  0.36288  0.80332  1.0000
  H   H345      1.0  0.42109  0.38160  0.87307  1.0000
  H   H346      1.0  0.39717  0.40477  0.88110  1.0000
  C   C288      1.0  0.39578  0.04494  0.85861  1.0000
  C   C289      1.0  0.38283  0.02932  0.83921  1.0000
  C   C290      1.0  0.39376  0.03602  0.81670  1.0000
  C   C291      1.0  0.41798  0.05807  0.81361  1.0000
  C   C292      1.0  0.43055  0.07414  0.83287  1.0000
  C   C293      1.0  0.41933  0.06772  0.85533  1.0000
  H   H347      1.0  0.36446  0.01211  0.84143  1.0000
  H   H348      1.0  0.38366  0.02389  0.80173  1.0000
  H   H349      1.0  0.45820  0.45295  0.82777  1.0000
  H   H350      1.0  0.42931  0.08005  0.87025  1.0000
  H   H351      1.0  0.38244  0.40752  0.92321  1.0000
  H   H352      1.0  0.07470  0.02356  0.78433  1.0000
  C   C294      1.0  0.07853  0.13328  0.88956  1.0000
  C   C295      1.0  0.05404  0.34848  0.84472  1.0000
  H   H353      1.0  0.00171  0.39669  0.75181  1.0000
  C   C296      1.0  0.99082  0.44027  0.84391  1.0000
  H   H354      1.0  0.43949  0.20102  0.80946  1.0000
  H   H355      1.0  0.36311  0.31359  0.87655  1.0000
  Fe  Fe43      1.0  0.35179  0.99477  0.89100  1.0000
  H   H356      1.0  0.32023  0.01033  0.83099  1.0000
  C   C297      1.0  0.00903  0.45131  0.86262  1.0000
  S   S88       1.0  0.44984  0.25269  0.79962  1.0000
  H   H357      1.0  0.99380  0.45015  0.82728  1.0000
  H   H358      1.0  0.46523  0.40950  0.85575  1.0000
  H   H359      1.0  0.09718  0.01304  0.82789  1.0000
  H   H360      1.0  0.26670  0.99952  0.91045  1.0000
  H   H361      1.0  0.46719  0.01206  0.80037  1.0000
  H   H362      1.0  0.20688  0.46475  0.98264  1.0000
  H   H363      1.0  0.28582  0.08860  0.88807  1.0000
  C   C298      1.0  0.98986  0.26596  0.79220  1.0000
  C   C299      1.0  0.06186  0.01305  0.79947  1.0000
  H   H364      1.0  0.05708  0.36845  0.84432  1.0000
  H   H365      1.0  0.41438  0.00505  0.85634  1.0000
  C   C300      1.0  0.25416  0.47019  0.88318  1.0000
  H   H366      1.0  0.42522  0.43087  0.82210  1.0000
  H   H367      1.0  0.10440  0.00771  0.79883  1.0000
  C   C301      1.0  0.25683  0.05972  0.86556  1.0000
  C   C302      1.0  0.45269  0.03618  0.85845  1.0000
  C   C303      1.0  0.29953  0.06551  0.87111  1.0000
  C   C304      1.0  0.12502  0.08833  0.92347  1.0000
  C   C305      1.0  0.31771  0.36970  0.93128  1.0000
  H   H368      1.0  0.06463  0.06330  0.94574  1.0000
  H   H369      1.0  0.13052  0.07699  0.93528  1.0000
  S   S89       1.0  0.97795  0.14352  0.76347  1.0000
  H   H370      1.0  0.34180  0.33649  0.86041  1.0000
  C   C306      1.0  0.07435  0.10892  0.92499  1.0000
  H   H371      1.0  0.98863  0.00376  0.83080  1.0000
  H   H372      1.0  0.30172  0.01204  0.88163  1.0000
  H   H373      1.0  0.31431  0.38294  0.94265  1.0000
  H   H374      1.0  0.30436  0.34957  0.93716  1.0000
  C   C307      1.0  0.98182  0.33292  0.90224  1.0000
  H   H375      1.0  0.33980  0.35668  0.96588  1.0000
  H   H376      1.0  0.23137  0.02863  0.84279  1.0000
  N   N19       1.0  0.31343  0.03687  0.85135  1.0000
  C   C308      1.0  0.33752  0.05910  0.84205  1.0000
  H   H377      1.0  0.00342  0.28712  0.84095  1.0000
  C   C309      1.0  0.30487  0.01529  0.83420  1.0000
  C   C310      1.0  0.29386  0.04461  0.85569  1.0000
  C   C311      1.0  0.26871  0.03151  0.84549  1.0000
  C   C312      1.0  0.28123  0.07286  0.87594  1.0000
  C   C313      1.0  0.25065  0.03920  0.85029  1.0000
  C   C314      1.0  0.06608  0.12250  0.91076  1.0000
  C   C315      1.0  0.09040  0.99845  0.81351  1.0000
  H   H378      1.0  0.34713  0.07505  0.85508  1.0000
  C   C316      1.0  0.35163  0.37609  0.95779  1.0000
  H   H379      1.0  0.33359  0.06705  0.82583  1.0000
  H   H380      1.0  0.44879  0.04353  0.87447  1.0000
  H   H381      1.0  0.31807  0.07605  0.87985  1.0000
  H   H382      1.0  0.97401  0.29858  0.85252  1.0000
  H   H383      1.0  0.07232  0.98436  0.77019  1.0000
  H   H384      1.0  0.01770  0.36443  0.91510  1.0000
  H   H385      1.0  0.43066  0.99415  0.77838  1.0000
  H   H386      1.0  0.26224  0.01489  0.83416  1.0000
  H   H387      1.0  0.99802  0.28580  0.78667  1.0000
  H   H388      1.0  0.10857  0.13857  0.86573  1.0000
  H   H389      1.0  0.41064  0.46215  0.79153  1.0000
  H   H390      1.0  0.37250  0.38270  0.96034  1.0000
  N   N20       1.0  0.02608  0.32878  0.84400  1.0000
  Fe  Fe44      1.0  0.45305  0.32777  0.75365  1.0000
  C   C317      1.0  0.01547  0.33249  0.82162  1.0000
  H   H391      1.0  0.37516  0.31804  0.91877  1.0000
  C   C318      1.0  0.01133  0.33046  0.86420  1.0000
  C   C319      1.0  0.02301  0.34890  0.88268  1.0000
  N   N21       1.0  0.34504  0.37590  0.93245  1.0000
  C   C320      1.0  0.18655  0.00206  0.98973  1.0000
  H   H392      1.0  0.03503  0.30101  0.82895  1.0000
  C   C321      1.0  0.16705  0.45472  0.98189  1.0000
  S   S90       1.0  0.13006  0.99298  0.92556  1.0000
  H   H393      1.0  0.28781  0.99728  0.84087  1.0000
  N   N22       1.0  0.41670  0.98130  0.81390  1.0000
  C   C322      1.0  0.46247  0.01815  0.81660  1.0000
  C   C323      1.0  0.35870  0.32530  0.88811  1.0000
  H   H394      1.0  0.97724  0.40154  0.90203  1.0000
  H   H395      1.0  0.00858  0.04819  0.82618  1.0000
  H   H396      1.0  0.16622  0.45563  0.96281  1.0000
  H   H397      1.0  0.04339  0.36306  0.88302  1.0000
  C   C324      1.0  0.45807  0.21096  0.80080  1.0000
  C   C325      1.0  0.21064  0.98639  0.96786  1.0000
  C   C326      1.0  0.36178  0.40230  0.92320  1.0000
  C   C327      1.0  0.40933  0.46273  0.81109  1.0000
  H   H398      1.0  0.17733  0.01361  0.98912  1.0000
  C   C328      1.0  0.09530  0.10553  0.91822  1.0000
  C   C329      1.0  0.35215  0.46435  0.98768  1.0000
  H   H399      1.0  0.08670  0.05162  0.94688  1.0000
  C   C330      1.0  0.36075  0.34380  0.92665  1.0000
  H   H400      1.0  0.07389  0.05418  0.91894  1.0000
  H   H401      1.0  0.14268  0.10759  0.92142  1.0000
  H   H402      1.0  0.04969  0.12440  0.91599  1.0000
  H   H403      1.0  0.31174  0.37179  0.91322  1.0000
  H   H404      1.0  0.44892  0.09143  0.83058  1.0000
  H   H405      1.0  0.12346  0.11510  0.88952  1.0000
  H   H406      1.0  0.33339  0.36449  0.88536  1.0000
  C   C331      1.0  0.14526  0.44868  0.99525  1.0000
  C   C332      1.0  0.34876  0.35750  0.91786  1.0000
  H   H407      1.0  0.06360  0.34634  0.86075  1.0000
  C   C333      1.0  0.34177  0.35408  0.89360  1.0000
  H   H408      1.0  0.11801  0.09210  0.96844  1.0000
  H   H409      1.0  0.36024  0.41693  0.93409  1.0000
  H   H410      1.0  0.06399  0.10081  0.94121  1.0000
  Fe  Fe45      1.0  0.45545  0.29325  0.79194  1.0000
  C   C334      1.0  0.11129  0.10270  0.95690  1.0000
  C   C335      1.0  0.24919  0.99458  0.90081  1.0000
  H   H411      1.0  0.03066  0.29893  0.86048  1.0000
  S   S91       1.0  0.37726  0.46345  0.90497  1.0000
  H   H412      1.0  0.99522  0.31695  0.81844  1.0000
  H   H413      1.0  0.01621  0.44312  0.89887  1.0000
  H   H414      1.0  0.00116  0.06320  0.80293  1.0000
  H   H415      1.0  0.24369  0.02368  0.91803  1.0000
  C   C336      1.0  0.08112  0.06380  0.93632  1.0000
  C   C337      1.0  0.34660  0.33814  0.87905  1.0000
  H   H416      1.0  0.40996  0.00501  0.78969  1.0000
  H   H417      1.0  0.35652  0.99787  0.96497  1.0000
  C   C338      1.0  0.04873  0.98858  0.84778  1.0000
  H   H418      1.0  0.98583  0.06265  0.85350  1.0000
  C   C339      1.0  0.20333  0.98205  0.87654  1.0000
  Fe  Fe46      1.0  0.98409  0.36614  0.79561  1.0000
  H   H419      1.0  0.36693  0.34526  0.94477  1.0000
  H   H420      1.0  0.02281  0.26305  0.78082  1.0000
  C   C340      1.0  0.00339  0.43668  0.88379  1.0000
  H   H421      1.0  0.07161  0.14314  0.87819  1.0000
  S   S92       1.0  0.43224  0.06461  0.78566  1.0000
  H   H422      1.0  0.35223  0.05358  0.83755  1.0000
  N   N23       1.0  0.43466  0.47079  0.82255  1.0000
  H   H423      1.0  0.40168  0.47563  0.81599  1.0000
  C   C341      1.0  0.44129  0.45046  0.81748  1.0000
  H   H424      1.0  0.99212  0.03014  0.79975  1.0000
  C   C342      1.0  0.43293  0.01395  0.84770  1.0000
  S   S93       1.0  0.97523  0.33315  0.77132  1.0000
  H   H425      1.0  0.46444  0.17841  0.80382  1.0000
  H   H426      1.0  0.12761  0.44523  0.98654  1.0000
  C   C343      1.0  0.35353  0.99157  0.98315  1.0000
  H   H427      1.0  0.24241  0.06500  0.86979  1.0000
  C   C344      1.0  0.98101  0.41253  0.88587  1.0000
  H   H428      1.0  0.19800  0.01131  0.95329  1.0000
  C   C345      1.0  0.41339  0.98835  0.78955  1.0000
  S   S94       1.0  0.34257  0.46779  0.86169  1.0000
  C   C346      1.0  0.10170  0.98806  0.98665  1.0000
  H   H429      1.0  0.38395  0.98357  0.82664  1.0000
  N   N24       1.0  0.06350  0.98993  0.80599  1.0000
  H   H430      1.0  0.06436  0.00807  0.85076  1.0000
  H   H431      1.0  0.03709  0.47328  0.82226  1.0000
  H   H432      1.0  0.30578  0.46229  0.79875  1.0000
  C   C347      1.0  0.97180  0.05878  0.83896  1.0000
  C   C348      1.0  0.21445  0.47291  0.87942  1.0000
  C   C349      1.0  0.04765  0.47677  0.83921  1.0000
  H   H433      1.0  0.22010  0.98589  0.95176  1.0000
  C   C350      1.0  0.43137  0.47190  0.84836  1.0000
  C   C351      1.0  0.97069  0.99825  0.83969  1.0000
  C   C352      1.0  0.96919  0.21425  0.80603  1.0000
  H   H434      1.0  0.09959  0.98248  0.96831  1.0000
  H   H435      1.0  0.09216  0.98187  0.81992  1.0000
  H   H436      1.0  0.05699  0.47145  0.88415  1.0000
  Fe  Fe47      1.0  0.11142  0.47436  0.89895  1.0000
  H   H437      1.0  0.37441  0.03026  0.99729  1.0000
  N   N25       1.0  0.03247  0.47700  0.85977  1.0000
  H   H438      1.0  0.03578  0.98533  0.88374  1.0000
  Fe  Fe48      1.0  0.09901  0.98223  0.89848  1.0000
  H   H439      1.0  0.44906  0.47605  0.85836  1.0000
  H   H440      1.0  0.46686  0.40124  0.81343  1.0000
  N   N26       1.0  0.96831  0.03694  0.82396  1.0000
  H   H441      1.0  0.04637  0.42842  0.75079  1.0000
  C   C353      1.0  0.96854  0.41605  0.84619  1.0000
  H   H442      1.0  0.97051  0.33396  0.91665  1.0000
  C   C354      1.0  0.96981  0.31454  0.88451  1.0000
  H   H443      1.0  0.03045  0.38045  0.75033  1.0000
  H   H444      1.0  0.42293  0.59777  0.10549  1.0000
  Fe  Fe49      1.0  0.33935  0.85929  0.23224  1.0000
  S   S95       1.0  0.33605  0.83402  0.20160  1.0000
  S   S96       1.0  0.33342  0.89346  0.23141  1.0000
  Fe  Fe50      1.0  0.31508  0.80102  0.22749  1.0000
  S   S97       1.0  0.27810  0.76070  0.22328  1.0000
  Fe  Fe51      1.0  0.37461  0.83959  0.21478  1.0000
  S   S98       1.0  0.40813  0.85132  0.18736  1.0000
  H   H445      1.0  0.02726  0.81789  0.16605  1.0000
  C   C355      1.0  0.27931  0.90378  0.22149  1.0000
  Fe  Fe52      1.0  0.37039  0.51515  0.08331  1.0000
  S   S99       1.0  0.36973  0.54274  0.11002  1.0000
  S   S100      1.0  0.38231  0.52731  0.04534  1.0000
  H   H446      1.0  0.26302  0.52265  0.02926  1.0000
  S   S101      1.0  0.35155  0.49733  0.14881  1.0000
  H   H447      1.0  0.45731  0.49464  0.15752  1.0000
  Fe  Fe53      1.0  0.33132  0.50869  0.12153  1.0000
  S   S102      1.0  0.29611  0.51433  0.12711  1.0000
  Fe  Fe54      1.0  0.39009  0.52895  0.13489  1.0000
  S   S103      1.0  0.42379  0.55414  0.16095  1.0000
  C   C356      1.0  0.20603  0.97425  0.12482  1.0000
  S   S104      1.0  0.39304  0.50378  0.10721  1.0000
  Fe  Fe55      1.0  0.11927  0.66625  0.22926  1.0000
  S   S105      1.0  0.12898  0.63479  0.22950  1.0000
  S   S106      1.0  0.15371  0.70848  0.22893  1.0000
  Fe  Fe56      1.0  0.05891  0.62525  0.22743  1.0000
  S   S107      1.0  0.06702  0.59248  0.22915  1.0000
  S   S108      1.0  0.01493  0.61135  0.22469  1.0000
  Fe  Fe57      1.0  0.09750  0.61538  0.20254  1.0000
  S   S109      1.0  0.09751  0.59811  0.16739  1.0000
  H   H448      1.0  0.16637  0.67093  0.12478  1.0000
  S   S110      1.0  0.08927  0.64785  0.20010  1.0000
  Fe  Fe58      1.0  0.13706  0.96242  0.12361  1.0000
  S   S111      1.0  0.37815  0.86635  0.24428  1.0000
  S   S112      1.0  0.17150  0.95486  0.12126  1.0000
  Fe  Fe59      1.0  0.08018  0.94729  0.14018  1.0000
  C   C357      1.0  0.46039  0.88490  0.20066  1.0000
  S   S113      1.0  0.04756  0.92686  0.16841  1.0000
  Fe  Fe60      1.0  0.09725  0.96106  0.08828  1.0000
  H   H449      1.0  0.13032  0.65460  0.16729  1.0000
  H   H450      1.0  0.27770  0.49857  0.00439  1.0000
  S   S114      1.0  0.15408  0.53387  0.16246  1.0000
  S   S115      1.0  0.09643  0.93121  0.11312  1.0000
  C   C358      1.0  0.26978  0.92387  0.18808  1.0000
  H   H451      1.0  0.26507  0.75516  0.16758  1.0000
  H   H452      1.0  0.26115  0.71337  0.15684  1.0000
  C   C359      1.0  0.13376  0.50324  0.03861  1.0000
  C   C360      1.0  0.14601  0.51899  0.01886  1.0000
  H   H453      1.0  0.18341  0.72011  0.17299  1.0000
  H   H454      1.0  0.14143  0.50980  0.05615  1.0000
  H   H455      1.0  0.16307  0.53770  0.02139  1.0000
  C   C361      1.0  0.11351  0.58053  0.16632  1.0000
  C   C362      1.0  0.12824  0.58041  0.18544  1.0000
  C   C363      1.0  0.14120  0.56643  0.18397  1.0000
  C   C364      1.0  0.13856  0.55185  0.16378  1.0000
  C   C365      1.0  0.12339  0.55155  0.14488  1.0000
  C   C366      1.0  0.11125  0.56629  0.14599  1.0000
  H   H456      1.0  0.12966  0.59101  0.20135  1.0000
  H   H457      1.0  0.15280  0.56646  0.19868  1.0000
  H   H458      1.0  0.12149  0.54038  0.12922  1.0000
  H   H459      1.0  0.09986  0.56643  0.13118  1.0000
  H   H460      1.0  0.41413  0.59022  0.07549  1.0000
  H   H461      1.0  0.22593  0.75802  0.17483  1.0000
  H   H462      1.0  0.17678  0.65912  0.19727  1.0000
  H   H463      1.0  0.18429  0.64324  0.17438  1.0000
  S   S116      1.0  0.08664  0.95122  0.04971  1.0000
  C   C367      1.0  0.24584  0.50509  0.12814  1.0000
  H   H464      1.0  0.14760  0.68649  0.15574  1.0000
  H   H465      1.0  0.21314  0.94707  0.10617  1.0000
  C   C368      1.0  0.43879  0.56565  0.09233  1.0000
  H   H466      1.0  0.25489  0.52591  0.12836  1.0000
  H   H467      1.0  0.13461  0.90296  0.13967  1.0000
  H   H468      1.0  0.46635  0.55300  0.13487  1.0000
  C   C369      1.0  0.99418  0.59571  0.17876  1.0000
  C   C370      1.0  0.98944  0.59640  0.20290  1.0000
  N   N27       1.0  0.19517  0.49119  0.20191  1.0000
  C   C371      1.0  0.08540  0.90052  0.18544  1.0000
  H   H469      1.0  0.39111  0.95168  0.14171  1.0000
  H   H470      1.0  0.01391  0.60409  0.17270  1.0000
  H   H471      1.0  0.13711  0.95913  0.02263  1.0000
  H   H472      1.0  0.97458  0.51811  0.23001  1.0000
  H   H473      1.0  0.15155  0.63301  0.18097  1.0000
  C   C372      1.0  0.37032  0.50276  0.02339  1.0000
  H   H474      1.0  0.21870  0.67438  0.15382  1.0000
  C   C373      1.0  0.09507  0.88204  0.15170  1.0000
  H   H475      1.0  0.23893  0.54147  0.01233  1.0000
  H   H476      1.0  0.03505  0.96147  0.20226  1.0000
  C   C374      1.0  0.43112  0.60119  0.08740  1.0000
  C   C375      1.0  0.24363  0.74682  0.22626  1.0000
  C   C376      1.0  0.23160  0.76174  0.22724  1.0000
  C   C377      1.0  0.98670  0.49102  0.22041  1.0000
  C   C378      1.0  0.18836  0.72260  0.22882  1.0000
  C   C379      1.0  0.40738  0.48912  0.16770  1.0000
  C   C380      1.0  0.22774  0.71971  0.22717  1.0000
  C   C381      1.0  0.02661  0.50811  0.19723  1.0000
  C   C382      1.0  0.34614  0.97577  0.03050  1.0000
  H   H477      1.0  0.20707  0.49910  0.13027  1.0000
  H   H478      1.0  0.34940  0.95977  0.17355  1.0000
  C   C383      1.0  0.44274  0.87072  0.18266  1.0000
  H   H479      1.0  0.11740  0.93577  0.19906  1.0000
  C   C384      1.0  0.00291  0.90500  0.19573  1.0000
  C   C385      1.0  0.01293  0.90911  0.17259  1.0000
  C   C386      1.0  0.99526  0.89820  0.15391  1.0000
  H   H480      1.0  0.15096  0.68049  0.18651  1.0000
  H   H481      1.0  0.15616  0.94849  0.03848  1.0000
  H   H482      1.0  0.01615  0.91300  0.21047  1.0000
  H   H483      1.0  0.00234  0.90088  0.13600  1.0000
  H   H484      1.0  0.43969  0.86147  0.14559  1.0000
  C   C387      1.0  0.33167  0.90404  0.20308  1.0000
  C   C388      1.0  0.34122  0.93036  0.19922  1.0000
  C   C389      1.0  0.34115  0.93939  0.17646  1.0000
  C   C390      1.0  0.33145  0.92213  0.15753  1.0000
  C   C391      1.0  0.32109  0.89568  0.16153  1.0000
  C   C392      1.0  0.32118  0.88662  0.18430  1.0000
  H   H485      1.0  0.34929  0.94383  0.21377  1.0000
  S   S117      1.0  0.12099  0.97583  0.15299  1.0000
  H   H486      1.0  0.31333  0.88223  0.14694  1.0000
  H   H487      1.0  0.31324  0.86620  0.18732  1.0000
  H   H488      1.0  0.43862  0.93020  0.14425  1.0000
  C   C393      1.0  0.11122  0.92037  0.18617  1.0000
  H   H489      1.0  0.01273  0.84284  0.18499  1.0000
  H   H490      1.0  0.07266  0.90177  0.19813  1.0000
  H   H491      1.0  0.02581  0.96283  0.16000  1.0000
  H   H492      1.0  0.44818  0.50646  0.21468  1.0000
  H   H493      1.0  0.23506  0.93908  0.19014  1.0000
  C   C394      1.0  0.45774  0.56662  0.16678  1.0000
  H   H494      1.0  0.18878  0.68698  0.22969  1.0000
  H   H495      1.0  0.07778  0.54228  0.19912  1.0000
  H   H496      1.0  0.19534  0.76157  0.22854  1.0000
  H   H497      1.0  0.05783  0.83173  0.18122  1.0000
  H   H498      1.0  0.26597  0.86326  0.21859  1.0000
  H   H499      1.0  0.45336  0.88397  0.21840  1.0000
  N   N28       1.0  0.04751  0.50544  0.18606  1.0000
  H   H500      1.0  0.42471  0.93612  0.20338  1.0000
  H   H501      1.0  0.23281  0.92621  0.16103  1.0000
  C   C395      1.0  0.22194  0.96513  0.11576  1.0000
  H   H502      1.0  0.42164  0.55266  0.08135  1.0000
  C   C396      1.0  0.45281  0.87231  0.15979  1.0000
  H   H503      1.0  0.42244  0.89587  0.14912  1.0000
  H   H504      1.0  0.03150  0.87685  0.18704  1.0000
  C   C397      1.0  0.27102  0.50371  0.18517  1.0000
  S   S118      1.0  0.33139  0.48242  0.09324  1.0000
  C   C398      1.0  0.03300  0.85912  0.18645  1.0000
  H   H505      1.0  0.39727  0.49991  0.17198  1.0000
  H   H506      1.0  0.24566  0.96002  0.16495  1.0000
  C   C399      1.0  0.09373  0.96908  0.00429  1.0000
  C   C400      1.0  0.41939  0.94799  0.19313  1.0000
  H   H507      1.0  0.07010  0.51547  0.21798  1.0000
  H   H508      1.0  0.39746  0.89443  0.19427  1.0000
  H   H509      1.0  0.43222  0.56313  0.11096  1.0000
  H   H510      1.0  0.45502  0.52008  0.18561  1.0000
  H   H511      1.0  0.45643  0.58305  0.20025  1.0000
  C   C401      1.0  0.19906  0.97365  0.00857  1.0000
  H   H512      1.0  0.30208  0.95005  0.15367  1.0000
  C   C402      1.0  0.33624  0.95738  0.01210  1.0000
  H   H513      1.0  0.01698  0.84824  0.14258  1.0000
  H   H514      1.0  0.08831  0.52012  0.19139  1.0000
  C   C403      1.0  0.07655  0.88057  0.16819  1.0000
  C   C404      1.0  0.21858  0.48985  0.12942  1.0000
  C   C405      1.0  0.04261  0.47853  0.18575  1.0000
  H   H515      1.0  0.06600  0.51171  0.15208  1.0000
  C   C406      1.0  0.00915  0.53586  0.20913  1.0000
  H   H516      1.0  0.30748  0.97544  0.19121  1.0000
  H   H517      1.0  0.20247  0.49180  0.23915  1.0000
  H   H518      1.0  0.24734  0.89627  0.16033  1.0000
  H   H519      1.0  0.04782  0.86173  0.12834  1.0000
  Fe  Fe61      1.0  0.13103  0.49730  0.14195  1.0000
  C   C407      1.0  0.26645  0.87984  0.21035  1.0000
  H   H520      1.0  0.24525  0.85882  0.17966  1.0000
  H   H521      1.0  0.28670  0.96733  0.14326  1.0000
  S   S119      1.0  0.14797  0.48787  0.11099  1.0000
  H   H522      1.0  0.28882  0.90557  0.23830  1.0000
  C   C408      1.0  0.26753  0.52447  0.19033  1.0000
  C   C409      1.0  0.24293  0.52029  0.19570  1.0000
  H   H523      1.0  0.27092  0.93325  0.14005  1.0000
  H   H524      1.0  0.43307  0.97715  0.22031  1.0000
  H   H525      1.0  0.24123  0.53704  0.19954  1.0000
  C   C410      1.0  0.22094  0.49506  0.19583  1.0000
  C   C411      1.0  0.19591  0.50116  0.22604  1.0000
  C   C412      1.0  0.20427  0.74972  0.22832  1.0000
  H   H526      1.0  0.05775  0.53538  0.15981  1.0000
  H   H527      1.0  0.45280  0.55864  0.09103  1.0000
  H   H528      1.0  0.39031  0.48587  0.21161  1.0000
  C   C413      1.0  0.25644  0.89906  0.17741  1.0000
  H   H529      1.0  0.43727  0.91729  0.17324  1.0000
  H   H530      1.0  0.08968  0.86827  0.13748  1.0000
  H   H531      1.0  0.29186  0.94353  0.22009  1.0000
  S   S120      1.0  0.35318  0.80388  0.23792  1.0000
  H   H532      1.0  0.03273  0.50369  0.15104  1.0000
  N   N29       1.0  0.27142  0.94650  0.17585  1.0000
  C   C414      1.0  0.25845  0.52026  0.01055  1.0000
  H   H533      1.0  0.03933  0.88230  0.14391  1.0000
  S   S121      1.0  0.07862  0.97503  0.11427  1.0000
  H   H534      1.0  0.04383  0.54934  0.18962  1.0000
  N   N30       1.0  0.04921  0.85963  0.16640  1.0000
  C   C415      1.0  0.45611  0.59363  0.05897  1.0000
  H   H535      1.0  0.29002  0.50708  0.18040  1.0000
  H   H536      1.0  0.23661  0.70782  0.22650  1.0000
  N   N31       1.0  0.45051  0.59281  0.08459  1.0000
  N   N32       1.0  0.40153  0.91430  0.16112  1.0000
  C   C416      1.0  0.38614  0.89361  0.17838  1.0000
  C   C417      1.0  0.38673  0.90737  0.13860  1.0000
  C   C418      1.0  0.42608  0.91458  0.15672  1.0000
  C   C419      1.0  0.40717  0.93959  0.17078  1.0000
  C   C420      1.0  0.09591  0.97578  0.02826  1.0000
  H   H537      1.0  0.20184  0.52653  0.18487  1.0000
  C   C421      1.0  0.24510  0.94272  0.17287  1.0000
  C   C422      1.0  0.20047  0.70774  0.22871  1.0000
  C   C423      1.0  0.18795  0.50544  0.18504  1.0000
  H   H538      1.0  0.36921  0.89477  0.18457  1.0000
  H   H539      1.0  0.37887  0.87402  0.17074  1.0000
  C   C424      1.0  0.43930  0.50927  0.19853  1.0000
  H   H540      1.0  0.38221  0.88797  0.13214  1.0000
  H   H541      1.0  0.39773  0.92126  0.12429  1.0000
  H   H542      1.0  0.36787  0.90660  0.14077  1.0000
  H   H543      1.0  0.16888  0.50335  0.18949  1.0000
  H   H544      1.0  0.24329  0.78255  0.22657  1.0000
  H   H545      1.0  0.01088  0.55483  0.20962  1.0000
  C   C425      1.0  0.28320  0.94934  0.15224  1.0000
  H   H546      1.0  0.18658  0.49821  0.16671  1.0000
  H   H547      1.0  0.32568  0.93704  0.01632  1.0000
  H   H548      1.0  0.05629  0.83123  0.14955  1.0000
  C   C426      1.0  0.05106  0.51444  0.16122  1.0000
  N   N33       1.0  0.17109  0.66904  0.16220  1.0000
  C   C427      1.0  0.16603  0.65731  0.13832  1.0000
  C   C428      1.0  0.17104  0.65036  0.17940  1.0000
  C   C429      1.0  0.14916  0.67300  0.16820  1.0000
  C   C430      1.0  0.19654  0.69309  0.16278  1.0000
  C   C431      1.0  0.19954  0.71758  0.16852  1.0000
  C   C432      1.0  0.21946  0.69231  0.15815  1.0000
  C   C433      1.0  0.22401  0.73969  0.16970  1.0000
  C   C434      1.0  0.24384  0.71451  0.15971  1.0000
  C   C435      1.0  0.24611  0.73813  0.16558  1.0000
  H   H549      1.0  0.18042  0.65170  0.13315  1.0000
  H   H550      1.0  0.14672  0.63932  0.13737  1.0000
  S   S122      1.0  0.33339  0.93322  0.12858  1.0000
  H   H551      1.0  0.46554  0.61372  0.05209  1.0000
  H   H552      1.0  0.43171  0.52236  0.20311  1.0000
  H   H553      1.0  0.34318  0.96948  0.04868  1.0000
  H   H554      1.0  0.14877  0.93680  0.17013  1.0000
  C   C436      1.0  0.40080  0.95645  0.15863  1.0000
  C   C437      1.0  0.98870  0.51522  0.22064  1.0000
  H   H555      1.0  0.45234  0.60353  0.13208  1.0000
  H   H556      1.0  0.17653  0.49756  0.23163  1.0000
  C   C438      1.0  0.25497  0.87745  0.18838  1.0000
  H   H557      1.0  0.28397  0.54392  0.18976  1.0000
  C   C439      1.0  0.12086  0.90188  0.15272  1.0000
  C   C440      1.0  0.28108  0.92557  0.21062  1.0000
  H   H558      1.0  0.04086  0.85713  0.20364  1.0000
  C   C441      1.0  0.12890  0.92103  0.16988  1.0000
  C   C442      1.0  0.15153  0.96424  0.03710  1.0000
  C   C443      1.0  0.03783  0.86300  0.14435  1.0000
  H   H559      1.0  0.20914  0.52236  0.22734  1.0000
  C   C444      1.0  0.04765  0.83409  0.16576  1.0000
  C   C445      1.0  0.26156  0.49376  0.12698  1.0000
  Fe  Fe62      1.0  0.34676  0.97540  0.12438  1.0000
  H   H560      1.0  0.42230  0.50095  0.15442  1.0000
  C   C446      1.0  0.02789  0.53246  0.19764  1.0000
  H   H561      1.0  0.20645  0.48627  0.06065  1.0000
  H   H562      1.0  0.97766  0.58515  0.14368  1.0000
  N   N34       1.0  0.41859  0.48422  0.18909  1.0000
  C   C447      1.0  0.00523  0.48733  0.20883  1.0000
  H   H563      1.0  0.19945  0.96239  0.02330  1.0000
  H   H564      1.0  0.14167  0.96402  0.05381  1.0000
  C   C448      1.0  0.97346  0.58497  0.16225  1.0000
  C   C449      1.0  0.07196  0.52150  0.19917  1.0000
  C   C450      1.0  0.42431  0.97147  0.20295  1.0000
  C   C451      1.0  0.97594  0.89053  0.20015  1.0000
  C   C452      1.0  0.28726  0.97122  0.18872  1.0000
  H   H565      1.0  0.17795  0.48909  0.06257  1.0000
  H   H566      1.0  0.97023  0.96315  0.19398  1.0000
  H   H567      1.0  0.43807  0.58193  0.04843  1.0000
  H   H568      1.0  0.43973  0.62211  0.08344  1.0000
  H   H569      1.0  0.27879  0.97111  0.20619  1.0000
  H   H570      1.0  0.26087  0.97182  0.11150  1.0000
  C   C453      1.0  0.96831  0.88326  0.15837  1.0000
  H   H571      1.0  0.96886  0.88770  0.21806  1.0000
  C   C454      1.0  0.11114  0.47939  0.03563  1.0000
  C   C455      1.0  0.24992  0.47872  0.18516  1.0000
  C   C456      1.0  0.24470  0.53115  0.00051  1.0000
  Fe  Fe63      1.0  0.33640  0.82553  0.45889  1.0000
  H   H572      1.0  0.42662  0.90945  0.48114  1.0000
  C   C457      1.0  0.39255  0.52274  0.49013  1.0000
  Fe  Fe64      1.0  0.31026  0.84277  0.42452  1.0000
  S   S123      1.0  0.28298  0.84240  0.45228  1.0000
  S   S124      1.0  0.30906  0.85400  0.38655  1.0000
  Fe  Fe65      1.0  0.31840  0.86240  0.47605  1.0000
  H   H573      1.0  0.16379  0.67944  0.47802  1.0000
  Fe  Fe66      1.0  0.27825  0.80357  0.46258  1.0000
  S   S125      1.0  0.23820  0.76842  0.47198  1.0000
  S   S126      1.0  0.34551  0.86501  0.44737  1.0000
  S   S127      1.0  0.30362  0.80342  0.43352  1.0000
  Fe  Fe67      1.0  0.35466  0.83093  0.26639  1.0000
  S   S128      1.0  0.36304  0.82571  0.30447  1.0000
  Fe  Fe68      1.0  0.10346  0.54775  0.46108  1.0000
  S   S129      1.0  0.06860  0.55126  0.45355  1.0000
  S   S130      1.0  0.09022  0.50402  0.46424  1.0000
  Fe  Fe69      1.0  0.13853  0.60870  0.45949  1.0000
  S   S131      1.0  0.10419  0.61387  0.45393  1.0000
  S   S132      1.0  0.17956  0.64469  0.45557  1.0000
  C   C458      1.0  0.38361  0.85304  0.49904  1.0000
  C   C459      1.0  0.17603  0.70047  0.36368  1.0000
  Fe  Fe70      1.0  0.09155  0.58204  0.42718  1.0000
  S   S133      1.0  0.07151  0.58641  0.39474  1.0000
  H   H574      1.0  0.18703  0.72708  0.48364  1.0000
  S   S134      1.0  0.12592  0.57686  0.43188  1.0000
  N   N35       1.0  0.14767  0.66399  0.39196  1.0000
  S   S135      1.0  0.10851  0.59895  0.28759  1.0000
  C   C460      1.0  0.08179  0.58932  0.36498  1.0000
  C   C461      1.0  0.07118  0.59853  0.34802  1.0000
  C   C462      1.0  0.07916  0.60167  0.32428  1.0000
  C   C463      1.0  0.09765  0.59532  0.31719  1.0000
  C   C464      1.0  0.10818  0.58600  0.33414  1.0000
  C   C465      1.0  0.10037  0.58308  0.35793  1.0000
  H   H575      1.0  0.05675  0.60336  0.35327  1.0000
  H   H576      1.0  0.07088  0.60884  0.31143  1.0000
  H   H577      1.0  0.12246  0.58099  0.32881  1.0000
  H   H578      1.0  0.10857  0.57579  0.37073  1.0000
  C   C466      1.0  0.00649  0.56605  0.42487  1.0000
  H   H579      1.0  0.17104  0.64596  0.39320  1.0000
  C   C467      1.0  0.00899  0.48473  0.42709  1.0000
  H   H580      1.0  0.98852  0.53685  0.48229  1.0000
  C   C468      1.0  0.22229  0.73407  0.46693  1.0000
  C   C469      1.0  0.23428  0.72208  0.45555  1.0000
  C   C470      1.0  0.22099  0.69490  0.45242  1.0000
  C   C471      1.0  0.19543  0.67907  0.46046  1.0000
  C   C472      1.0  0.18335  0.69109  0.47162  1.0000
  C   C473      1.0  0.19666  0.71826  0.47481  1.0000
  H   H581      1.0  0.25394  0.73371  0.44941  1.0000
  H   H582      1.0  0.23071  0.68603  0.44381  1.0000
  C   C474      1.0  0.08866  0.96641  0.46318  1.0000
  H   H583      1.0  0.11684  0.67266  0.39145  1.0000
  H   H584      1.0  0.03406  0.49688  0.46865  1.0000
  H   H585      1.0  0.41528  0.82153  0.48314  1.0000
  H   H586      1.0  0.15983  0.70002  0.41028  1.0000
  C   C475      1.0  0.32437  0.84614  0.36404  1.0000
  C   C476      1.0  0.32427  0.85434  0.34086  1.0000
  C   C477      1.0  0.33608  0.84823  0.32250  1.0000
  C   C478      1.0  0.34824  0.83394  0.32721  1.0000
  C   C479      1.0  0.34820  0.82557  0.35037  1.0000
  C   C480      1.0  0.33619  0.83152  0.36871  1.0000
  H   H587      1.0  0.31509  0.86559  0.33710  1.0000
  H   H588      1.0  0.33606  0.85489  0.30477  1.0000
  H   H589      1.0  0.35723  0.81418  0.35408  1.0000
  H   H590      1.0  0.33589  0.82465  0.38641  1.0000
  H   H591      1.0  0.10750  0.64075  0.38166  1.0000
  H   H592      1.0  0.26816  0.79356  0.29567  1.0000
  H   H593      1.0  0.39423  0.87821  0.40698  1.0000
  H   H594      1.0  0.02215  0.50581  0.42960  1.0000
  H   H595      1.0  0.26336  0.77497  0.26981  1.0000
  C   C481      1.0  0.38893  0.83595  0.48688  1.0000
  C   C482      1.0  0.41112  0.83474  0.49254  1.0000
  H   H596      1.0  0.13823  0.62482  0.38384  1.0000
  H   H597      1.0  0.05988  0.94723  0.43633  1.0000
  H   H598      1.0  0.28523  0.79895  0.33255  1.0000
  H   H599      1.0  0.30800  0.79333  0.30287  1.0000
  C   C483      1.0  0.15218  0.66805  0.32496  1.0000
  C   C484      1.0  0.43494  0.87563  0.39117  1.0000
  H   H600      1.0  0.37132  0.48654  0.47097  1.0000
  C   C485      1.0  0.39335  0.85929  0.40886  1.0000
  H   H601      1.0  0.15479  0.67395  0.42888  1.0000
  H   H602      1.0  0.02711  0.59857  0.47630  1.0000
  C   C486      1.0  0.45768  0.88114  0.43987  1.0000
  C   C487      1.0  0.38262  0.49592  0.48659  1.0000
  H   H603      1.0  0.26412  0.73552  0.27002  1.0000
  H   H604      1.0  0.23804  0.72218  0.29048  1.0000
  H   H605      1.0  0.24324  0.71492  0.33006  1.0000
  S   S136      1.0  0.08783  0.64751  0.25713  1.0000
  C   C488      1.0  0.35742  0.94645  0.49050  1.0000
  N   N36       1.0  0.98005  0.59623  0.48075  1.0000
  C   C489      1.0  0.01389  0.58882  0.46190  1.0000
  H   H606      1.0  0.30824  0.76394  0.30750  1.0000
  C   C490      1.0  0.98866  0.58553  0.46153  1.0000
  H   H607      1.0  0.40601  0.82623  0.43024  1.0000
  H   H608      1.0  0.19765  0.72985  0.33776  1.0000
  Fe  Fe71      1.0  0.08451  0.58235  0.48072  1.0000
  H   H609      1.0  0.38382  0.84814  0.39258  1.0000
  C   C491      1.0  0.99967  0.62373  0.48517  1.0000
  H   H610      1.0  0.35311  0.93927  0.47258  1.0000
  H   H611      1.0  0.40418  0.82364  0.39869  1.0000
  H   H612      1.0  0.11244  0.64802  0.41223  1.0000
  H   H613      1.0  0.26774  0.72186  0.29664  1.0000
  H   H614      1.0  0.25287  0.75476  0.39501  1.0000
  H   H615      1.0  0.45408  0.87684  0.39132  1.0000
  H   H616      1.0  0.01364  0.55924  0.41062  1.0000
  H   H617      1.0  0.01415  0.52046  0.46419  1.0000
  C   C492      1.0  0.42219  0.88815  0.44917  1.0000
  S   S137      1.0  0.36831  0.81668  0.46416  1.0000
  H   H618      1.0  0.04229  0.58290  0.44407  1.0000
  Fe  Fe72      1.0  0.09730  0.61562  0.25654  1.0000
  C   C493      1.0  0.25598  0.75536  0.37610  1.0000
  H   H619      1.0  0.08137  0.94942  0.47429  1.0000
  S   S138      1.0  0.11946  0.57901  0.48895  1.0000
  H   H620      1.0  0.17631  0.70102  0.30349  1.0000
  C   C494      1.0  0.11999  0.65608  0.39442  1.0000
  C   C495      1.0  0.15653  0.67445  0.36796  1.0000
  H   H621      1.0  0.18595  0.71404  0.37780  1.0000
  H   H622      1.0  0.18297  0.68882  0.41098  1.0000
  H   H623      1.0  0.14273  0.65540  0.30996  1.0000
  C   C496      1.0  0.98125  0.56149  0.42441  1.0000
  H   H624      1.0  0.00420  0.63535  0.46873  1.0000
  C   C497      1.0  0.16204  0.68268  0.41118  1.0000
  H   H625      1.0  0.40324  0.88570  0.44645  1.0000
  C   C498      1.0  0.02268  0.57950  0.44369  1.0000
  C   C499      1.0  0.15065  0.64111  0.39577  1.0000
  S   S139      1.0  0.31110  0.82333  0.48870  1.0000
  C   C500      1.0  0.07645  0.96531  0.44190  1.0000
  H   H626      1.0  0.01805  0.62622  0.49229  1.0000
  C   C501      1.0  0.17112  0.69368  0.32133  1.0000
  H   H627      1.0  0.12987  0.63869  0.34970  1.0000
  C   C502      1.0  0.99397  0.50691  0.46737  1.0000
  C   C503      1.0  0.14495  0.65858  0.34787  1.0000
  H   H628      1.0  0.36669  0.85427  0.49468  1.0000
  H   H629      1.0  0.30384  0.77310  0.27837  1.0000
  H   H630      1.0  0.43842  0.89569  0.38996  1.0000
  C   C504      1.0  0.41602  0.83609  0.41364  1.0000
  H   H631      1.0  0.23822  0.76377  0.29157  1.0000
  H   H632      1.0  0.42500  0.86537  0.37459  1.0000
  H   H633      1.0  0.14515  0.63341  0.41401  1.0000
  H   H634      1.0  0.38867  0.53356  0.47709  1.0000
  C   C505      1.0  0.43289  0.87722  0.43380  1.0000
  H   H635      1.0  0.23631  0.71416  0.37226  1.0000
  N   N37       1.0  0.41938  0.86236  0.41232  1.0000
  S   S140      1.0  0.31627  0.82652  0.25698  1.0000
  H   H636      1.0  0.38022  0.84847  0.42370  1.0000
  H   H637      1.0  0.43466  0.83630  0.41324  1.0000
  C   C506      1.0  0.24669  0.73256  0.36324  1.0000
  H   H638      1.0  0.27693  0.79681  0.37478  1.0000
  C   C507      1.0  0.97938  0.51654  0.47777  1.0000
  C   C508      1.0  0.18305  0.70984  0.34064  1.0000
  N   N38       1.0  0.27042  0.75891  0.30108  1.0000
  C   C509      1.0  0.25952  0.77340  0.28913  1.0000
  C   C510      1.0  0.29876  0.77283  0.29732  1.0000
  C   C511      1.0  0.25950  0.73340  0.28923  1.0000
  C   C512      1.0  0.26494  0.75722  0.32671  1.0000
  C   C513      1.0  0.27413  0.78004  0.34042  1.0000
  C   C514      1.0  0.25094  0.73331  0.33888  1.0000
  C   C515      1.0  0.26958  0.77904  0.36469  1.0000
  H   H639      1.0  0.42853  0.95398  0.49413  1.0000
  H   H640      1.0  0.44872  0.50454  0.49837  1.0000
  C   C516      1.0  0.97229  0.57092  0.44247  1.0000
  C   C517      1.0  0.37122  0.97348  0.49485  1.0000
  H   H641      1.0  0.99668  0.93610  0.49336  1.0000
  C   C518      1.0  0.07880  0.47978  0.48710  1.0000
  H   H642      1.0  0.08071  0.62837  0.49684  1.0000
  H   H643      1.0  0.99318  0.63274  0.49867  1.0000
  H   H644      1.0  0.96863  0.55075  0.40981  1.0000
  C   C519      1.0  0.98282  0.48044  0.46120  1.0000
  C   C520      1.0  0.45960  0.90513  0.47493  1.0000
  C   C521      1.0  0.43552  0.90198  0.46931  1.0000
  H   H645      1.0  0.99306  0.48217  0.41513  1.0000
  H   H646      1.0  0.46703  0.87338  0.42909  1.0000
  Fe  Fe73      1.0  0.00929  0.85453  0.55530  1.0000
  H   H647      1.0  0.02403  0.68968  0.69806  1.0000
  S   S141      1.0  0.01278  0.81938  0.54414  1.0000
  Fe  Fe74      1.0  0.02716  0.91373  0.54737  1.0000
  S   S142      1.0  0.00104  0.91237  0.57677  1.0000
  S   S143      1.0  0.04335  0.94803  0.52067  1.0000
  Fe  Fe75      1.0  0.01399  0.88854  0.59715  1.0000
  S   S144      1.0  0.02464  0.89203  0.63613  1.0000
  H   H648      1.0  0.03267  0.85388  0.61387  1.0000
  H   H649      1.0  0.35907  0.48916  0.60285  1.0000
  S   S145      1.0  0.04251  0.89222  0.56906  1.0000
  S   S146      1.0  0.99653  0.87598  0.53111  1.0000
  S   S147      1.0  0.03303  0.64416  0.72204  1.0000
  Fe  Fe76      1.0  0.44175  0.60394  0.53992  1.0000
  C   C522      1.0  0.45117  0.75844  0.66949  1.0000
  S   S148      1.0  0.41713  0.56929  0.51477  1.0000
  N   N39       1.0  0.26505  0.82126  0.54262  1.0000
  C   C523      1.0  0.45784  0.86151  0.66262  1.0000
  H   H650      1.0  0.09567  0.50583  0.51637  1.0000
  C   C524      1.0  0.38649  0.48116  0.50356  1.0000
  C   C525      1.0  0.34872  0.92883  0.50927  1.0000
  H   H651      1.0  0.25023  0.84750  0.53936  1.0000
  S   S149      1.0  0.44333  0.61031  0.62847  1.0000
  C   C526      1.0  0.97668  0.58132  0.50259  1.0000
  S   S150      1.0  0.42704  0.62280  0.56551  1.0000
  S   S151      1.0  0.44056  0.84570  0.70782  1.0000
  C   C527      1.0  0.04411  0.63894  0.53638  1.0000
  C   C528      1.0  0.05225  0.59952  0.51982  1.0000
  C   C529      1.0  0.03458  0.59461  0.53794  1.0000
  C   C530      1.0  0.03051  0.61429  0.54618  1.0000
  H   H652      1.0  0.02358  0.57541  0.54526  1.0000
  H   H653      1.0  0.01694  0.61037  0.56018  1.0000
  C   C531      1.0  0.00995  0.63427  0.69884  1.0000
  C   C532      1.0  0.98357  0.61784  0.70298  1.0000
  C   C533      1.0  0.25077  0.80752  0.52093  1.0000
  H   H654      1.0  0.45530  0.80635  0.60816  1.0000
  C   C534      1.0  0.00019  0.63663  0.65721  1.0000
  C   C535      1.0  0.01816  0.64355  0.67586  1.0000
  H   H655      1.0  0.97725  0.80532  0.61511  1.0000
  H   H656      1.0  0.43838  0.60152  0.67852  1.0000
  H   H657      1.0  0.00678  0.64383  0.63959  1.0000
  H   H658      1.0  0.03853  0.65616  0.67241  1.0000
  H   H659      1.0  0.43014  0.92842  0.52883  1.0000
  C   C536      1.0  0.41176  0.52105  0.52700  1.0000
  C   C537      1.0  0.45279  0.77473  0.68781  1.0000
  H   H660      1.0  0.23035  0.80864  0.56299  1.0000
  H   H661      1.0  0.34435  0.50249  0.51928  1.0000
  H   H662      1.0  0.42297  0.53036  0.54261  1.0000
  H   H663      1.0  0.41040  0.56078  0.56417  1.0000
  H   H664      1.0  0.46702  0.81399  0.69865  1.0000
  N   N40       1.0  0.00418  0.70136  0.72247  1.0000
  Fe  Fe77      1.0  0.45916  0.66228  0.55377  1.0000
  H   H665      1.0  0.01650  0.81639  0.66863  1.0000
  C   C538      1.0  0.99398  0.77003  0.64359  1.0000
  C   C539      1.0  0.36872  0.96604  0.53676  1.0000
  C   C540      1.0  0.01506  0.75723  0.60567  1.0000
  H   H666      1.0  0.36846  0.54015  0.54427  1.0000
  C   C541      1.0  0.35457  0.93901  0.53243  1.0000
  H   H667      1.0  0.01996  0.77673  0.53184  1.0000
  C   C542      1.0  0.40131  0.49411  0.52373  1.0000
  C   C543      1.0  0.00550  0.74088  0.74091  1.0000
  H   H668      1.0  0.02035  0.82736  0.59382  1.0000
  H   H669      1.0  0.38354  0.57768  0.60112  1.0000
  H   H670      1.0  0.23244  0.80782  0.51870  1.0000
  S   S152      1.0  0.44411  0.88942  0.54341  1.0000
  C   C544      1.0  0.99016  0.74256  0.54914  1.0000
  C   C545      1.0  0.26885  0.84775  0.54151  1.0000
  H   H671      1.0  0.99162  0.83513  0.63122  1.0000
  S   S153      1.0  0.45348  0.69759  0.54785  1.0000
  H   H672      1.0  0.46105  0.78342  0.53924  1.0000
  H   H673      1.0  0.28104  0.85860  0.52611  1.0000
  C   C546      1.0  0.00083  0.87778  0.65849  1.0000
  C   C547      1.0  0.00863  0.87747  0.68185  1.0000
  C   C548      1.0  0.99026  0.86586  0.69998  1.0000
  C   C549      1.0  0.43138  0.94370  0.54085  1.0000
  H   H674      1.0  0.31171  0.77781  0.54396  1.0000
  H   H675      1.0  0.03272  0.79621  0.59516  1.0000
  H   H676      1.0  0.02900  0.88634  0.68598  1.0000
  H   H677      1.0  0.99656  0.86592  0.71790  1.0000
  H   H678      1.0  0.43759  0.85097  0.65777  1.0000
  C   C550      1.0  0.06687  0.62447  0.51073  1.0000
  C   C551      1.0  0.06286  0.64425  0.51912  1.0000
  S   S154      1.0  0.98216  0.85045  0.58414  1.0000
  N   N41       1.0  0.44285  0.96914  0.52883  1.0000
  H   H679      1.0  0.97746  0.80563  0.64685  1.0000
  H   H680      1.0  0.99755  0.95361  0.53293  1.0000
  H   H681      1.0  0.37542  0.56923  0.57117  1.0000
  S   S155      1.0  0.98941  0.66627  0.59014  1.0000
  H   H682      1.0  0.03194  0.84763  0.65553  1.0000
  H   H683      1.0  0.24315  0.78739  0.56415  1.0000
  H   H684      1.0  0.44018  0.73770  0.67194  1.0000
  H   H685      1.0  0.35169  0.55170  0.59350  1.0000
  H   H686      1.0  0.27811  0.85897  0.55784  1.0000
  C   C552      1.0  0.99640  0.75829  0.74208  1.0000
  H   H687      1.0  0.44274  0.94450  0.55675  1.0000
  H   H688      1.0  0.98739  0.66015  0.72547  1.0000
  H   H689      1.0  0.02891  0.68954  0.73969  1.0000
  S   S156      1.0  0.03638  0.66259  0.54411  1.0000
  Fe  Fe78      1.0  0.45649  0.62362  0.59096  1.0000
  S   S157      1.0  0.33029  0.89421  0.50510  1.0000
  H   H690      1.0  0.26251  0.81651  0.50486  1.0000
  H   H691      1.0  0.04681  0.82799  0.65367  1.0000
  C   C553      1.0  0.97381  0.62015  0.66136  1.0000
  H   H692      1.0  0.97094  0.58919  0.51774  1.0000
  C   C554      1.0  0.02992  0.83422  0.61129  1.0000
  C   C555      1.0  0.02062  0.78271  0.60853  1.0000
  C   C556      1.0  0.42806  0.85078  0.51024  1.0000
  C   C557      1.0  0.99571  0.72071  0.72384  1.0000
  C   C558      1.0  0.02795  0.82745  0.65307  1.0000
  H   H693      1.0  0.37273  0.97323  0.55468  1.0000
  H   H694      1.0  0.44527  0.84999  0.51444  1.0000
  C   C559      1.0  0.28955  0.82083  0.54455  1.0000
  C   C560      1.0  0.02313  0.70453  0.74108  1.0000
  N   N42       1.0  0.01427  0.81630  0.63049  1.0000
  C   C561      1.0  0.45813  0.74607  0.54401  1.0000
  H   H695      1.0  0.98540  0.77408  0.65853  1.0000
  H   H696      1.0  0.39112  0.52441  0.62002  1.0000
  H   H697      1.0  0.43798  0.73540  0.53883  1.0000
  H   H698      1.0  0.99643  0.72997  0.54174  1.0000
  C   C562      1.0  0.97442  0.86627  0.65340  1.0000
  H   H699      1.0  0.41620  0.54063  0.58358  1.0000
  C   C563      1.0  0.35601  0.49317  0.58496  1.0000
  H   H700      1.0  0.24527  0.78684  0.52071  1.0000
  C   C564      1.0  0.31408  0.84362  0.54713  1.0000
  C   C565      1.0  0.28934  0.79700  0.54413  1.0000
  C   C566      1.0  0.33686  0.84252  0.54822  1.0000
  C   C567      1.0  0.31228  0.79616  0.54515  1.0000
  C   C568      1.0  0.33601  0.81890  0.54699  1.0000
  H   H701      1.0  0.07363  0.66342  0.51167  1.0000
  Fe  Fe79      1.0  0.99668  0.64697  0.55947  1.0000
  H   H702      1.0  0.04819  0.53126  0.53571  1.0000
  H   H703      1.0  0.46229  0.66496  0.64178  1.0000
  H   H704      1.0  0.40573  0.95648  0.51267  1.0000
  C   C569      1.0  0.00921  0.50217  0.52697  1.0000
  C   C570      1.0  0.42273  0.86798  0.52224  1.0000
  H   H705      1.0  0.03286  0.72308  0.69619  1.0000
  C   C571      1.0  0.45879  0.61258  0.67456  1.0000
  H   H706      1.0  0.31639  0.86268  0.54766  1.0000
  C   C572      1.0  0.36073  0.52139  0.55242  1.0000
  H   H707      1.0  0.35537  0.86020  0.54944  1.0000
  C   C573      1.0  0.01641  0.70323  0.69926  1.0000
  H   H708      1.0  0.35383  0.81829  0.54713  1.0000
  N   N43       1.0  0.38167  0.54190  0.59118  1.0000
  C   C574      1.0  0.37258  0.56080  0.58913  1.0000
  C   C575      1.0  0.38175  0.53614  0.61669  1.0000
  C   C576      1.0  0.40865  0.55421  0.58276  1.0000
  C   C577      1.0  0.36556  0.51875  0.57651  1.0000
  H   H709      1.0  0.27148  0.77882  0.54241  1.0000
  C   C578      1.0  0.00992  0.78983  0.62749  1.0000
  H   H710      1.0  0.44315  0.76679  0.70445  1.0000
  C   C579      1.0  0.97946  0.94372  0.52322  1.0000
  H   H711      1.0  0.39624  0.88221  0.52596  1.0000
  C   C580      1.0  0.98822  0.74452  0.64030  1.0000
  C   C581      1.0  0.24869  0.80810  0.56337  1.0000
  H   H712      1.0  0.04964  0.83678  0.61046  1.0000
  H   H713      1.0  0.25905  0.81737  0.58008  1.0000
  H   H714      1.0  0.02281  0.75206  0.59069  1.0000
  H   H715      1.0  0.42170  0.57142  0.59355  1.0000
  H   H716      1.0  0.00450  0.51619  0.52006  1.0000
  C   C582      1.0  0.98905  0.81542  0.63094  1.0000
  H   H717      1.0  0.34800  0.92585  0.54722  1.0000
  C   C583      1.0  0.99546  0.78598  0.55247  1.0000
  H   H718      1.0  0.41126  0.93693  0.54686  1.0000
  C   C584      1.0  0.04037  0.49325  0.54499  1.0000
  H   H719      1.0  0.39318  0.55415  0.62727  1.0000
  H   H720      1.0  0.36179  0.52594  0.62394  1.0000
  C   C585      1.0  0.03392  0.51084  0.53590  1.0000
  C   C586      1.0  0.08422  0.48583  0.51108  1.0000
  H   H721      1.0  0.00260  0.69822  0.68432  1.0000
  H   H722      1.0  0.46463  0.70669  0.72323  1.0000
  C   C587      1.0  0.46305  0.76876  0.64784  1.0000
  H   H723      1.0  0.99349  0.71821  0.61823  1.0000
  C   C588      1.0  0.00345  0.76917  0.54347  1.0000
  H   H724      1.0  0.04125  0.72352  0.73974  1.0000
  C   C589      1.0  0.34711  0.49988  0.53779  1.0000
  C   C590      1.0  0.42653  0.96606  0.50795  1.0000
  C   C591      1.0  0.99858  0.73811  0.62126  1.0000
  C   C592      1.0  0.40697  0.53561  0.51048  1.0000
  C   C593      1.0  0.40041  0.86892  0.51676  1.0000
  H   H725      1.0  0.05973  0.50011  0.55173  1.0000
  H   H726      1.0  0.99479  0.58170  0.50775  1.0000
  S   S158      1.0  0.05360  0.57348  0.50753  1.0000
  Fe  Fe80      1.0  0.97168  0.87432  0.56130  1.0000
  H   H727      1.0  0.45635  0.77775  0.60064  1.0000
  H   H728      1.0  0.46296  0.67594  0.72086  1.0000
  H   H729      1.0  0.40455  0.48312  0.53707  1.0000
  Fe  Fe81      1.0  0.44995  0.84686  0.74686  1.0000
  C   C594      1.0  0.97406  0.77574  0.56754  1.0000
  H   H730      1.0  0.97694  0.61037  0.72052  1.0000
  S   S159      1.0  0.97064  0.60640  0.57228  1.0000
  C   C595      1.0  0.98149  0.67503  0.72496  1.0000
  H   H731      1.0  0.97522  0.72952  0.65224  1.0000
  C   C596      1.0  0.46496  0.86251  0.68642  1.0000
  H   H732      1.0  0.46052  0.75537  0.63390  1.0000
  C   C597      1.0  0.97677  0.71950  0.70787  1.0000
  C   C598      1.0  0.46683  0.61948  0.65110  1.0000
  H   H733      1.0  0.96855  0.70477  0.69437  1.0000
  C   C599      1.0  0.46635  0.80135  0.68456  1.0000
  C   C600      1.0  0.97730  0.75609  0.72660  1.0000
  H   H734      1.0  0.97075  0.67331  0.74150  1.0000
  C   C601      1.0  0.97903  0.93388  0.50087  1.0000
  H   H735      1.0  0.11591  0.63405  0.73503  1.0000
  H   H736      1.0  0.11110  0.66084  0.73755  1.0000
  H   H737      1.0  0.96972  0.76912  0.72830  1.0000
  C   C602      1.0  0.11879  0.64985  0.74716  1.0000
  C   C603      1.0  0.96848  0.73224  0.56385  1.0000
  H   H738      1.0  0.96813  0.86642  0.63551  1.0000
  H   H739      1.0  0.13998  0.66286  0.74959  1.0000
  C   C604      1.0  0.45989  0.49510  0.50122  1.0000
  Fe  Fe82      1.0  0.33282  0.93889  0.87686  1.0000
  S   S160      1.0  0.36119  0.96513  0.90411  1.0000
  S   S161      1.0  0.34058  0.91269  0.85186  1.0000
  H   H740      1.0  0.17165  0.95198  0.92619  1.0000
  H   H741      1.0  0.15000  0.96345  0.89766  1.0000
  C   C605      1.0  0.26111  0.50368  0.97254  1.0000
  C   C606      1.0  0.11752  0.62703  0.78311  1.0000
  S   S162      1.0  0.39864  0.53443  0.88894  1.0000
  H   H742      1.0  0.09634  0.65643  0.79997  1.0000
  S   S163      1.0  0.32746  0.94143  0.96562  1.0000
  H   H743      1.0  0.18723  0.50747  0.96806  1.0000
  S   S164      1.0  0.29830  0.92522  0.90124  1.0000
  H   H744      1.0  0.34948  0.57396  0.83208  1.0000
  S   S165      1.0  0.00214  0.62926  0.82629  1.0000
  N   N44       1.0  0.10575  0.64014  0.77022  1.0000
  S   S166      1.0  0.46365  0.88238  0.76924  1.0000
  S   S167      1.0  0.04682  0.66182  0.78822  1.0000
  Fe  Fe83      1.0  0.03481  0.62569  0.80995  1.0000
  S   S168      1.0  0.06176  0.61777  0.83403  1.0000
  Fe  Fe84      1.0  0.01181  0.66277  0.80177  1.0000
  S   S169      1.0  0.01461  0.70153  0.81144  1.0000
  S   S170      1.0  0.01050  0.59944  0.78049  1.0000
  H   H745      1.0  0.28881  0.51248  0.84604  1.0000
  Fe  Fe85      1.0  0.16981  0.50999  0.89286  1.0000
  C   C607      1.0  0.37853  0.85047  0.88520  1.0000
  S   S171      1.0  0.21182  0.51739  0.89052  1.0000
  Fe  Fe86      1.0  0.12925  0.52910  0.88251  1.0000
  S   S172      1.0  0.10467  0.50548  0.91304  1.0000
  S   S173      1.0  0.11093  0.54468  0.85500  1.0000
  Fe  Fe87      1.0  0.14123  0.51792  0.93361  1.0000
  S   S174      1.0  0.15143  0.53167  0.97169  1.0000
  H   H746      1.0  0.37029  0.56581  0.84882  1.0000
  H   H747      1.0  0.44287  0.60190  0.83021  1.0000
  S   S175      1.0  0.16609  0.54430  0.90442  1.0000
  S   S176      1.0  0.13551  0.49719  0.86812  1.0000
  C   C608      1.0  0.30482  0.53289  0.84523  1.0000
  S   S177      1.0  0.42078  0.82063  0.77402  1.0000
  H   H748      1.0  0.43509  0.72204  0.80799  1.0000
  C   C609      1.0  0.02489  0.49679  0.85581  1.0000
  S   S178      1.0  0.03307  0.89221  0.79668  1.0000
  C   C610      1.0  0.13348  0.94626  0.88927  1.0000
  C   C611      1.0  0.99272  0.55711  0.84273  1.0000
  Fe  Fe88      1.0  0.43677  0.85633  0.79758  1.0000
  S   S179      1.0  0.42192  0.87527  0.82490  1.0000
  H   H749      1.0  0.35126  0.52229  0.86769  1.0000
  H   H750      1.0  0.20885  0.94563  0.92802  1.0000
  C   C612      1.0  0.05754  0.92712  0.87003  1.0000
  C   C613      1.0  0.07445  0.93757  0.85099  1.0000
  C   C614      1.0  0.06701  0.92622  0.82863  1.0000
  C   C615      1.0  0.04253  0.90457  0.82521  1.0000
  C   C616      1.0  0.02581  0.89374  0.84434  1.0000
  C   C617      1.0  0.03344  0.90487  0.86681  1.0000
  H   H751      1.0  0.09331  0.95422  0.85345  1.0000
  H   H752      1.0  0.08012  0.93429  0.81389  1.0000
  H   H753      1.0  0.00693  0.87701  0.84182  1.0000
  H   H754      1.0  0.02040  0.89657  0.88158  1.0000
  H   H755      1.0  0.36783  0.55567  0.80925  1.0000
  H   H756      1.0  0.02522  0.57593  0.86632  1.0000
  N   N45       1.0  0.22523  0.54068  0.96445  1.0000
  C   C618      1.0  0.99715  0.71774  0.80394  1.0000
  H   H757      1.0  0.06769  0.61343  0.78282  1.0000
  C   C619      1.0  0.12984  0.59357  0.78423  1.0000
  Fe  Fe89      1.0  0.36780  0.49278  0.89126  1.0000
  H   H758      1.0  0.97060  0.68812  0.84354  1.0000
  C   C620      1.0  0.00664  0.74329  0.81177  1.0000
  H   H759      1.0  0.42806  0.95630  0.83064  1.0000
  H   H760      1.0  0.13958  0.94456  0.87114  1.0000
  C   C621      1.0  0.12714  0.63371  0.80658  1.0000
  H   H761      1.0  0.02465  0.75293  0.82150  1.0000
  C   C622      1.0  0.07367  0.59590  0.84008  1.0000
  C   C623      1.0  0.07035  0.57626  0.82449  1.0000
  C   C624      1.0  0.08153  0.56072  0.82952  1.0000
  C   C625      1.0  0.09583  0.56401  0.85044  1.0000
  C   C626      1.0  0.09834  0.58303  0.86638  1.0000
  C   C627      1.0  0.08760  0.59891  0.86113  1.0000
  H   H762      1.0  0.05981  0.57347  0.80821  1.0000
  H   H763      1.0  0.07946  0.54628  0.81687  1.0000
  H   H764      1.0  0.10921  0.58607  0.88252  1.0000
  H   H765      1.0  0.09039  0.61389  0.87347  1.0000
  H   H766      1.0  0.01381  0.49347  0.83916  1.0000
  S   S180      1.0  0.33512  0.48312  0.91615  1.0000
  C   C628      1.0  0.25334  0.50910  0.89493  1.0000
  S   S181      1.0  0.06641  0.94125  0.89805  1.0000
  H   H767      1.0  0.44186  0.96730  0.80200  1.0000
  H   H768      1.0  0.20526  0.54376  0.99490  1.0000
  H   H769      1.0  0.08567  0.90461  0.89114  1.0000
  H   H770      1.0  0.26355  0.52861  0.90170  1.0000
  Fe  Fe90      1.0  0.99224  0.85928  0.79310  1.0000
  C   C629      1.0  0.97377  0.70567  0.79140  1.0000
  C   C630      1.0  0.36433  0.90381  0.84404  1.0000
  C   C631      1.0  0.35980  0.88770  0.82430  1.0000
  C   C632      1.0  0.37736  0.87941  0.81777  1.0000
  C   C633      1.0  0.39981  0.88676  0.83108  1.0000
  C   C634      1.0  0.40456  0.90325  0.85061  1.0000
  C   C635      1.0  0.38718  0.91186  0.85694  1.0000
  H   H771      1.0  0.34234  0.88129  0.81403  1.0000
  H   H772      1.0  0.37319  0.86677  0.80273  1.0000
  H   H773      1.0  0.42170  0.90909  0.86120  1.0000
  H   H774      1.0  0.39122  0.92419  0.87214  1.0000
  C   C636      1.0  0.40853  0.54552  0.86024  1.0000
  C   C637      1.0  0.40178  0.52821  0.84144  1.0000
  C   C638      1.0  0.40969  0.53751  0.81854  1.0000
  C   C639      1.0  0.42475  0.56407  0.81451  1.0000
  C   C640      1.0  0.43174  0.58135  0.83335  1.0000
  C   C641      1.0  0.42351  0.57207  0.85620  1.0000
  H   H775      1.0  0.39049  0.50770  0.84448  1.0000
  H   H776      1.0  0.40401  0.52418  0.80390  1.0000
  H   H777      1.0  0.19050  0.52866  0.94440  1.0000
  H   H778      1.0  0.42851  0.58553  0.87071  1.0000
  H   H779      1.0  0.34692  0.84260  0.86213  1.0000
  S   S182      1.0  0.14545  0.48440  0.92239  1.0000
  Fe  Fe91      1.0  0.29380  0.95881  0.88893  1.0000
  N   N46       1.0  0.35120  0.89042  0.92961  1.0000
  C   C642      1.0  0.37217  0.91772  0.93178  1.0000
  C   C643      1.0  0.32799  0.89049  0.92038  1.0000
  C   C644      1.0  0.34481  0.87880  0.95351  1.0000
  C   C645      1.0  0.35987  0.87608  0.91442  1.0000
  C   C646      1.0  0.38212  0.87463  0.92064  1.0000
  C   C647      1.0  0.34710  0.86372  0.89304  1.0000
  H   H780      1.0  0.40871  0.86177  0.91091  1.0000
  H   H781      1.0  0.20865  0.90970  0.90676  1.0000
  C   C648      1.0  0.13936  0.60080  0.80709  1.0000
  H   H782      1.0  0.37837  0.92677  0.91407  1.0000
  H   H783      1.0  0.36587  0.92944  0.94213  1.0000
  H   H784      1.0  0.38952  0.91976  0.94094  1.0000
  H   H785      1.0  0.33176  0.89993  0.90277  1.0000
  H   H786      1.0  0.32194  0.90137  0.93221  1.0000
  H   H787      1.0  0.31110  0.87061  0.91890  1.0000
  H   H788      1.0  0.36183  0.88002  0.96266  1.0000
  H   H789      1.0  0.33757  0.88886  0.96513  1.0000
  H   H790      1.0  0.32956  0.85807  0.95260  1.0000
  H   H791      1.0  0.39286  0.88357  0.93659  1.0000
  H   H792      1.0  0.33040  0.86420  0.88641  1.0000
  H   H793      1.0  0.06822  0.63074  0.75663  1.0000
  C   C649      1.0  0.33277  0.52241  0.86743  1.0000
  C   C650      1.0  0.24737  0.51445  0.96234  1.0000
  C   C651      1.0  0.33864  0.49631  0.78485  1.0000
  C   C652      1.0  0.23983  0.97479  0.88393  1.0000
  H   H794      1.0  0.30195  0.54286  0.86052  1.0000
  H   H795      1.0  0.11747  0.95049  0.88753  1.0000
  C   C653      1.0  0.22712  0.49815  0.88832  1.0000
  H   H796      1.0  0.43206  0.50770  0.79337  1.0000
  H   H797      1.0  0.01492  0.70263  0.75906  1.0000
  H   H798      1.0  0.03869  0.96777  0.77698  1.0000
  H   H799      1.0  0.00571  0.54193  0.89672  1.0000
  S   S183      1.0  0.32543  0.96968  0.86208  1.0000
  C   C654      1.0  0.39132  0.86211  0.90615  1.0000
  C   C655      1.0  0.01188  0.95068  0.86409  1.0000
  S   S184      1.0  0.43401  0.57532  0.78578  1.0000
  C   C656      1.0  0.21087  0.97268  0.98762  1.0000
  H   H800      1.0  0.24438  0.54759  0.93062  1.0000
  S   S185      1.0  0.46646  0.84704  0.81240  1.0000
  H   H801      1.0  0.02006  0.93935  0.80745  1.0000
  H   H802      1.0  0.33215  0.53241  0.88376  1.0000
  H   H803      1.0  0.14709  0.59037  0.81653  1.0000
  H   H804      1.0  0.28646  0.50377  0.89850  1.0000
  H   H805      1.0  0.12589  0.64832  0.81667  1.0000
  H   H806      1.0  0.06612  0.49546  0.83732  1.0000
  C   C657      1.0  0.37406  0.50963  0.99941  1.0000
  H   H807      1.0  0.39682  0.97202  0.78026  1.0000
  H   H808      1.0  0.05927  0.95609  0.78820  1.0000
  H   H809      1.0  0.31688  0.50208  0.86893  1.0000
  H   H810      1.0  0.11144  0.59972  0.75486  1.0000
  C   C658      1.0  0.11900  0.60638  0.77239  1.0000
  C   C659      1.0  0.04991  0.48518  0.88061  1.0000
  C   C660      1.0  0.10751  0.66253  0.78320  1.0000
  C   C661      1.0  0.45406  0.73108  0.80004  1.0000
  C   C662      1.0  0.02406  0.95065  0.82340  1.0000
  C   C663      1.0  0.20066  0.52020  0.95414  1.0000
  H   H811      1.0  0.97361  0.65430  0.86117  1.0000
  N   N47       1.0  0.33065  0.53510  0.84577  1.0000
  C   C664      1.0  0.35351  0.53544  0.80773  1.0000
  H   H812      1.0  0.20930  0.95353  0.85874  1.0000
  H   H813      1.0  0.46359  0.57904  0.88841  1.0000
  S   S186      1.0  0.44869  0.77452  0.79746  1.0000
  H   H814      1.0  0.20849  0.56469  0.97143  1.0000
  H   H815      1.0  0.04039  0.48698  0.89673  1.0000
  C   C665      1.0  0.21877  0.55603  0.98077  1.0000
  C   C666      1.0  0.00756  0.93826  0.84239  1.0000
  S   S187      1.0  0.25563  0.95674  0.87741  1.0000
  C   C667      1.0  0.35637  0.85108  0.87879  1.0000
  C   C668      1.0  0.36492  0.49055  0.98164  1.0000
  H   H816      1.0  0.04214  0.51653  0.85456  1.0000
  H   H817      1.0  0.10581  0.48037  0.97547  1.0000
  H   H818      1.0  0.00060  0.77608  0.81369  1.0000
  H   H819      1.0  0.00355  0.77311  0.75566  1.0000
  C   C669      1.0  0.31907  0.48277  0.80120  1.0000
  H   H820      1.0  0.38402  0.52980  0.99455  1.0000
  C   C670      1.0  0.13600  0.51091  0.99597  1.0000
  H   H821      1.0  0.96947  0.96398  0.85323  1.0000
  C   C671      1.0  0.45107  0.51272  0.79960  1.0000
  H   H822      1.0  0.38616  0.84151  0.87357  1.0000
  H   H823      1.0  0.26058  0.57311  0.95191  1.0000
  H   H824      1.0  0.30208  0.54140  0.82877  1.0000
  Fe  Fe92      1.0  0.97877  0.60454  0.79582  1.0000
  H   H825      1.0  0.12793  0.67717  0.78733  1.0000
  N   N48       1.0  0.12541  0.92238  0.90299  1.0000
  C   C672      1.0  0.11727  0.92560  0.92689  1.0000
  C   C673      1.0  0.13799  0.62079  0.81822  1.0000
  C   C674      1.0  0.10229  0.90109  0.89114  1.0000
  C   C675      1.0  0.14750  0.91780  0.90469  1.0000
  C   C676      1.0  0.14799  0.89715  0.89275  1.0000
  C   C677      1.0  0.17006  0.93514  0.91757  1.0000
  C   C678      1.0  0.16976  0.89422  0.89377  1.0000
  C   C679      1.0  0.19155  0.93181  0.91866  1.0000
  C   C680      1.0  0.19150  0.91154  0.90662  1.0000
  C   C681      1.0  0.31653  0.49546  0.82082  1.0000
  H   H826      1.0  0.16999  0.87866  0.88419  1.0000
  H   H827      1.0  0.11265  0.90869  0.93827  1.0000
  C   C682      1.0  0.99523  0.53998  0.88048  1.0000
  H   H828      1.0  0.34765  0.57204  0.86354  1.0000
  H   H829      1.0  0.06740  0.50444  0.87789  1.0000
  C   C683      1.0  0.21681  0.96874  0.87184  1.0000
  H   H830      1.0  0.09559  0.88234  0.90026  1.0000
  H   H831      1.0  0.10600  0.89912  0.87223  1.0000
  H   H832      1.0  0.13201  0.88324  0.88218  1.0000
  H   H833      1.0  0.36799  0.49615  0.96328  1.0000
  H   H834      1.0  0.13054  0.57767  0.77584  1.0000
  C   C684      1.0  0.35041  0.56295  0.84751  1.0000
  H   H835      1.0  0.23639  0.57225  0.98891  1.0000
  S   S188      1.0  0.98390  0.82994  0.76466  1.0000
  H   H836      1.0  0.34059  0.48643  0.76967  1.0000
  C   C685      1.0  0.99299  0.75652  0.80739  1.0000
  H   H837      1.0  0.00135  0.57234  0.82967  1.0000
  C   C686      1.0  0.11377  0.48679  0.99296  1.0000
  C   C687      1.0  0.39115  0.96973  0.82570  1.0000
  C   C688      1.0  0.23902  0.52882  0.97592  1.0000
  C   C689      1.0  0.07800  0.62153  0.76589  1.0000
  Fe  Fe93      1.0  0.45319  0.81401  0.78664  1.0000
  Fe  Fe94      1.0  0.32692  0.95346  0.92770  1.0000
  C   C690      1.0  0.26656  0.49509  0.89290  1.0000
  C   C691      1.0  0.33372  0.52220  0.82474  1.0000
  H   H838      1.0  0.13223  0.94323  0.93603  1.0000
  H   H839      1.0  0.01277  0.49701  0.87057  1.0000
  C   C692      1.0  0.24130  0.55815  0.94521  1.0000
  H   H840      1.0  0.23186  0.56814  0.93679  1.0000
  Fe  Fe95      1.0  0.01986  0.63535  0.76009  1.0000
  C   C693      1.0  0.00626  0.55918  0.86340  1.0000
  H   H841      1.0  0.14461  0.62572  0.83633  1.0000
  H   H842      1.0  0.09974  0.92764  0.92617  1.0000
  C   C694      1.0  0.97058  0.51860  0.87693  1.0000
  C   C695      1.0  0.45565  0.49622  0.81438  1.0000
  H   H843      1.0  0.37611  0.95240  0.81609  1.0000
  S   S189      1.0  0.98584  0.63792  0.77273  1.0000
  C   C696      1.0  0.33980  0.96516  0.98833  1.0000
  H   H844      1.0  0.39189  0.96306  0.84386  1.0000
  H   H845      1.0  0.45007  0.54500  0.88606  1.0000
  H   H846      1.0  0.42667  0.48719  0.85289  1.0000
  H   H847      1.0  0.37127  0.53310  0.77553  1.0000
  H   H848      1.0  0.09934  0.67253  0.77275  1.0000
  C   C697      1.0  0.46547  0.75697  0.79248  1.0000
  H   H849      1.0  0.07501  0.60499  0.75473  1.0000
  H   H850      1.0  0.24334  0.51146  0.94363  1.0000
  C   C698      1.0  0.35578  0.52258  0.78810  1.0000
  H   H851      1.0  0.26753  0.49303  0.96168  1.0000
  H   H852      1.0  0.40865  0.94291  0.80465  1.0000
  H   H853      1.0  0.20352  0.50793  0.94121  1.0000
  C   C699      1.0  0.96927  0.74426  0.79542  1.0000
  H   H854      1.0  0.46489  0.52169  0.90602  1.0000
  H   H855      1.0  0.45793  0.69712  0.80402  1.0000
  C   C700      1.0  0.04540  0.97622  0.82560  1.0000
  C   C701      1.0  0.26675  0.50669  0.99658  1.0000
  H   H856      1.0  0.99195  0.91844  0.84050  1.0000
  C   C702      1.0  0.05814  0.97380  0.78446  1.0000
  H   H857      1.0  0.22041  0.96136  0.98676  1.0000
  H   H858      1.0  0.18609  0.97743  0.86662  1.0000
  H   H859      1.0  0.01970  0.74333  0.75402  1.0000
  C   C703      1.0  0.42418  0.96117  0.81270  1.0000
  H   H860      1.0  0.30105  0.48404  0.83305  1.0000
  H   H861      1.0  0.99971  0.94056  0.87902  1.0000
  H   H862      1.0  0.08582  0.94906  0.99933  1.0000
  C   C704      1.0  0.03231  0.97585  0.86673  1.0000
  C   C705      1.0  0.46699  0.71679  0.79774  1.0000
  C   C706      1.0  0.96803  0.53584  0.83898  1.0000
  H   H863      1.0  0.46725  0.54897  0.78111  1.0000
  S   S190      1.0  0.82309  0.98769  0.09950  1.0000
  Fe  Fe96      1.0  0.85716  0.37356  0.23887  1.0000
  S   S191      1.0  0.85508  0.34790  0.20914  1.0000
  S   S192      1.0  0.84895  0.40623  0.23707  1.0000
  Fe  Fe97      1.0  0.83521  0.31545  0.23557  1.0000
  S   S193      1.0  0.79939  0.27456  0.23098  1.0000
  Fe  Fe98      1.0  0.89403  0.35517  0.22266  1.0000
  S   S194      1.0  0.92629  0.36720  0.19407  1.0000
  C   C707      1.0  0.87021  0.11147  0.13073  1.0000
  H   H864      1.0  0.66668  0.99602  0.18087  1.0000
  Fe  Fe99      1.0  0.86270  0.01900  0.08996  1.0000
  S   S195      1.0  0.86190  0.04716  0.11582  1.0000
  S   S196      1.0  0.87457  0.03013  0.05183  1.0000
  H   H865      1.0  0.56790  0.02906  0.19346  1.0000
  S   S197      1.0  0.84134  0.00243  0.15523  1.0000
  S   S198      1.0  0.82921  0.43755  0.13610  1.0000
  Fe  Fe100     1.0  0.82256  0.01442  0.12700  1.0000
  S   S199      1.0  0.78634  0.01936  0.12652  1.0000
  Fe  Fe101     1.0  0.88101  0.03277  0.14162  1.0000
  S   S200      1.0  0.91550  0.05728  0.16737  1.0000
  H   H866      1.0  0.68498  0.12084  0.20576  1.0000
  S   S201      1.0  0.88365  0.00648  0.11484  1.0000
  Fe  Fe102     1.0  0.63993  0.17989  0.22514  1.0000
  H   H867      1.0  0.73021  0.41965  0.17846  1.0000
  S   S202      1.0  0.67552  0.22094  0.22069  1.0000
  Fe  Fe103     1.0  0.58074  0.14084  0.21210  1.0000
  C   C708      1.0  0.87702  0.30848  0.17195  1.0000
  S   S203      1.0  0.54482  0.13327  0.18933  1.0000
  Fe  Fe104     1.0  0.61704  0.12178  0.22784  1.0000
  S   S204      1.0  0.62463  0.08861  0.22665  1.0000
  C   C709      1.0  0.91702  0.44095  0.21538  1.0000
  S   S205      1.0  0.61935  0.14782  0.19810  1.0000
  Fe  Fe105     1.0  0.62842  0.45657  0.12734  1.0000
  H   H868      1.0  0.72486  0.05716  0.16000  1.0000
  S   S206      1.0  0.66209  0.44823  0.13067  1.0000
  Fe  Fe106     1.0  0.57210  0.44613  0.13981  1.0000
  C   C710      1.0  0.93854  0.45955  0.17109  1.0000
  S   S207      1.0  0.53873  0.43387  0.16743  1.0000
  Fe  Fe107     1.0  0.59210  0.45470  0.08800  1.0000
  S   S208      1.0  0.58218  0.44403  0.04929  1.0000
  C   C711      1.0  0.61885  0.00916  0.01684  1.0000
  S   S209      1.0  0.61268  0.03569  0.12763  1.0000
  S   S210      1.0  0.58763  0.42610  0.11633  1.0000
  S   S211      1.0  0.57442  0.47266  0.11042  1.0000
  S   S212      1.0  0.63002  0.98527  0.10429  1.0000
  H   H869      1.0  0.92182  0.10605  0.14572  1.0000
  H   H870      1.0  0.96532  0.10209  0.10410  1.0000
  H   H871      1.0  0.73791  0.45247  0.18056  1.0000
  H   H872      1.0  0.73268  0.43379  0.20694  1.0000
  H   H873      1.0  0.49591  0.10685  0.05172  1.0000
  H   H874      1.0  0.62745  0.02948  0.02086  1.0000
  C   C712      1.0  0.62021  0.07351  0.19922  1.0000
  C   C713      1.0  0.62088  0.05051  0.19776  1.0000
  C   C714      1.0  0.61779  0.03833  0.17589  1.0000
  C   C715      1.0  0.61490  0.04956  0.15537  1.0000
  C   C716      1.0  0.61406  0.07244  0.15685  1.0000
  C   C717      1.0  0.61641  0.08425  0.17879  1.0000
  H   H875      1.0  0.62385  0.04218  0.21357  1.0000
  H   H876      1.0  0.61822  0.02064  0.17489  1.0000
  H   H877      1.0  0.61173  0.08115  0.14100  1.0000
  H   H878      1.0  0.61587  0.10194  0.17977  1.0000
  C   C718      1.0  0.75203  0.00124  0.13191  1.0000
  H   H879      1.0  0.54276  0.01382  0.21482  1.0000
  C   C719      1.0  0.96048  0.01364  0.18650  1.0000
  H   H880      1.0  0.67311  0.01053  0.14243  1.0000
  C   C720      1.0  0.76685  0.38248  0.20230  1.0000
  C   C721      1.0  0.73540  0.00689  0.11874  1.0000
  H   H881      1.0  0.77530  0.30711  0.17356  1.0000
  H   H882      1.0  0.70564  0.44226  0.11958  1.0000
  H   H883      1.0  0.52009  0.47237  0.18165  1.0000
  H   H884      1.0  0.74351  0.02136  0.10503  1.0000
  C   C722      1.0  0.52246  0.11488  0.07961  1.0000
  H   H885      1.0  0.71639  0.27412  0.22206  1.0000
  C   C723      1.0  0.49795  0.11628  0.16603  1.0000
  C   C724      1.0  0.51214  0.10925  0.18121  1.0000
  C   C725      1.0  0.49986  0.08364  0.18928  1.0000
  C   C726      1.0  0.85625  0.28620  0.18115  1.0000
  C   C727      1.0  0.94993  0.07114  0.17219  1.0000
  H   H886      1.0  0.50696  0.13590  0.15957  1.0000
  H   H887      1.0  0.51019  0.07766  0.20097  1.0000
  H   H888      1.0  0.90818  0.43338  0.23239  1.0000
  H   H889      1.0  0.85985  0.27357  0.19224  1.0000
  C   C728      1.0  0.86270  0.00536  0.03011  1.0000
  C   C729      1.0  0.77868  0.26569  0.16495  1.0000
  C   C730      1.0  0.92195  0.08562  0.08016  1.0000
  H   H890      1.0  0.53893  0.13290  0.23940  1.0000
  C   C731      1.0  0.86625  0.01197  0.00607  1.0000
  H   H891      1.0  0.91706  0.47541  0.13626  1.0000
  C   C732      1.0  0.76482  0.26034  0.23029  1.0000
  C   C733      1.0  0.75265  0.27494  0.22736  1.0000
  C   C734      1.0  0.72543  0.26257  0.22472  1.0000
  C   C735      1.0  0.70977  0.23542  0.22534  1.0000
  C   C736      1.0  0.72192  0.22087  0.22886  1.0000
  C   C737      1.0  0.74916  0.23322  0.23108  1.0000
  C   C738      1.0  0.68057  0.09793  0.17499  1.0000
  H   H892      1.0  0.88852  0.46561  0.15342  1.0000
  H   H893      1.0  0.71035  0.20003  0.22933  1.0000
  C   C739      1.0  0.96076  0.08226  0.19430  1.0000
  C   C740      1.0  0.50623  0.09011  0.11529  1.0000
  H   H894      1.0  0.53844  0.12991  0.06975  1.0000
  C   C741      1.0  0.48858  0.39148  0.15889  1.0000
  C   C742      1.0  0.50503  0.41173  0.17399  1.0000
  C   C743      1.0  0.49438  0.41470  0.19519  1.0000
  C   C744      1.0  0.69597  0.46864  0.13621  1.0000
  C   C745      1.0  0.49778  0.10142  0.06945  1.0000
  H   H895      1.0  0.49614  0.38871  0.14252  1.0000
  H   H896      1.0  0.50661  0.43010  0.20718  1.0000
  H   H897      1.0  0.69661  0.09525  0.23188  1.0000
  C   C746      1.0  0.84426  0.41490  0.20875  1.0000
  C   C747      1.0  0.83763  0.39788  0.18970  1.0000
  C   C748      1.0  0.83295  0.40495  0.16743  1.0000
  C   C749      1.0  0.83501  0.42908  0.16416  1.0000
  C   C750      1.0  0.84166  0.44605  0.18323  1.0000
  C   C751      1.0  0.84621  0.43896  0.20548  1.0000
  H   H898      1.0  0.83564  0.37915  0.19219  1.0000
  H   H899      1.0  0.82776  0.39174  0.15271  1.0000
  C   C752      1.0  0.71635  0.45269  0.02670  1.0000
  H   H900      1.0  0.85109  0.45204  0.22027  1.0000
  H   H901      1.0  0.79969  0.45375  0.16582  1.0000
  C   C753      1.0  0.61031  0.99105  0.03540  1.0000
  H   H902      1.0  0.89669  0.31316  0.17582  1.0000
  C   C754      1.0  0.77956  0.45009  0.16583  1.0000
  N   N49       1.0  0.93290  0.10770  0.09692  1.0000
  H   H903      1.0  0.55564  0.44807  0.21739  1.0000
  S   S213      1.0  0.57802  0.11329  0.24037  1.0000
  C   C755      1.0  0.88833  0.10927  0.14449  1.0000
  H   H904      1.0  0.95687  0.38219  0.15141  1.0000
  C   C756      1.0  0.79513  0.29767  0.13457  1.0000
  H   H905      1.0  0.94815  0.08174  0.20820  1.0000
  H   H906      1.0  0.75282  0.46894  0.12705  1.0000
  C   C757      1.0  0.71320  0.46046  0.12883  1.0000
  C   C758      1.0  0.82924  0.47571  0.03629  1.0000
  H   H907      1.0  0.87588  0.03209  0.00101  1.0000
  H   H908      1.0  0.78155  0.25144  0.15479  1.0000
  H   H909      1.0  0.88896  0.34322  0.15237  1.0000
  H   H910      1.0  0.71245  0.02341  0.16558  1.0000
  H   H911      1.0  0.89410  0.11299  0.07642  1.0000
  H   H912      1.0  0.65482  0.02628  0.14689  1.0000
  H   H913      1.0  0.77975  0.46682  0.15716  1.0000
  C   C759      1.0  0.78680  0.43082  0.22372  1.0000
  N   N50       1.0  0.76927  0.44617  0.19019  1.0000
  C   C760      1.0  0.47645  0.08185  0.08216  1.0000
  C   C761      1.0  0.52093  0.04191  0.15280  1.0000
  H   H914      1.0  0.79844  0.30727  0.19388  1.0000
  H   H915      1.0  0.85838  0.11438  0.09562  1.0000
  C   C762      1.0  0.68617  0.10464  0.19867  1.0000
  C   C763      1.0  0.46808  0.39786  0.20122  1.0000
  H   H916      1.0  0.77823  0.26126  0.18402  1.0000
  C   C764      1.0  0.74133  0.43761  0.18899  1.0000
  H   H917      1.0  0.77461  0.29185  0.13090  1.0000
  H   H918      1.0  0.67514  0.10907  0.16371  1.0000
  H   H919      1.0  0.56410  0.00150  0.20865  1.0000
  H   H920      1.0  0.56104  0.98051  0.16992  1.0000
  H   H921      1.0  0.50950  0.08619  0.13325  1.0000
  H   H922      1.0  0.93724  0.08371  0.07084  1.0000
  C   C765      1.0  0.77294  0.42623  0.20212  1.0000
  C   C766      1.0  0.58626  0.46074  0.00343  1.0000
  H   H923      1.0  0.90965  0.06704  0.08946  1.0000
  S   S214      1.0  0.60160  0.17561  0.23637  1.0000
  C   C767      1.0  0.52664  0.10932  0.10251  1.0000
  H   H924      1.0  0.79546  0.44914  0.23279  1.0000
  C   C768      1.0  0.94996  0.10388  0.11347  1.0000
  H   H925      1.0  0.84320  0.46456  0.18099  1.0000
  C   C769      1.0  0.68576  0.99667  0.01997  1.0000
  C   C770      1.0  0.92609  0.47132  0.18277  1.0000
  C   C771      1.0  0.52050  0.00486  0.17193  1.0000
  C   C772      1.0  0.53403  0.03010  0.16221  1.0000
  C   C773      1.0  0.56091  0.46406  0.22945  1.0000
  H   H926      1.0  0.72118  0.04549  0.18970  1.0000
  H   H927      1.0  0.76809  0.43316  0.15418  1.0000
  C   C774      1.0  0.48150  0.07653  0.10536  1.0000
  H   H928      1.0  0.95923  0.06318  0.13770  1.0000
  H   H929      1.0  0.76418  0.29576  0.22668  1.0000
  H   H930      1.0  0.93821  0.13474  0.06926  1.0000
  N   N51       1.0  0.79907  0.29261  0.15948  1.0000
  C   C775      1.0  0.94029  0.43927  0.18144  1.0000
  N   N52       1.0  0.53491  0.99297  0.18202  1.0000
  S   S215      1.0  0.87387  0.32011  0.24668  1.0000
  C   C776      1.0  0.90890  0.10831  0.13388  1.0000
  H   H931      1.0  0.94961  0.43026  0.17222  1.0000
  H   H932      1.0  0.95993  0.12025  0.12611  1.0000
  H   H933      1.0  0.80068  0.28686  0.12219  1.0000
  N   N53       1.0  0.68553  0.03668  0.17217  1.0000
  C   C777      1.0  0.83091  0.28055  0.17686  1.0000
  C   C778      1.0  0.66947  0.01459  0.18802  1.0000
  C   C779      1.0  0.67465  0.02906  0.14798  1.0000
  C   C780      1.0  0.68620  0.06036  0.18078  1.0000
  C   C781      1.0  0.69286  0.06841  0.20460  1.0000
  H   H934      1.0  0.75206  0.39643  0.17554  1.0000
  C   C782      1.0  0.69250  0.09003  0.21341  1.0000
  C   C783      1.0  0.59183  0.46817  0.02723  1.0000
  H   H935      1.0  0.80641  0.31847  0.12992  1.0000
  C   C784      1.0  0.87272  0.11301  0.10628  1.0000
  C   C785      1.0  0.78085  0.38774  0.22324  1.0000
  C   C786      1.0  0.82510  0.45814  0.01793  1.0000
  H   H936      1.0  0.64998  0.01223  0.19052  1.0000
  H   H937      1.0  0.84516  0.33457  0.14505  1.0000
  H   H938      1.0  0.48385  0.03790  0.14501  1.0000
  H   H939      1.0  0.93864  0.08577  0.12374  1.0000
  H   H940      1.0  0.68700  0.04355  0.13457  1.0000
  H   H941      1.0  0.67520  0.07172  0.14770  1.0000
  H   H942      1.0  0.69803  0.05782  0.21673  1.0000
  C   C787      1.0  0.71861  0.45037  0.00236  1.0000
  C   C788      1.0  0.78256  0.47166  0.20227  1.0000
  H   H943      1.0  0.73626  0.46472  0.06004  1.0000
  C   C789      1.0  0.48014  0.00379  0.16121  1.0000
  C   C790      1.0  0.71215  0.04090  0.17188  1.0000
  H   H944      1.0  0.82681  0.46943  0.05447  1.0000
  H   H945      1.0  0.55494  0.04093  0.16171  1.0000
  H   H946      1.0  0.53180  0.06136  0.14588  1.0000
  C   C791      1.0  0.54978  0.98932  0.16306  1.0000
  H   H947      1.0  0.75893  0.26216  0.16096  1.0000
  C   C792      1.0  0.92958  0.43004  0.20355  1.0000
  H   H948      1.0  0.54568  0.12006  0.11051  1.0000
  H   H949      1.0  0.61235  0.99750  0.05351  1.0000
  H   H950      1.0  0.88615  0.10768  0.16351  1.0000
  C   C793      1.0  0.91527  0.46130  0.20529  1.0000
  H   H951      1.0  0.47412  0.46671  0.14541  1.0000
  C   C794      1.0  0.70840  0.99394  0.12294  1.0000
  H   H952      1.0  0.81587  0.26338  0.18520  1.0000
  C   C795      1.0  0.84734  0.32007  0.15438  1.0000
  H   H953      1.0  0.67829  0.01667  0.20572  1.0000
  C   C796      1.0  0.94917  0.13184  0.08364  1.0000
  C   C797      1.0  0.79524  0.31027  0.17505  1.0000
  H   H954      1.0  0.81951  0.43840  0.02214  1.0000
  H   H955      1.0  0.92744  0.01222  0.16996  1.0000
  Fe  Fe108     1.0  0.60510  0.99495  0.12653  1.0000
  H   H956      1.0  0.56377  0.00774  0.15444  1.0000
  C   C798      1.0  0.82563  0.29727  0.16312  1.0000
  H   H957      1.0  0.80903  0.33090  0.17098  1.0000
  C   C799      1.0  0.68059  0.07618  0.16603  1.0000
  H   H958      1.0  0.63746  0.46506  0.03569  1.0000
  C   C800      1.0  0.76280  0.40133  0.19191  1.0000
  C   C801      1.0  0.96087  0.38417  0.18929  1.0000
  C   C802      1.0  0.49402  0.02876  0.15229  1.0000
  H   H959      1.0  0.75820  0.22158  0.23319  1.0000
  C   C803      1.0  0.89322  0.11210  0.09546  1.0000
  C   C804      1.0  0.48548  0.11331  0.23531  1.0000
  C   C805      1.0  0.87258  0.32537  0.15859  1.0000
  C   C806      1.0  0.67575  0.98990  0.04279  1.0000
  H   H960      1.0  0.90970  0.08714  0.06620  1.0000
  C   C807      1.0  0.79060  0.41175  0.23401  1.0000
  H   H961      1.0  0.93083  0.41423  0.21143  1.0000
  C   C808      1.0  0.74006  0.47556  0.13319  1.0000
  H   H962      1.0  0.96591  0.13178  0.07518  1.0000
  H   H963      1.0  0.94663  0.46563  0.15369  1.0000
  C   C809      1.0  0.49303  0.99190  0.17098  1.0000
  C   C810      1.0  0.96688  0.07203  0.15465  1.0000
  C   C811      1.0  0.47411  0.06565  0.18224  1.0000
  H   H964      1.0  0.69609  0.99837  0.11231  1.0000
  C   C812      1.0  0.74105  0.98267  0.14977  1.0000
  H   H965      1.0  0.50094  0.12883  0.22550  1.0000
  H   H966      1.0  0.75949  0.36383  0.19388  1.0000
  C   C813      1.0  0.93679  0.00131  0.17476  1.0000
  C   C814      1.0  0.91179  0.10936  0.10890  1.0000
  H   H967      1.0  0.85399  0.11162  0.13904  1.0000
  H   H968      1.0  0.90491  0.46843  0.21543  1.0000
  H   H969      1.0  0.77497  0.47052  0.22039  1.0000
  H   H970      1.0  0.95690  0.14896  0.09554  1.0000
  C   C815      1.0  0.55313  0.01004  0.20050  1.0000
  H   H971      1.0  0.49037  0.46570  0.21379  1.0000
  H   H972      1.0  0.70088  0.01636  0.01709  1.0000
  C   C816      1.0  0.47232  0.09826  0.15884  1.0000
  H   H973      1.0  0.68316  0.00412  0.05684  1.0000
  C   C817      1.0  0.73820  0.46345  0.04114  1.0000
  C   C818      1.0  0.85022  0.97924  0.03638  1.0000
  H   H974      1.0  0.69744  0.44583  0.03448  1.0000
  S   S216      1.0  0.61277  0.47410  0.15313  1.0000
  C   C819      1.0  0.76250  0.47222  0.03127  1.0000
  C   C820      1.0  0.76496  0.46996  0.00699  1.0000
  H   H975      1.0  0.78473  0.37345  0.23094  1.0000
  C   C821      1.0  0.67588  0.97861  0.00108  1.0000
  H   H976      1.0  0.80209  0.41589  0.24998  1.0000
  C   C822      1.0  0.65635  0.47685  0.02774  1.0000
  H   H977      1.0  0.75341  0.97867  0.16074  1.0000
  Fe  Fe109     1.0  0.87876  0.38533  0.46059  1.0000
  H   H978      1.0  0.90607  0.99505  0.48262  1.0000
  C   C823      1.0  0.56028  0.11290  0.49397  1.0000
  Fe  Fe110     1.0  0.84795  0.39565  0.42489  1.0000
  S   S217      1.0  0.82129  0.39643  0.45274  1.0000
  S   S218      1.0  0.84411  0.40019  0.38561  1.0000
  Fe  Fe111     1.0  0.85761  0.42038  0.47499  1.0000
  C   C824      1.0  0.48542  0.17339  0.46921  1.0000
  Fe  Fe112     1.0  0.82005  0.36003  0.46597  1.0000
  S   S219      1.0  0.78208  0.32311  0.47672  1.0000
  S   S220      1.0  0.88364  0.42198  0.44563  1.0000
  S   S221      1.0  0.84528  0.35896  0.43738  1.0000
  Fe  Fe113     1.0  0.87402  0.34760  0.27410  1.0000
  S   S222      1.0  0.88267  0.34633  0.31289  1.0000
  Fe  Fe114     1.0  0.63378  0.10909  0.47523  1.0000
  S   S223      1.0  0.60365  0.10678  0.44986  1.0000
  C   C825      1.0  0.50915  0.11722  0.45857  1.0000
  Fe  Fe115     1.0  0.67418  0.16674  0.45811  1.0000
  S   S224      1.0  0.64479  0.16657  0.43325  1.0000
  S   S225      1.0  0.71588  0.20123  0.45225  1.0000
  Fe  Fe116     1.0  0.61604  0.14701  0.46221  1.0000
  C   C826      1.0  0.67477  0.18888  0.33279  1.0000
  Fe  Fe117     1.0  0.63559  0.12665  0.42345  1.0000
  S   S226      1.0  0.63509  0.11505  0.38526  1.0000
  S   S227      1.0  0.83496  0.34112  0.26421  1.0000
  S   S228      1.0  0.66556  0.12654  0.44758  1.0000
  C   C827      1.0  0.82877  0.27432  0.43188  1.0000
  S   S229      1.0  0.58946  0.15075  0.30118  1.0000
  C   C828      1.0  0.62155  0.12455  0.36229  1.0000
  C   C829      1.0  0.62458  0.11898  0.33884  1.0000
  C   C830      1.0  0.61497  0.12705  0.31999  1.0000
  C   C831      1.0  0.60197  0.14054  0.32447  1.0000
  C   C832      1.0  0.59881  0.14602  0.34793  1.0000
  C   C833      1.0  0.60869  0.13819  0.36679  1.0000
  H   H979      1.0  0.63448  0.10842  0.33520  1.0000
  H   H980      1.0  0.61746  0.12262  0.30202  1.0000
  H   H981      1.0  0.58878  0.15645  0.35155  1.0000
  H   H982      1.0  0.60625  0.14259  0.38479  1.0000
  H   H983      1.0  0.65201  0.18826  0.30294  1.0000
  C   C834      1.0  0.68426  0.18969  0.38330  1.0000
  H   H984      1.0  0.65748  0.17620  0.34250  1.0000
  H   H985      1.0  0.88628  0.33659  0.40595  1.0000
  C   C835      1.0  0.76363  0.28946  0.46880  1.0000
  C   C836      1.0  0.77229  0.27793  0.45245  1.0000
  C   C837      1.0  0.75731  0.25114  0.44747  1.0000
  C   C838      1.0  0.73325  0.23533  0.45847  1.0000
  H   H986      1.0  0.78509  0.30769  0.30272  1.0000
  C   C839      1.0  0.91783  0.36702  0.48696  1.0000
  C   C840      1.0  0.49723  0.47361  0.44867  1.0000
  C   C841      1.0  0.48899  0.09178  0.45724  1.0000
  H   H987      1.0  0.80429  0.35703  0.34908  1.0000
  H   H988      1.0  0.52848  0.41017  0.47203  1.0000
  C   C842      1.0  0.74597  0.29179  0.40589  1.0000
  H   H989      1.0  0.82348  0.32289  0.32534  1.0000
  H   H990      1.0  0.50663  0.18325  0.46634  1.0000
  C   C843      1.0  0.85815  0.38806  0.36563  1.0000
  C   C844      1.0  0.85576  0.39068  0.34127  1.0000
  C   C845      1.0  0.86407  0.37874  0.32489  1.0000
  C   C846      1.0  0.87519  0.36436  0.33275  1.0000
  C   C847      1.0  0.87871  0.36275  0.35707  1.0000
  C   C848      1.0  0.87017  0.37450  0.37347  1.0000
  H   H991      1.0  0.84687  0.40148  0.33505  1.0000
  H   H992      1.0  0.86158  0.38042  0.30618  1.0000
  H   H993      1.0  0.88762  0.35196  0.36321  1.0000
  H   H994      1.0  0.87261  0.37278  0.39214  1.0000
  H   H995      1.0  0.46880  0.07752  0.28590  1.0000
  H   H996      1.0  0.76939  0.28012  0.32143  1.0000
  H   H997      1.0  0.73567  0.28593  0.42253  1.0000
  H   H998      1.0  0.79054  0.28966  0.44364  1.0000
  H   H999      1.0  0.73404  0.23081  0.29324  1.0000
  C   C849      1.0  0.69773  0.16236  0.36444  1.0000
  C   C850      1.0  0.73455  0.27787  0.38535  1.0000
  Fe  Fe118     1.0  0.60086  0.14794  0.26361  1.0000
  C   C851      1.0  0.77064  0.31339  0.40509  1.0000
  H   H1000     1.0  0.80909  0.29744  0.34676  1.0000
  C   C852      1.0  0.84705  0.29302  0.44775  1.0000
  C   C853      1.0  0.79287  0.34316  0.33483  1.0000
  C   C854      1.0  0.77344  0.30026  0.31918  1.0000
  N   N54       1.0  0.78739  0.31658  0.33993  1.0000
  H   H1001     1.0  0.76441  0.24254  0.43498  1.0000
  C   C855      1.0  0.74771  0.28552  0.36382  1.0000
  C   C856      1.0  0.78401  0.32120  0.38374  1.0000
  H   H1002     1.0  0.55420  0.14879  0.26624  1.0000
  H   H1003     1.0  0.54245  0.10754  0.28226  1.0000
  H   H1004     1.0  0.73759  0.27406  0.34857  1.0000
  H   H1005     1.0  0.68466  0.20844  0.38284  1.0000
  C   C857      1.0  0.95611  0.46417  0.46631  1.0000
  C   C858      1.0  0.72916  0.20549  0.37639  1.0000
  H   H1006     1.0  0.68851  0.18655  0.40178  1.0000
  C   C859      1.0  0.57312  0.45056  0.49367  1.0000
  S   S230      1.0  0.64557  0.14955  0.48825  1.0000
  C   C860      1.0  0.72117  0.21304  0.32754  1.0000
  H   H1007     1.0  0.52326  0.08938  0.25730  1.0000
  H   H1008     1.0  0.47829  0.37257  0.49172  1.0000
  C   C861      1.0  0.83132  0.27812  0.40743  1.0000
  C   C862      1.0  0.73945  0.27370  0.47956  1.0000
  H   H1009     1.0  0.71522  0.26125  0.38616  1.0000
  H   H1010     1.0  0.73031  0.19996  0.39500  1.0000
  C   C863      1.0  0.89038  0.98269  0.49425  1.0000
  H   H1011     1.0  0.94569  0.44380  0.46210  1.0000
  H   H1012     1.0  0.82259  0.30930  0.47714  1.0000
  H   H1013     1.0  0.47578  0.16686  0.45170  1.0000
  H   H1014     1.0  0.53196  0.13868  0.30245  1.0000
  H   H1015     1.0  0.85662  0.33037  0.47890  1.0000
  H   H1016     1.0  0.80305  0.33829  0.38411  1.0000
  C   C864      1.0  0.77293  0.30757  0.36238  1.0000
  H   H1017     1.0  0.59510  0.98805  0.47951  1.0000
  H   H1018     1.0  0.54020  0.00559  0.49707  1.0000
  C   C865      1.0  0.84084  0.31082  0.48374  1.0000
  H   H1019     1.0  0.54305  0.47634  0.28209  1.0000
  C   C866      1.0  0.47028  0.42767  0.45521  1.0000
  C   C867      1.0  0.51282  0.12856  0.29327  1.0000
  H   H1020     1.0  0.74082  0.21973  0.33296  1.0000
  C   C868      1.0  0.51344  0.39814  0.45891  1.0000
  H   H1021     1.0  0.77470  0.34381  0.33293  1.0000
  H   H1022     1.0  0.51916  0.03192  0.49348  1.0000
  H   H1023     1.0  0.74402  0.20321  0.36671  1.0000
  H   H1024     1.0  0.50607  0.14270  0.29105  1.0000
  H   H1025     1.0  0.82501  0.33056  0.35580  1.0000
  H   H1026     1.0  0.95102  0.36644  0.47307  1.0000
  C   C869      1.0  0.85201  0.30046  0.39809  1.0000
  C   C870      1.0  0.81222  0.31682  0.34209  1.0000
  H   H1027     1.0  0.51037  0.37835  0.46148  1.0000
  H   H1028     1.0  0.66406  0.17395  0.38015  1.0000
  H   H1029     1.0  0.57115  0.10695  0.48326  1.0000
  H   H1030     1.0  0.52845  0.12204  0.45310  1.0000
  H   H1031     1.0  0.80432  0.35094  0.31834  1.0000
  C   C871      1.0  0.69274  0.21081  0.29587  1.0000
  N   N55       1.0  0.70285  0.18919  0.36624  1.0000
  C   C872      1.0  0.67139  0.19551  0.30994  1.0000
  H   H1032     1.0  0.81224  0.25668  0.43792  1.0000
  H   H1033     1.0  0.61539  0.03540  0.47333  1.0000
  S   S231      1.0  0.91577  0.38425  0.46298  1.0000
  C   C873      1.0  0.69976  0.19770  0.34249  1.0000
  C   C874      1.0  0.49230  0.42467  0.45762  1.0000
  H   H1034     1.0  0.73467  0.22620  0.37665  1.0000
  H   H1035     1.0  0.71199  0.16105  0.35284  1.0000
  H   H1036     1.0  0.68996  0.21548  0.27796  1.0000
  C   C875      1.0  0.52279  0.09863  0.27420  1.0000
  S   S232      1.0  0.58829  0.16017  0.47324  1.0000
  N   N56       1.0  0.84472  0.29015  0.47374  1.0000
  C   C876      1.0  0.71757  0.21951  0.30462  1.0000
  C   C877      1.0  0.50483  0.13644  0.46762  1.0000
  H   H1037     1.0  0.80384  0.26255  0.47608  1.0000
  H   H1038     1.0  0.69813  0.15429  0.38207  1.0000
  H   H1039     1.0  0.67830  0.14923  0.35675  1.0000
  H   H1040     1.0  0.50973  0.08307  0.28643  1.0000
  H   H1041     1.0  0.53472  0.44747  0.45904  1.0000
  C   C878      1.0  0.48000  0.13077  0.47544  1.0000
  H   H1042     1.0  0.48144  0.18852  0.47598  1.0000
  C   C879      1.0  0.48926  0.10556  0.25801  1.0000
  H   H1043     1.0  0.77939  0.32428  0.42115  1.0000
  C   C880      1.0  0.72433  0.24698  0.47438  1.0000
  C   C881      1.0  0.51690  0.44755  0.45650  1.0000
  C   C882      1.0  0.82281  0.26502  0.48167  1.0000
  H   H1044     1.0  0.75497  0.30000  0.31582  1.0000
  C   C883      1.0  0.86788  0.31548  0.43756  1.0000
  S   S233      1.0  0.85376  0.38376  0.49061  1.0000
  H   H1045     1.0  0.53094  0.15524  0.25317  1.0000
  H   H1046     1.0  0.85400  0.30342  0.37915  1.0000
  N   N57       1.0  0.48926  0.39896  0.46239  1.0000
  H   H1047     1.0  0.81718  0.26364  0.39565  1.0000
  H   H1048     1.0  0.70596  0.23533  0.48306  1.0000
  C   C884      1.0  0.93741  0.36075  0.48748  1.0000
  H   H1049     1.0  0.88238  0.33075  0.44842  1.0000
  H   H1050     1.0  0.58163  0.44111  0.48401  1.0000
  C   C885      1.0  0.56459  0.13801  0.49237  1.0000
  C   C886      1.0  0.94174  0.47402  0.47686  1.0000
  H   H1051     1.0  0.52140  0.40467  0.44090  1.0000
  C   C887      1.0  0.87025  0.31908  0.41315  1.0000
  H   H1052     1.0  0.49938  0.11329  0.30556  1.0000
  H   H1053     1.0  0.46819  0.36000  0.44854  1.0000
  H   H1054     1.0  0.92137  0.46134  0.48048  1.0000
  H   H1055     1.0  0.73234  0.28222  0.49216  1.0000
  C   C888      1.0  0.60430  0.02673  0.48914  1.0000
  N   N58       1.0  0.51467  0.11801  0.27014  1.0000
  S   S234      1.0  0.63965  0.15386  0.25374  1.0000
  H   H1056     1.0  0.52139  0.15567  0.46900  1.0000
  C   C889      1.0  0.48094  0.39185  0.48718  1.0000
  C   C890      1.0  0.59279  0.99971  0.49278  1.0000
  C   C891      1.0  0.58042  0.47642  0.48798  1.0000
  H   H1057     1.0  0.82450  0.24851  0.47486  1.0000
  C   C892      1.0  0.51921  0.47160  0.45210  1.0000
  C   C893      1.0  0.53545  0.13963  0.25656  1.0000
  H   H1058     1.0  0.47387  0.38498  0.42764  1.0000
  H   H1059     1.0  0.53135  0.44115  0.25447  1.0000
  H   H1060     1.0  0.49259  0.07687  0.45072  1.0000
  N   N59       1.0  0.47620  0.15134  0.48580  1.0000
  S   S235      1.0  0.89641  0.38244  0.25123  1.0000
  C   C894      1.0  0.46951  0.37910  0.44646  1.0000
  H   H1061     1.0  0.88597  0.31165  0.48071  1.0000
  C   C895      1.0  0.86872  0.29244  0.48388  1.0000
  H   H1062     1.0  0.87281  0.27778  0.47617  1.0000
  C   C896      1.0  0.47281  0.45172  0.45041  1.0000
  H   H1063     1.0  0.49555  0.40607  0.49969  1.0000
  C   C897      1.0  0.54732  0.46023  0.25039  1.0000
  Fe  Fe119     1.0  0.49879  0.31080  0.55766  1.0000
  H   H1064     1.0  0.47644  0.18526  0.71036  1.0000
  S   S236      1.0  0.50387  0.27465  0.55861  1.0000
  Fe  Fe120     1.0  0.51988  0.36945  0.54227  1.0000
  S   S237      1.0  0.49662  0.37472  0.57029  1.0000
  S   S238      1.0  0.54635  0.40377  0.51753  1.0000
  Fe  Fe121     1.0  0.50823  0.35258  0.59438  1.0000
  S   S239      1.0  0.52340  0.36532  0.63154  1.0000
  H   H1065     1.0  0.63005  0.12009  0.53772  1.0000
  C   C898      1.0  0.48381  0.24854  0.69898  1.0000
  S   S240      1.0  0.53385  0.34938  0.56732  1.0000
  S   S241      1.0  0.48717  0.33052  0.52973  1.0000
  S   S242      1.0  0.52762  0.11855  0.71105  1.0000
  Fe  Fe122     1.0  0.92733  0.06250  0.54840  1.0000
  C   C899      1.0  0.61034  0.12279  0.60419  1.0000
  S   S243      1.0  0.91020  0.02620  0.52347  1.0000
  Fe  Fe123     1.0  0.94512  0.12208  0.55323  1.0000
  C   C900      1.0  0.50803  0.29786  0.62958  1.0000
  S   S244      1.0  0.94148  0.15646  0.53979  1.0000
  C   C901      1.0  0.58235  0.44375  0.61874  1.0000
  S   S245      1.0  0.50987  0.08227  0.54706  1.0000
  Fe  Fe124     1.0  0.93962  0.09052  0.59723  1.0000
  S   S246      1.0  0.93005  0.08968  0.63616  1.0000
  H   H1066     1.0  0.96341  0.04049  0.53909  1.0000
  S   S247      1.0  0.91162  0.08514  0.56777  1.0000
  S   S248      1.0  0.93186  0.33759  0.72091  1.0000
  C   C902      1.0  0.52839  0.10301  0.52441  1.0000
  H   H1067     1.0  0.53115  0.41394  0.60848  1.0000
  H   H1068     1.0  0.48489  0.14462  0.52104  1.0000
  H   H1069     1.0  0.52154  0.13385  0.53399  1.0000
  C   C903      1.0  0.54437  0.44964  0.52380  1.0000
  C   C904      1.0  0.53195  0.12787  0.52246  1.0000
  C   C905      1.0  0.50190  0.10299  0.69062  1.0000
  S   S249      1.0  0.47428  0.31384  0.58605  1.0000
  H   H1070     1.0  0.56086  0.08607  0.55121  1.0000
  C   C906      1.0  0.55502  0.43682  0.51161  1.0000
  H   H1071     1.0  0.58672  0.04223  0.54056  1.0000
  C   C907      1.0  0.50691  0.10682  0.66630  1.0000
  Fe  Fe125     1.0  0.96449  0.33140  0.55676  1.0000
  C   C908      1.0  0.56796  0.11364  0.59122  1.0000
  H   H1072     1.0  0.63802  0.98137  0.60710  1.0000
  H   H1073     1.0  0.52660  0.11849  0.66028  1.0000
  C   C909      1.0  0.95484  0.10133  0.65787  1.0000
  C   C910      1.0  0.62231  0.01958  0.58230  1.0000
  C   C911      1.0  0.88736  0.99300  0.51565  1.0000
  H   H1074     1.0  0.86464  0.45861  0.57865  1.0000
  C   C912      1.0  0.62983  0.99938  0.54860  1.0000
  C   C913      1.0  0.96055  0.33732  0.65588  1.0000
  H   H1075     1.0  0.47230  0.08459  0.71694  1.0000
  H   H1076     1.0  0.95000  0.21500  0.59023  1.0000
  C   C914      1.0  0.58818  0.03049  0.52690  1.0000
  C   C915      1.0  0.61951  0.99682  0.57168  1.0000
  C   C916      1.0  0.59282  0.11783  0.58523  1.0000
  C   C917      1.0  0.90019  0.35945  0.50552  1.0000
  C   C918      1.0  0.49822  0.22573  0.56264  1.0000
  H   H1077     1.0  0.62970  0.12635  0.60143  1.0000
  C   C919      1.0  0.52081  0.99830  0.50381  1.0000
  H   H1078     1.0  0.95434  0.34190  0.50680  1.0000
  H   H1079     1.0  0.51849  0.23613  0.56735  1.0000
  C   C920      1.0  0.64267  0.02333  0.53730  1.0000
  C   C921      1.0  0.48566  0.23981  0.55742  1.0000
  H   H1080     1.0  0.55374  0.16499  0.50542  1.0000
  H   H1081     1.0  0.95901  0.24599  0.53377  1.0000
  H   H1082     1.0  0.50105  0.17071  0.68468  1.0000
  S   S250      1.0  0.92401  0.32260  0.54930  1.0000
  C   C922      1.0  0.90197  0.34544  0.52447  1.0000
  H   H1083     1.0  0.64970  0.02472  0.51943  1.0000
  H   H1084     1.0  0.65469  0.06364  0.53914  1.0000
  H   H1085     1.0  0.55886  0.39894  0.59601  1.0000
  H   H1086     1.0  0.49516  0.18812  0.56550  1.0000
  C   C923      1.0  0.93933  0.34690  0.50656  1.0000
  C   C924      1.0  0.50055  0.35429  0.65474  1.0000
  C   C925      1.0  0.50905  0.35733  0.67827  1.0000
  C   C926      1.0  0.49121  0.34875  0.69700  1.0000
  H   H1087     1.0  0.53269  0.43039  0.58140  1.0000
  H   H1088     1.0  0.61412  0.01900  0.59939  1.0000
  C   C927      1.0  0.95227  0.21873  0.62865  1.0000
  H   H1089     1.0  0.52950  0.36633  0.68206  1.0000
  H   H1090     1.0  0.49796  0.35121  0.71506  1.0000
  H   H1091     1.0  0.92953  0.34158  0.67041  1.0000
  Fe  Fe126     1.0  0.51710  0.11954  0.74935  1.0000
  H   H1092     1.0  0.49640  0.45772  0.51120  1.0000
  H   H1093     1.0  0.61002  0.15615  0.55348  1.0000
  C   C928      1.0  0.50890  0.01309  0.50175  1.0000
  H   H1094     1.0  0.93447  0.24390  0.60118  1.0000
  H   H1095     1.0  0.51447  0.30142  0.61082  1.0000
  C   C929      1.0  0.55022  0.14546  0.50647  1.0000
  H   H1096     1.0  0.49854  0.30943  0.63286  1.0000
  C   C930      1.0  0.93526  0.16507  0.62697  1.0000
  C   C931      1.0  0.57873  0.98770  0.51343  1.0000
  H   H1097     1.0  0.54064  0.44719  0.60910  1.0000
  H   H1098     1.0  0.82198  0.26346  0.50128  1.0000
  H   H1099     1.0  0.49043  0.10010  0.63117  1.0000
  C   C932      1.0  0.47638  0.08789  0.69827  1.0000
  C   C933      1.0  0.57846  0.11875  0.63283  1.0000
  H   H1100     1.0  0.96040  0.39790  0.56131  1.0000
  N   N60       1.0  0.56971  0.43921  0.59529  1.0000
  C   C934      1.0  0.48991  0.25104  0.67491  1.0000
  H   H1101     1.0  0.63689  0.06050  0.57912  1.0000
  C   C935      1.0  0.96056  0.19046  0.54529  1.0000
  C   C936      1.0  0.56938  0.41636  0.58470  1.0000
  C   C937      1.0  0.58129  0.09075  0.55048  1.0000
  H   H1102     1.0  0.88833  0.33967  0.53888  1.0000
  H   H1103     1.0  0.94419  0.27060  0.62087  1.0000
  H   H1104     1.0  0.53045  0.43964  0.53760  1.0000
  H   H1105     1.0  0.60230  0.13640  0.52748  1.0000
  H   H1106     1.0  0.92848  0.09409  0.68652  1.0000
  H   H1107     1.0  0.52250  0.26285  0.63545  1.0000
  C   C938      1.0  0.86154  0.47428  0.57350  1.0000
  H   H1108     1.0  0.47105  0.26281  0.60074  1.0000
  H   H1109     1.0  0.96238  0.11042  0.71766  1.0000
  C   C939      1.0  0.94845  0.10144  0.68171  1.0000
  H   H1110     1.0  0.49044  0.14424  0.70492  1.0000
  C   C940      1.0  0.62602  0.12130  0.55676  1.0000
  C   C941      1.0  0.58339  0.46281  0.58069  1.0000
  C   C942      1.0  0.60313  0.12322  0.62761  1.0000
  H   H1111     1.0  0.50853  0.25942  0.60694  1.0000
  Fe  Fe127     1.0  0.47581  0.08559  0.55798  1.0000
  C   C943      1.0  0.94755  0.20392  0.64961  1.0000
  C   C944      1.0  0.59713  0.13642  0.54636  1.0000
  C   C945      1.0  0.94757  0.20529  0.60691  1.0000
  H   H1112     1.0  0.93590  0.16903  0.58935  1.0000
  H   H1113     1.0  0.59593  0.44694  0.55188  1.0000
  C   C946      1.0  0.48379  0.00368  0.51017  1.0000
  H   H1114     1.0  0.57271  0.42609  0.62998  1.0000
  H   H1115     1.0  0.57716  0.13315  0.54634  1.0000
  H   H1116     1.0  0.58544  0.08909  0.53159  1.0000
  C   C947      1.0  0.48498  0.19835  0.56157  1.0000
  H   H1117     1.0  0.52559  0.30608  0.64096  1.0000
  H   H1118     1.0  0.94960  0.00818  0.50744  1.0000
  H   H1119     1.0  0.92898  0.14460  0.62627  1.0000
  H   H1120     1.0  0.93574  0.16646  0.66473  1.0000
  H   H1121     1.0  0.62889  0.10648  0.56587  1.0000
  C   C948      1.0  0.48388  0.26629  0.65980  1.0000
  H   H1122     1.0  0.93828  0.40122  0.52889  1.0000
  H   H1123     1.0  0.83944  0.45429  0.54265  1.0000
  H   H1124     1.0  0.64088  0.14089  0.56286  1.0000
  H   H1125     1.0  0.55359  0.10984  0.57779  1.0000
  H   H1126     1.0  0.88538  0.36464  0.50551  1.0000
  H   H1127     1.0  0.61385  0.98712  0.61983  1.0000
  S   S251      1.0  0.95850  0.09944  0.53142  1.0000
  C   C949      1.0  0.56092  0.11398  0.61465  1.0000
  H   H1128     1.0  0.95679  0.34042  0.63785  1.0000
  H   H1129     1.0  0.55945  0.41138  0.56724  1.0000
  C   C950      1.0  0.54244  0.43248  0.59870  1.0000
  H   H1130     1.0  0.61671  0.12700  0.64187  1.0000
  C   C951      1.0  0.57616  0.00340  0.53031  1.0000
  H   H1131     1.0  0.47531  0.01581  0.50797  1.0000
  C   C952      1.0  0.93935  0.17892  0.60617  1.0000
  N   N61       1.0  0.59942  0.11667  0.56025  1.0000
  C   C953      1.0  0.63522  0.04344  0.57083  1.0000
  S   S252      1.0  0.47352  0.11288  0.58376  1.0000
  H   H1132     1.0  0.86374  0.98382  0.54665  1.0000
  C   C954      1.0  0.95195  0.42235  0.52770  1.0000
  C   C955      1.0  0.94514  0.33797  0.67436  1.0000
  C   C956      1.0  0.96620  0.23384  0.54039  1.0000
  H   H1133     1.0  0.48519  0.13805  0.67428  1.0000
  C   C957      1.0  0.50379  0.25607  0.62610  1.0000
  C   C958      1.0  0.54218  0.09544  0.50985  1.0000
  H   H1134     1.0  0.56546  0.99486  0.54628  1.0000
  C   C959      1.0  0.47405  0.34250  0.65005  1.0000
  C   C960      1.0  0.49124  0.16061  0.50805  1.0000
  N   N62       1.0  0.49056  0.27000  0.63439  1.0000
  H   H1135     1.0  0.49141  0.23483  0.62826  1.0000
  C   C961      1.0  0.48518  0.15077  0.68847  1.0000
  H   H1136     1.0  0.93279  0.19836  0.52874  1.0000
  H   H1137     1.0  0.54165  0.11035  0.61869  1.0000
  H   H1138     1.0  0.94356  0.43182  0.53853  1.0000
  C   C962      1.0  0.48645  0.09646  0.64979  1.0000
  H   H1139     1.0  0.49960  0.24109  0.66866  1.0000
  H   H1140     1.0  0.58922  0.41950  0.58248  1.0000
  H   H1141     1.0  0.58245  0.07541  0.56047  1.0000
  H   H1142     1.0  0.57286  0.11893  0.65100  1.0000
  C   C963      1.0  0.93914  0.17749  0.64863  1.0000
  C   C964      1.0  0.92170  0.33939  0.52512  1.0000
  C   C965      1.0  0.95011  0.33443  0.69792  1.0000
  C   C966      1.0  0.64543  0.04532  0.54839  1.0000
  C   C967      1.0  0.48623  0.46826  0.50863  1.0000
  C   C968      1.0  0.47146  0.26088  0.70863  1.0000
  C   C969      1.0  0.95140  0.20675  0.53744  1.0000
  H   H1143     1.0  0.92128  0.23846  0.63040  1.0000
  S   S253      1.0  0.95285  0.06561  0.57932  1.0000
  C   C970      1.0  0.55206  0.47567  0.51842  1.0000
  C   C971      1.0  0.93922  0.25001  0.61995  1.0000
  H   H1144     1.0  0.48896  0.23726  0.71039  1.0000
  H   H1145     1.0  0.86752  0.28990  0.50341  1.0000
  C   C972      1.0  0.59588  0.46360  0.55911  1.0000
  H   H1146     1.0  0.60303  0.44932  0.61694  1.0000
  C   C973      1.0  0.47125  0.27852  0.67027  1.0000
  C   C974      1.0  0.84720  0.47172  0.55326  1.0000
  H   H1147     1.0  0.58162  0.45932  0.62874  1.0000
  H   H1148     1.0  0.51230  0.16880  0.50525  1.0000
  H   H1149     1.0  0.48868  0.17592  0.51659  1.0000
  H   H1150     1.0  0.95015  0.21224  0.66698  1.0000
  C   C975      1.0  0.60254  0.04256  0.50637  1.0000
  C   C976      1.0  0.46984  0.97907  0.52105  1.0000
  S   S254      1.0  0.62015  0.07742  0.50457  1.0000
  H   H1151     1.0  0.62753  0.98306  0.53850  1.0000
  H   H1152     1.0  0.53942  0.07622  0.51132  1.0000
  H   H1153     1.0  0.83984  0.31004  0.50336  1.0000
  S   S255      1.0  0.87523  0.45455  0.50201  1.0000
  H   H1154     1.0  0.95201  0.42752  0.50882  1.0000
  C   C977      1.0  0.96767  0.11072  0.69940  1.0000
  H   H1155     1.0  0.95083  0.25021  0.66488  1.0000
  N   N63       1.0  0.96061  0.24659  0.62893  1.0000
  Fe  Fe128     1.0  0.83435  0.44342  0.88195  1.0000
  C   C978      1.0  0.50635  0.23629  0.77937  1.0000
  S   S256      1.0  0.85063  0.42613  0.85436  1.0000
  Fe  Fe129     1.0  0.79192  0.45918  0.89372  1.0000
  C   C979      1.0  0.54774  0.30070  0.84387  1.0000
  S   S257      1.0  0.74964  0.45022  0.88919  1.0000
  C   C980      1.0  0.53136  0.31846  0.81498  1.0000
  S   S258      1.0  0.88803  0.03496  0.89435  1.0000
  Fe  Fe130     1.0  0.82444  0.45489  0.93316  1.0000
  S   S259      1.0  0.82163  0.44300  0.97152  1.0000
  H   H1156     1.0  0.49223  0.06712  0.85625  1.0000
  S   S260      1.0  0.79865  0.42669  0.90527  1.0000
  Fe  Fe131     1.0  0.47371  0.09669  0.78456  1.0000
  S   S261      1.0  0.49781  0.12412  0.81339  1.0000
  H   H1157     1.0  0.94912  0.30131  0.88509  1.0000
  H   H1158     1.0  0.58963  0.10809  0.94001  1.0000
  S   S262      1.0  0.54475  0.14842  0.77589  1.0000
  Fe  Fe132     1.0  0.52870  0.11488  0.80181  1.0000
  S   S263      1.0  0.54572  0.10030  0.83131  1.0000
  Fe  Fe133     1.0  0.51136  0.15491  0.78509  1.0000
  S   S264      1.0  0.51673  0.19620  0.78444  1.0000
  S   S265      1.0  0.50332  0.08607  0.77427  1.0000
  C   C981      1.0  0.51265  0.34442  0.88622  1.0000
  Fe  Fe134     1.0  0.66308  0.00623  0.89745  1.0000
  Fe  Fe135     1.0  0.49561  0.35034  0.78967  1.0000
  S   S266      1.0  0.70424  0.01213  0.90183  1.0000
  Fe  Fe136     1.0  0.62500  0.02554  0.88026  1.0000
  S   S267      1.0  0.59453  0.99969  0.90607  1.0000
  S   S268      1.0  0.61890  0.05188  0.85388  1.0000
  Fe  Fe137     1.0  0.62672  0.01144  0.93248  1.0000
  S   S269      1.0  0.62679  0.02437  0.97020  1.0000
  H   H1159     1.0  0.65580  0.09202  0.91493  1.0000
  S   S270      1.0  0.55440  0.43919  0.89023  1.0000
  S   S271      1.0  0.65705  0.03950  0.90760  1.0000
  S   S272      1.0  0.63383  0.99472  0.86765  1.0000
  C   C982      1.0  0.61503  0.10208  0.91611  1.0000
  S   S273      1.0  0.91442  0.31045  0.78727  1.0000
  H   H1160     1.0  0.63639  0.09978  0.88582  1.0000
  H   H1161     1.0  0.57100  0.35496  0.84863  1.0000
  S   S274      1.0  0.53797  0.37826  0.79524  1.0000
  Fe  Fe138     1.0  0.94913  0.30785  0.80002  1.0000
  S   S275      1.0  0.94783  0.26962  0.81005  1.0000
  Fe  Fe139     1.0  0.92789  0.34620  0.81023  1.0000
  S   S276      1.0  0.90479  0.35690  0.83674  1.0000
  H   H1162     1.0  0.64049  0.47649  0.99413  1.0000
  C   C983      1.0  0.82818  0.46594  0.99420  1.0000
  C   C984      1.0  0.55055  0.42293  0.86362  1.0000
  C   C985      1.0  0.57184  0.42736  0.84998  1.0000
  C   C986      1.0  0.56801  0.41327  0.82906  1.0000
  C   C987      1.0  0.54291  0.39539  0.82157  1.0000
  C   C988      1.0  0.52177  0.39133  0.83512  1.0000
  C   C989      1.0  0.52562  0.40466  0.85634  1.0000
  H   H1163     1.0  0.59119  0.44120  0.85577  1.0000
  H   H1164     1.0  0.58442  0.41639  0.81859  1.0000
  H   H1165     1.0  0.50236  0.37798  0.82931  1.0000
  H   H1166     1.0  0.50919  0.40085  0.86710  1.0000
  H   H1167     1.0  0.54517  0.28458  0.83220  1.0000
  H   H1168     1.0  0.52942  0.30409  0.80150  1.0000
  C   C990      1.0  0.84216  0.05014  0.81599  1.0000
  C   C991      1.0  0.49674  0.21067  0.78716  1.0000
  H   H1169     1.0  0.57539  0.98894  0.83426  1.0000
  H   H1170     1.0  0.79361  0.00512  0.81868  1.0000
  C   C992      1.0  0.93465  0.00375  0.85077  1.0000
  H   H1171     1.0  0.49629  0.34238  0.89619  1.0000
  C   C993      1.0  0.83457  0.04931  0.83989  1.0000
  H   H1172     1.0  0.60923  0.04537  0.93391  1.0000
  H   H1173     1.0  0.65941  0.00005  0.96981  1.0000
  N   N64       1.0  0.68600  0.98667  0.97685  1.0000
  C   C994      1.0  0.68047  0.00698  0.96886  1.0000
  C   C995      1.0  0.56487  0.08512  0.83598  1.0000
  C   C996      1.0  0.56055  0.06984  0.85630  1.0000
  C   C997      1.0  0.57620  0.05890  0.86171  1.0000
  C   C998      1.0  0.59708  0.06360  0.84721  1.0000
  C   C999      1.0  0.60119  0.07859  0.82673  1.0000
  C   C1000     1.0  0.58517  0.08904  0.82104  1.0000
  H   H1174     1.0  0.54508  0.06666  0.86813  1.0000
  H   H1175     1.0  0.57241  0.04732  0.87740  1.0000
  H   H1176     1.0  0.61712  0.08242  0.81523  1.0000
  H   H1177     1.0  0.58906  0.10082  0.80544  1.0000
  H   H1178     1.0  0.80571  0.39337  0.81813  1.0000
  H   H1179     1.0  0.72505  0.01520  0.98712  1.0000
  C   C1001     1.0  0.74329  0.00051  0.90766  1.0000
  H   H1180     1.0  0.74938  0.42170  0.97209  1.0000
  C   C1002     1.0  0.52334  0.46212  0.84258  1.0000
  C   C1003     1.0  0.70648  0.45626  0.88922  1.0000
  C   C1004     1.0  0.55762  0.36973  0.87578  1.0000
  H   H1181     1.0  0.75216  0.01751  0.91876  1.0000
  H   H1182     1.0  0.89263  0.47654  0.86929  1.0000
  H   H1183     1.0  0.69567  0.43549  0.88732  1.0000
  C   C1005     1.0  0.86575  0.40680  0.85004  1.0000
  C   C1006     1.0  0.87417  0.40493  0.82724  1.0000
  C   C1007     1.0  0.88641  0.39025  0.82286  1.0000
  C   C1008     1.0  0.89018  0.37669  0.84116  1.0000
  C   C1009     1.0  0.88176  0.37860  0.86395  1.0000
  C   C1010     1.0  0.86986  0.39359  0.86841  1.0000
  H   H1184     1.0  0.87122  0.41494  0.81275  1.0000
  H   H1185     1.0  0.89252  0.38905  0.80519  1.0000
  H   H1186     1.0  0.88444  0.36832  0.87836  1.0000
  H   H1187     1.0  0.86372  0.39470  0.88608  1.0000
  C   C1011     1.0  0.89815  0.04723  0.86589  1.0000
  C   C1012     1.0  0.88651  0.03197  0.84597  1.0000
  C   C1013     1.0  0.89485  0.04219  0.82340  1.0000
  C   C1014     1.0  0.91525  0.06751  0.82068  1.0000
  C   C1015     1.0  0.92693  0.08282  0.84056  1.0000
  C   C1016     1.0  0.91827  0.07271  0.86317  1.0000
  H   H1188     1.0  0.87108  0.01236  0.84784  1.0000
  H   H1189     1.0  0.88565  0.03040  0.80799  1.0000
  C   C1017     1.0  0.80215  0.00283  0.83531  1.0000
  H   H1190     1.0  0.92721  0.08464  0.87856  1.0000
  H   H1191     1.0  0.65063  0.46967  0.95716  1.0000
  H   H1192     1.0  0.70086  0.44173  0.99232  1.0000
  Fe  Fe140     1.0  0.94183  0.33757  0.75971  1.0000
  C   C1018     1.0  0.53041  0.32789  0.85633  1.0000
  C   C1019     1.0  0.64849  0.09436  0.93221  1.0000
  H   H1193     1.0  0.49800  0.27533  0.85819  1.0000
  H   H1194     1.0  0.48629  0.28720  0.83461  1.0000
  H   H1195     1.0  0.71942  0.98297  0.98343  1.0000
  C   C1020     1.0  0.61207  0.08467  0.95653  1.0000
  N   N65       1.0  0.77013  0.36659  0.85279  1.0000
  C   C1021     1.0  0.75053  0.35815  0.87184  1.0000
  C   C1022     1.0  0.76028  0.34591  0.83466  1.0000
  C   C1023     1.0  0.79405  0.36913  0.86333  1.0000
  C   C1024     1.0  0.77578  0.39124  0.84157  1.0000
  H   H1196     1.0  0.79034  0.35147  0.87308  1.0000
  C   C1025     1.0  0.51378  0.98112  0.77900  1.0000
  H   H1197     1.0  0.81745  0.99806  0.83107  1.0000
  H   H1198     1.0  0.65301  0.08290  0.94489  1.0000
  H   H1199     1.0  0.57608  0.38740  0.87754  1.0000
  C   C1026     1.0  0.61615  0.00109  0.99319  1.0000
  H   H1200     1.0  0.74691  0.33975  0.88008  1.0000
  H   H1201     1.0  0.75706  0.37274  0.88628  1.0000
  H   H1202     1.0  0.74280  0.34398  0.82570  1.0000
  H   H1203     1.0  0.75508  0.32684  0.84245  1.0000
  H   H1204     1.0  0.77487  0.34977  0.82075  1.0000
  H   H1205     1.0  0.80887  0.37245  0.84985  1.0000
  H   H1206     1.0  0.57575  0.44044  0.99893  1.0000
  C   C1027     1.0  0.80011  0.42525  0.81238  1.0000
  H   H1207     1.0  0.78542  0.03739  0.83842  1.0000
  H   H1208     1.0  0.65999  0.11504  0.93741  1.0000
  C   C1028     1.0  0.76812  0.42760  0.83627  1.0000
  C   C1029     1.0  0.49195  0.24905  0.78209  1.0000
  H   H1209     1.0  0.77372  0.01427  0.86194  1.0000
  C   C1030     1.0  0.50935  0.32537  0.87002  1.0000
  H   H1210     1.0  0.83835  0.01890  0.87117  1.0000
  C   C1031     1.0  0.95822  0.01317  0.83829  1.0000
  H   H1211     1.0  0.51675  0.32413  0.81075  1.0000
  H   H1212     1.0  0.55057  0.33605  0.81246  1.0000
  H   H1213     1.0  0.49002  0.30908  0.86828  1.0000
  C   C1032     1.0  0.50390  0.43545  0.80797  1.0000
  H   H1214     1.0  0.50163  0.44779  0.87474  1.0000
  H   H1215     1.0  0.53914  0.38142  0.90147  1.0000
  C   C1033     1.0  0.61844  0.12151  0.87712  1.0000
  C   C1034     1.0  0.95548  0.22753  0.81000  1.0000
  H   H1216     1.0  0.61306  0.05751  0.90440  1.0000
  H   H1217     1.0  0.95348  0.05540  0.84700  1.0000
  C   C1035     1.0  0.85730  0.99272  0.98845  1.0000
  H   H1218     1.0  0.95622  0.05024  0.79368  1.0000
  H   H1219     1.0  0.69035  0.02474  0.97981  1.0000
  H   H1220     1.0  0.93050  0.02837  0.81188  1.0000
  H   H1221     1.0  0.59069  0.07534  0.95797  1.0000
  H   H1222     1.0  0.92385  0.01380  0.85038  1.0000
  H   H1223     1.0  0.77972  0.45098  0.96981  1.0000
  H   H1224     1.0  0.73158  0.35465  0.86497  1.0000
  H   H1225     1.0  0.54916  0.44240  0.78847  1.0000
  H   H1226     1.0  0.49970  0.26860  0.77586  1.0000
  H   H1227     1.0  0.67214  0.45991  0.88849  1.0000
  H   H1228     1.0  0.68675  0.01295  0.95030  1.0000
  C   C1036     1.0  0.82039  0.01985  0.87326  1.0000
  H   H1229     1.0  0.54679  0.29432  0.86248  1.0000
  H   H1230     1.0  0.82404  0.03412  0.88741  1.0000
  C   C1037     1.0  0.54058  0.02101  0.80019  1.0000
  Fe  Fe141     1.0  0.85808  0.99296  0.89728  1.0000
  N   N66       1.0  0.52779  0.30799  0.83923  1.0000
  H   H1231     1.0  0.50432  0.43004  0.78985  1.0000
  H   H1232     1.0  0.55504  0.03291  0.81301  1.0000
  H   H1233     1.0  0.50123  0.26883  0.82810  1.0000
  H   H1234     1.0  0.81504  0.43353  0.79905  1.0000
  N   N67       1.0  0.74629  0.45564  0.96627  1.0000
  S   S277      1.0  0.96019  0.34100  0.82548  1.0000
  H   H1235     1.0  0.56928  0.45665  0.81375  1.0000
  C   C1038     1.0  0.50224  0.28390  0.84022  1.0000
  H   H1236     1.0  0.61745  0.07285  0.96792  1.0000
  S   S278      1.0  0.92571  0.07946  0.79225  1.0000
  H   H1237     1.0  0.80312  0.38566  0.87589  1.0000
  H   H1238     1.0  0.62125  0.10437  0.96434  1.0000
  H   H1239     1.0  0.56764  0.31683  0.84055  1.0000
  C   C1039     1.0  0.78681  0.43787  0.81870  1.0000
  C   C1040     1.0  0.59196  0.12536  0.90691  1.0000
  C   C1041     1.0  0.62478  0.10745  0.89272  1.0000
  H   H1240     1.0  0.96098  0.19438  0.81155  1.0000
  H   H1241     1.0  0.59609  0.14008  0.87154  1.0000
  H   H1242     1.0  0.70865  0.42233  0.96018  1.0000
  C   C1042     1.0  0.60184  0.13019  0.88409  1.0000
  N   N68       1.0  0.54567  0.98194  0.80854  1.0000
  S   S279      1.0  0.82462  0.98136  0.92169  1.0000
  C   C1043     1.0  0.94958  0.03279  0.80488  1.0000
  S   S280      1.0  0.86010  0.46911  0.91103  1.0000
  H   H1243     1.0  0.94650  0.38338  0.86877  1.0000
  H   H1244     1.0  0.94230  0.10255  0.83857  1.0000
  H   H1245     1.0  0.58524  0.05139  0.92120  1.0000
  H   H1246     1.0  0.89409  0.11090  0.81337  1.0000
  C   C1044     1.0  0.59840  0.11156  0.92280  1.0000
  C   C1045     1.0  0.60640  0.05879  0.92239  1.0000
  C   C1046     1.0  0.75965  0.44065  0.96291  1.0000
  N   N69       1.0  0.62040  0.08546  0.93170  1.0000
  C   C1047     1.0  0.48135  0.42338  0.84525  1.0000
  C   C1048     1.0  0.55451  0.35096  0.85934  1.0000
  S   S281      1.0  0.82509  0.47340  0.86779  1.0000
  H   H1247     1.0  0.78626  0.98551  0.84418  1.0000
  H   H1248     1.0  0.72220  0.00245  0.95821  1.0000
  C   C1049     1.0  0.87725  0.09415  0.82057  1.0000
  H   H1249     1.0  0.80529  0.00091  0.88030  1.0000
  H   H1250     1.0  0.89813  0.47521  0.82823  1.0000
  H   H1251     1.0  0.94628  0.01649  0.79320  1.0000
  C   C1050     1.0  0.79461  0.40221  0.82349  1.0000
  C   C1051     1.0  0.79123  0.03156  0.85494  1.0000
  C   C1052     1.0  0.52497  0.45789  0.81808  1.0000
  C   C1053     1.0  0.72148  0.44205  0.95305  1.0000
  C   C1054     1.0  0.69299  0.47011  0.88992  1.0000
  C   C1055     1.0  0.56634  0.99907  0.82536  1.0000
  H   H1252     1.0  0.57866  0.47283  0.78593  1.0000
  H   H1253     1.0  0.86938  0.07228  0.78862  1.0000
  H   H1254     1.0  0.83256  0.03380  0.80425  1.0000
  N   N70       1.0  0.81248  0.02619  0.85051  1.0000
  H   H1255     1.0  0.88116  0.11114  0.85475  1.0000
  C   C1056     1.0  0.87003  0.09416  0.84389  1.0000
  C   C1057     1.0  0.84887  0.07221  0.85341  1.0000
  C   C1058     1.0  0.71906  0.99281  0.89718  1.0000
  C   C1059     1.0  0.96368  0.40223  0.86712  1.0000
  C   C1060     1.0  0.74309  0.45859  0.99180  1.0000
  H   H1256     1.0  0.79677  0.04732  0.86804  1.0000
  H   H1257     1.0  0.86015  0.99813  0.97003  1.0000
  H   H1258     1.0  0.58234  0.01605  0.81628  1.0000
  C   C1061     1.0  0.48201  0.04039  0.82746  1.0000
  S   S282      1.0  0.48319  0.31779  0.76389  1.0000
  C   C1062     1.0  0.73371  0.46899  0.89050  1.0000
  H   H1259     1.0  0.84399  0.07322  0.87155  1.0000
  H   H1260     1.0  0.75805  0.43770  0.84136  1.0000
  H   H1261     1.0  0.91229  0.45162  0.85114  1.0000
  C   C1063     1.0  0.93154  0.46903  0.85419  1.0000
  C   C1064     1.0  0.56179  0.46113  0.79756  1.0000
  Fe  Fe142     1.0  0.59079  0.47740  0.89363  1.0000
  C   C1065     1.0  0.76265  0.40472  0.84770  1.0000
  H   H1262     1.0  0.71116  0.45313  0.95320  1.0000
  C   C1066     1.0  0.86321  0.07230  0.80661  1.0000
  H   H1263     1.0  0.58947  0.47333  0.96720  1.0000
  C   C1067     1.0  0.48237  0.41867  0.82136  1.0000
  C   C1068     1.0  0.50178  0.44504  0.85584  1.0000
  H   H1264     1.0  0.57874  0.13189  0.91208  1.0000
  H   H1265     1.0  0.76135  0.43698  0.94389  1.0000
  H   H1266     1.0  0.50099  0.05097  0.81955  1.0000
  H   H1267     1.0  0.50205  0.02840  0.76043  1.0000
  H   H1268     1.0  0.62550  0.12465  0.85912  1.0000
  S   S283      1.0  0.48519  0.12752  0.75725  1.0000
  H   H1269     1.0  0.74824  0.39829  0.86141  1.0000
  H   H1270     1.0  0.93683  0.21755  0.81854  1.0000
  S   S284      1.0  0.95304  0.37311  0.78165  1.0000
  H   H1271     1.0  0.53540  0.05300  0.79066  1.0000
  C   C1069     1.0  0.53678  0.36641  0.88927  1.0000
  H   H1272     1.0  0.52520  0.24639  0.77119  1.0000
  H   H1273     1.0  0.95496  0.40771  0.83163  1.0000
  C   C1070     1.0  0.47710  0.04950  0.84824  1.0000
  H   H1274     1.0  0.72459  0.43944  0.93412  1.0000
  H   H1275     1.0  0.79127  0.45586  0.81024  1.0000
  C   C1071     1.0  0.53342  0.99482  0.79608  1.0000
  H   H1276     1.0  0.68078  0.46998  0.95638  1.0000
  C   C1072     1.0  0.75628  0.98651  0.90390  1.0000
  H   H1277     1.0  0.55871  0.00605  0.83970  1.0000
  H   H1278     1.0  0.57119  0.98847  0.77936  1.0000
  C   C1073     1.0  0.51045  0.01898  0.77048  1.0000
  S   S285      1.0  0.46978  0.32552  0.81878  1.0000
  C   C1074     1.0  0.71437  0.99728  0.97649  1.0000
  C   C1075     1.0  0.47223  0.19800  0.79760  1.0000
  H   H1279     1.0  0.77471  0.99269  0.91235  1.0000
  H   H1280     1.0  0.93799  0.46621  0.87176  1.0000
  C   C1076     1.0  0.46783  0.23666  0.79328  1.0000
  C   C1077     1.0  0.52928  0.03283  0.78746  1.0000
  H   H1281     1.0  0.52903  0.46557  0.76937  1.0000
  H   H1282     1.0  0.94495  0.46897  0.84068  1.0000
  S   S286      1.0  0.63404  0.97934  0.92370  1.0000
  C   C1078     1.0  0.50256  0.99311  0.76637  1.0000
  Fe  Fe143     1.0  0.96670  0.11199  0.78995  1.0000
  C   C1079     1.0  0.96560  0.25349  0.80317  1.0000
  N   N71       1.0  0.54787  0.47498  0.80362  1.0000
  H   H1283     1.0  0.48796  0.98236  0.75308  1.0000
  S   S287      1.0  0.46826  0.36300  0.77686  1.0000
  C   C1080     1.0  0.92417  0.98089  0.86370  1.0000
  H   H1284     1.0  0.53895  0.47779  0.85220  1.0000
  H   H1285     1.0  0.78419  0.47685  0.00027  1.0000
  S   S288      1.0  0.86334  0.80870  0.23125  1.0000
  Fe  Fe144     1.0  0.85470  0.86754  0.22800  1.0000
  S   S289      1.0  0.85399  0.84540  0.19579  1.0000
  S   S290      1.0  0.85542  0.90530  0.22931  1.0000
  Fe  Fe145     1.0  0.82828  0.80976  0.21753  1.0000
  S   S291      1.0  0.79290  0.77060  0.20692  1.0000
  Fe  Fe146     1.0  0.88920  0.84657  0.21214  1.0000
  S   S292      1.0  0.92375  0.86003  0.18586  1.0000
  H   H1286     1.0  0.76307  0.94456  0.15449  1.0000
  S   S293      1.0  0.63294  0.48324  0.09768  1.0000
  Fe  Fe147     1.0  0.84392  0.51578  0.09205  1.0000
  S   S294      1.0  0.85196  0.54702  0.11858  1.0000
  S   S295      1.0  0.83987  0.52351  0.05342  1.0000
  H   H1287     1.0  0.70608  0.95566  0.16805  1.0000
  S   S296      1.0  0.84499  0.50666  0.16011  1.0000
  C   C1081     1.0  0.49929  0.62018  0.09038  1.0000
  Fe  Fe148     1.0  0.81820  0.51518  0.13847  1.0000
  S   S297      1.0  0.78386  0.51827  0.15263  1.0000
  Fe  Fe149     1.0  0.87821  0.53547  0.13763  1.0000
  S   S298      1.0  0.92195  0.56036  0.14753  1.0000
  H   H1288     1.0  0.74262  0.95317  0.09841  1.0000
  S   S299      1.0  0.87193  0.50627  0.10924  1.0000
  Fe  Fe150     1.0  0.63597  0.66869  0.22567  1.0000
  H   H1289     1.0  0.90429  0.92329  0.20510  1.0000
  S   S300      1.0  0.66966  0.71119  0.22515  1.0000
  Fe  Fe151     1.0  0.57981  0.62425  0.20960  1.0000
  C   C1082     1.0  0.47969  0.88761  0.15497  1.0000
  S   S301      1.0  0.54646  0.60434  0.18165  1.0000
  Fe  Fe152     1.0  0.62163  0.61231  0.22617  1.0000
  S   S302      1.0  0.63558  0.58372  0.22513  1.0000
  C   C1083     1.0  0.94175  0.92560  0.15917  1.0000
  S   S303      1.0  0.62095  0.63778  0.19741  1.0000
  Fe  Fe153     1.0  0.62717  0.95940  0.13410  1.0000
  N   N72       1.0  0.92387  0.49229  0.17118  1.0000
  S   S304      1.0  0.66344  0.95848  0.14745  1.0000
  Fe  Fe154     1.0  0.56696  0.93943  0.14179  1.0000
  H   H1290     1.0  0.78995  0.55890  0.12205  1.0000
  S   S305      1.0  0.53196  0.92133  0.16815  1.0000
  Fe  Fe155     1.0  0.59225  0.95217  0.09200  1.0000
  S   S306      1.0  0.58747  0.94106  0.05319  1.0000
  C   C1084     1.0  0.58134  0.48848  0.22399  1.0000
  H   H1291     1.0  0.50331  0.61842  0.07215  1.0000
  S   S307      1.0  0.58983  0.92494  0.12097  1.0000
  S   S308      1.0  0.89018  0.86987  0.24373  1.0000
  H   H1292     1.0  0.70036  0.94925  0.09329  1.0000
  H   H1293     1.0  0.62920  0.92785  0.03306  1.0000
  H   H1294     1.0  0.95881  0.92942  0.17004  1.0000
  C   C1085     1.0  0.61312  0.51314  0.01479  1.0000
  H   H1295     1.0  0.96228  0.52235  0.18050  1.0000
  H   H1296     1.0  0.52970  0.95923  0.20068  1.0000
  H   H1297     1.0  0.62348  0.53343  0.01933  1.0000
  C   C1086     1.0  0.63749  0.57383  0.19649  1.0000
  C   C1087     1.0  0.64001  0.55204  0.19319  1.0000
  C   C1088     1.0  0.63910  0.54257  0.17038  1.0000
  C   C1089     1.0  0.63595  0.55505  0.15088  1.0000
  C   C1090     1.0  0.63495  0.57764  0.15412  1.0000
  C   C1091     1.0  0.63549  0.58687  0.17691  1.0000
  H   H1298     1.0  0.64229  0.54226  0.20824  1.0000
  H   H1299     1.0  0.64090  0.52571  0.16790  1.0000
  H   H1300     1.0  0.63291  0.58758  0.13905  1.0000
  H   H1301     1.0  0.63431  0.60405  0.17921  1.0000
  H   H1302     1.0  0.90359  0.93099  0.13977  1.0000
  C   C1092     1.0  0.51941  0.48898  0.18826  1.0000
  H   H1303     1.0  0.48769  0.50251  0.23053  1.0000
  C   C1093     1.0  0.70205  0.93482  0.10343  1.0000
  H   H1304     1.0  0.58788  0.55423  0.24914  1.0000
  C   C1094     1.0  0.73294  0.50706  0.15306  1.0000
  H   H1305     1.0  0.72506  0.58134  0.08288  1.0000
  S   S309      1.0  0.56735  0.96420  0.11163  1.0000
  C   C1095     1.0  0.91688  0.91823  0.19468  1.0000
  H   H1306     1.0  0.74035  0.52503  0.16265  1.0000
  C   C1096     1.0  0.94747  0.57419  0.16944  1.0000
  C   C1097     1.0  0.57216  0.51005  0.16700  1.0000
  C   C1098     1.0  0.49540  0.59145  0.19303  1.0000
  C   C1099     1.0  0.51198  0.58919  0.17703  1.0000
  C   C1100     1.0  0.50094  0.57490  0.15614  1.0000
  H   H1307     1.0  0.79123  0.94818  0.13988  1.0000
  H   H1308     1.0  0.88475  0.92372  0.16643  1.0000
  H   H1309     1.0  0.50329  0.60232  0.20916  1.0000
  H   H1310     1.0  0.53413  0.64669  0.14064  1.0000
  H   H1311     1.0  0.92301  0.56615  0.19971  1.0000
  C   C1101     1.0  0.52078  0.63382  0.10517  1.0000
  C   C1102     1.0  0.83624  0.50123  0.03104  1.0000
  C   C1103     1.0  0.53535  0.51390  0.17850  1.0000
  C   C1104     1.0  0.84155  0.96000  0.01878  1.0000
  H   H1312     1.0  0.58571  0.51216  0.15263  1.0000
  S   S310      1.0  0.58057  0.59745  0.23692  1.0000
  H   H1313     1.0  0.83209  0.93990  0.02384  1.0000
  C   C1105     1.0  0.75869  0.75450  0.21241  1.0000
  C   C1106     1.0  0.74638  0.76727  0.22157  1.0000
  H   H1314     1.0  0.58161  0.54671  0.13585  1.0000
  C   C1107     1.0  0.70393  0.72719  0.21996  1.0000
  C   C1108     1.0  0.71632  0.71435  0.21116  1.0000
  C   C1109     1.0  0.74338  0.72793  0.20732  1.0000
  H   H1315     1.0  0.77438  0.90206  0.13758  1.0000
  C   C1110     1.0  0.53856  0.50102  0.13864  1.0000
  H   H1316     1.0  0.70501  0.69399  0.20704  1.0000
  H   H1317     1.0  0.75249  0.71771  0.20020  1.0000
  H   H1318     1.0  0.55524  0.55147  0.14341  1.0000
  C   C1111     1.0  0.65541  0.95336  0.00653  1.0000
  C   C1112     1.0  0.48733  0.89979  0.19594  1.0000
  C   C1113     1.0  0.49741  0.90140  0.17305  1.0000
  H   H1319     1.0  0.46853  0.58514  0.05511  1.0000
  H   H1320     1.0  0.90543  0.49729  0.14055  1.0000
  C   C1114     1.0  0.70650  0.89850  0.13089  1.0000
  H   H1321     1.0  0.50053  0.90996  0.21028  1.0000
  C   C1115     1.0  0.75464  0.89957  0.13613  1.0000
  H   H1322     1.0  0.93216  0.90467  0.15458  1.0000
  C   C1116     1.0  0.84733  0.91339  0.20225  1.0000
  C   C1117     1.0  0.85554  0.93926  0.19729  1.0000
  C   C1118     1.0  0.85040  0.94619  0.17517  1.0000
  C   C1119     1.0  0.83678  0.92720  0.15814  1.0000
  C   C1120     1.0  0.82834  0.90131  0.16321  1.0000
  C   C1121     1.0  0.83364  0.89440  0.18525  1.0000
  H   H1323     1.0  0.86628  0.95402  0.21037  1.0000
  H   H1324     1.0  0.79903  0.74085  0.24281  1.0000
  H   H1325     1.0  0.81779  0.88658  0.15004  1.0000
  H   H1326     1.0  0.82694  0.87435  0.18913  1.0000
  C   C1122     1.0  0.50239  0.48498  0.20675  1.0000
  C   C1123     1.0  0.59886  0.96464  0.03046  1.0000
  H   H1327     1.0  0.94883  0.93679  0.14252  1.0000
  H   H1328     1.0  0.85726  0.96625  0.17126  1.0000
  H   H1329     1.0  0.66556  0.88192  0.13687  1.0000
  C   C1124     1.0  0.71410  0.96988  0.15413  1.0000
  C   C1125     1.0  0.71092  0.52013  0.09437  1.0000
  C   C1126     1.0  0.51608  0.53034  0.20691  1.0000
  C   C1127     1.0  0.83925  0.50901  0.00733  1.0000
  H   H1330     1.0  0.84480  0.52874  0.00311  1.0000
  H   H1331     1.0  0.95931  0.58579  0.22861  1.0000
  C   C1128     1.0  0.93641  0.96006  0.17602  1.0000
  C   C1129     1.0  0.60541  0.49450  0.03282  1.0000
  C   C1130     1.0  0.73555  0.52309  0.09198  1.0000
  H   H1332     1.0  0.84747  0.97385  0.05480  1.0000
  C   C1131     1.0  0.70613  0.49222  0.14821  1.0000
  H   H1333     1.0  0.90618  0.89690  0.19227  1.0000
  C   C1132     1.0  0.96343  0.58541  0.21009  1.0000
  S   S311      1.0  0.60446  0.97147  0.15750  1.0000
  H   H1334     1.0  0.58389  0.52230  0.18206  1.0000
  H   H1335     1.0  0.70681  0.88395  0.14186  1.0000
  S   S312      1.0  0.80951  0.48507  0.11111  1.0000
  C   C1133     1.0  0.94983  0.51381  0.16465  1.0000
  H   H1336     1.0  0.54017  0.64192  0.09819  1.0000
  H   H1337     1.0  0.90630  0.96664  0.16073  1.0000
  H   H1338     1.0  0.77407  0.96282  0.12776  1.0000
  H   H1339     1.0  0.89107  0.90029  0.15408  1.0000
  N   N73       1.0  0.92385  0.93189  0.17172  1.0000
  H   H1340     1.0  0.77117  0.94092  0.09008  1.0000
  H   H1341     1.0  0.69466  0.50164  0.09955  1.0000
  C   C1134     1.0  0.92481  0.97493  0.16955  1.0000
  C   C1135     1.0  0.90807  0.48218  0.14943  1.0000
  H   H1342     1.0  0.52275  0.50459  0.13324  1.0000
  C   C1136     1.0  0.94268  0.57422  0.19364  1.0000
  H   H1343     1.0  0.77963  0.48629  0.19274  1.0000
  C   C1137     1.0  0.91154  0.50334  0.18628  1.0000
  Fe  Fe156     1.0  0.61517  0.49885  0.12245  1.0000
  C   C1138     1.0  0.68253  0.89701  0.12810  1.0000
  S   S313      1.0  0.83049  0.93545  0.13033  1.0000
  H   H1344     1.0  0.95508  0.87467  0.14369  1.0000
  C   C1139     1.0  0.56816  0.54462  0.15039  1.0000
  C   C1140     1.0  0.46867  0.58045  0.18787  1.0000
  H   H1345     1.0  0.75764  0.78768  0.22545  1.0000
  H   H1346     1.0  0.93412  0.92288  0.20563  1.0000
  C   C1141     1.0  0.76710  0.92325  0.09992  1.0000
  H   H1347     1.0  0.60988  0.50051  0.05105  1.0000
  H   H1348     1.0  0.94852  0.52963  0.15563  1.0000
  H   H1349     1.0  0.69326  0.49884  0.15413  1.0000
  C   C1142     1.0  0.50077  0.50564  0.21609  1.0000
  C   C1143     1.0  0.49268  0.62620  0.13826  1.0000
  C   C1144     1.0  0.68032  0.91513  0.11445  1.0000
  H   H1350     1.0  0.75448  0.90629  0.08864  1.0000
  N   N74       1.0  0.78394  0.55160  0.08477  1.0000
  C   C1145     1.0  0.79662  0.56489  0.06245  1.0000
  C   C1146     1.0  0.79920  0.56797  0.10495  1.0000
  C   C1147     1.0  0.78498  0.52734  0.08563  1.0000
  C   C1148     1.0  0.75734  0.54737  0.08610  1.0000
  C   C1149     1.0  0.75282  0.56830  0.08289  1.0000
  H   H1351     1.0  0.71006  0.76402  0.23190  1.0000
  C   C1150     1.0  0.65562  0.96506  0.04746  1.0000
  H   H1352     1.0  0.48107  0.97256  0.17760  1.0000
  H   H1353     1.0  0.48674  0.88832  0.13727  1.0000
  H   H1354     1.0  0.78469  0.55413  0.04688  1.0000
  H   H1355     1.0  0.80027  0.58496  0.06163  1.0000
  H   H1356     1.0  0.81594  0.56650  0.06031  1.0000
  H   H1357     1.0  0.80099  0.58735  0.10455  1.0000
  H   H1358     1.0  0.81916  0.57102  0.10525  1.0000
  H   H1359     1.0  0.73703  0.50619  0.09546  1.0000
  H   H1360     1.0  0.77346  0.51393  0.07117  1.0000
  H   H1361     1.0  0.80512  0.53109  0.08380  1.0000
  H   H1362     1.0  0.77813  0.51735  0.10281  1.0000
  H   H1363     1.0  0.76850  0.58755  0.07929  1.0000
  S   S314      1.0  0.82634  0.83251  0.24808  1.0000
  H   H1364     1.0  0.74775  0.89816  0.15458  1.0000
  C   C1151     1.0  0.72914  0.91853  0.12003  1.0000
  H   H1365     1.0  0.74234  0.88088  0.12690  1.0000
  H   H1366     1.0  0.51337  0.57295  0.14350  1.0000
  S   S315      1.0  0.63076  0.54157  0.12262  1.0000
  H   H1367     1.0  0.64723  0.96001  0.06494  1.0000
  N   N75       1.0  0.55326  0.51756  0.15898  1.0000
  C   C1152     1.0  0.72806  0.56504  0.08510  1.0000
  C   C1153     1.0  0.72617  0.93676  0.10637  1.0000
  C   C1154     1.0  0.77155  0.94526  0.13688  1.0000
  H   H1368     1.0  0.55124  0.50483  0.12301  1.0000
  C   C1155     1.0  0.75015  0.49887  0.14567  1.0000
  H   H1369     1.0  0.78611  0.92417  0.10169  1.0000
  H   H1370     1.0  0.51492  0.54655  0.21412  1.0000
  H   H1371     1.0  0.58050  0.55806  0.16460  1.0000
  S   S316      1.0  0.59478  0.65775  0.23568  1.0000
  C   C1156     1.0  0.53317  0.53454  0.18842  1.0000
  H   H1372     1.0  0.54452  0.55423  0.18231  1.0000
  C   C1157     1.0  0.70716  0.54101  0.09088  1.0000
  C   C1158     1.0  0.51811  0.96738  0.19303  1.0000
  H   H1373     1.0  0.68806  0.53867  0.09314  1.0000
  H   H1374     1.0  0.60372  0.52788  0.23404  1.0000
  H   H1375     1.0  0.89138  0.48869  0.19085  1.0000
  H   H1376     1.0  0.50634  0.96854  0.20761  1.0000
  C   C1159     1.0  0.71928  0.75375  0.22517  1.0000
  C   C1160     1.0  0.89986  0.92142  0.15731  1.0000
  C   C1161     1.0  0.96055  0.97327  0.18800  1.0000
  H   H1377     1.0  0.91020  0.51903  0.17714  1.0000
  N   N76       1.0  0.75503  0.92138  0.12325  1.0000
  H   H1378     1.0  0.66185  0.91432  0.11286  1.0000
  H   H1379     1.0  0.58753  0.93627  0.00281  1.0000
  C   C1162     1.0  0.70272  0.50125  0.03152  1.0000
  C   C1163     1.0  0.51747  0.63670  0.12907  1.0000
  C   C1164     1.0  0.59637  0.95663  0.00682  1.0000
  H   H1380     1.0  0.49018  0.62802  0.15698  1.0000
  C   C1165     1.0  0.70497  0.50784  0.00759  1.0000
  C   C1166     1.0  0.69745  0.97531  0.14079  1.0000
  C   C1167     1.0  0.64554  0.94686  0.02941  1.0000
  Fe  Fe157     1.0  0.84368  0.97755  0.12677  1.0000
  H   H1381     1.0  0.71985  0.50833  0.04244  1.0000
  C   C1168     1.0  0.47368  0.60893  0.09929  1.0000
  C   C1169     1.0  0.95828  0.87923  0.18151  1.0000
  H   H1382     1.0  0.92280  0.51190  0.20277  1.0000
  H   H1383     1.0  0.56280  0.48955  0.17260  1.0000
  C   C1170     1.0  0.47108  0.61235  0.12372  1.0000
  H   H1384     1.0  0.96014  0.50784  0.15220  1.0000
  H   H1385     1.0  0.53673  0.97622  0.14901  1.0000
  C   C1171     1.0  0.58818  0.50918  0.23939  1.0000
  C   C1172     1.0  0.47413  0.56354  0.15113  1.0000
  H   H1386     1.0  0.50512  0.95289  0.17979  1.0000
  H   H1387     1.0  0.59200  0.49134  0.20774  1.0000
  H   H1388     1.0  0.77961  0.48044  0.04245  1.0000
  H   H1389     1.0  0.72429  0.52003  0.00103  1.0000
  C   C1173     1.0  0.65834  0.48347  0.00389  1.0000
  C   C1174     1.0  0.67847  0.48572  0.04154  1.0000
  H   H1390     1.0  0.52998  0.48007  0.14256  1.0000
  H   H1391     1.0  0.67661  0.48062  0.06007  1.0000
  Fe  Fe158     1.0  0.83813  0.47845  0.13099  1.0000
  H   H1392     1.0  0.80383  0.47958  0.20315  1.0000
  Fe  Fe159     1.0  0.84186  0.83675  0.45616  1.0000
  H   H1393     1.0  0.77770  0.69527  0.28920  1.0000
  H   H1394     1.0  0.73784  0.69197  0.45868  1.0000
  Fe  Fe160     1.0  0.81444  0.84941  0.41885  1.0000
  S   S317      1.0  0.78665  0.84974  0.44544  1.0000
  S   S318      1.0  0.80920  0.85418  0.37977  1.0000
  Fe  Fe161     1.0  0.82151  0.87239  0.46946  1.0000
  H   H1395     1.0  0.54879  0.51322  0.29872  1.0000
  Fe  Fe162     1.0  0.78319  0.81240  0.45877  1.0000
  S   S319      1.0  0.74170  0.77704  0.46254  1.0000
  S   S320      1.0  0.84914  0.87459  0.44145  1.0000
  S   S321      1.0  0.80973  0.81184  0.43118  1.0000
  C   C1175     1.0  0.70880  0.67703  0.39631  1.0000
  S   S322      1.0  0.86258  0.82224  0.29977  1.0000
  Fe  Fe163     1.0  0.60050  0.55810  0.46930  1.0000
  S   S323      1.0  0.57566  0.55786  0.43920  1.0000
  C   C1176     1.0  0.68091  0.67623  0.36324  1.0000
  Fe  Fe164     1.0  0.64244  0.61703  0.45849  1.0000
  S   S324      1.0  0.61854  0.61893  0.42885  1.0000
  S   S325      1.0  0.68418  0.65209  0.46221  1.0000
  Fe  Fe165     1.0  0.58473  0.59672  0.45257  1.0000
  H   H1396     1.0  0.91561  0.90648  0.48782  1.0000
  Fe  Fe166     1.0  0.61201  0.58020  0.41813  1.0000
  S   S326      1.0  0.61789  0.57391  0.37958  1.0000
  C   C1177     1.0  0.66923  0.63835  0.38731  1.0000
  S   S327      1.0  0.63703  0.57818  0.44697  1.0000
  H   H1397     1.0  0.48935  0.89706  0.46481  1.0000
  S   S328      1.0  0.58487  0.62706  0.30011  1.0000
  C   C1178     1.0  0.60874  0.58885  0.35764  1.0000
  C   C1179     1.0  0.61806  0.59105  0.33452  1.0000
  C   C1180     1.0  0.61100  0.60277  0.31669  1.0000
  C   C1181     1.0  0.59442  0.61226  0.32186  1.0000
  C   C1182     1.0  0.58540  0.61032  0.34504  1.0000
  C   C1183     1.0  0.59258  0.59876  0.36288  1.0000
  H   H1398     1.0  0.63102  0.58393  0.33053  1.0000
  H   H1399     1.0  0.61847  0.60462  0.29900  1.0000
  H   H1400     1.0  0.57262  0.61766  0.34922  1.0000
  H   H1401     1.0  0.58524  0.59717  0.38060  1.0000
  H   H1402     1.0  0.67124  0.63074  0.40468  1.0000
  H   H1403     1.0  0.84305  0.94292  0.29733  1.0000
  H   H1404     1.0  0.67558  0.70009  0.30004  1.0000
  C   C1184     1.0  0.89150  0.84191  0.48714  1.0000
  C   C1185     1.0  0.72625  0.74229  0.46200  1.0000
  C   C1186     1.0  0.73997  0.72911  0.45974  1.0000
  C   C1187     1.0  0.72681  0.70173  0.45990  1.0000
  C   C1188     1.0  0.69966  0.68686  0.46198  1.0000
  C   C1189     1.0  0.68588  0.70005  0.46366  1.0000
  C   C1190     1.0  0.69908  0.72742  0.46384  1.0000
  H   H1405     1.0  0.76081  0.74001  0.45842  1.0000
  C   C1191     1.0  0.73721  0.67614  0.28290  1.0000
  H   H1406     1.0  0.66509  0.68916  0.46546  1.0000
  H   H1407     1.0  0.68813  0.73718  0.46587  1.0000
  C   C1192     1.0  0.49404  0.54265  0.47297  1.0000
  H   H1408     1.0  0.88057  0.53929  0.48854  1.0000
  Fe  Fe167     1.0  0.86164  0.83258  0.26127  1.0000
  C   C1193     1.0  0.82262  0.84315  0.35800  1.0000
  C   C1194     1.0  0.81756  0.84516  0.33415  1.0000
  C   C1195     1.0  0.82927  0.83837  0.31619  1.0000
  C   C1196     1.0  0.84602  0.82924  0.32191  1.0000
  C   C1197     1.0  0.85010  0.82604  0.34582  1.0000
  C   C1198     1.0  0.83855  0.83306  0.36381  1.0000
  H   H1409     1.0  0.80487  0.85247  0.32959  1.0000
  H   H1410     1.0  0.82564  0.84061  0.29795  1.0000
  H   H1411     1.0  0.86294  0.81891  0.35048  1.0000
  H   H1412     1.0  0.84258  0.83135  0.38214  1.0000
  C   C1199     1.0  0.95520  0.59525  0.47559  1.0000
  H   H1413     1.0  0.48985  0.76101  0.49634  1.0000
  H   H1414     1.0  0.70872  0.66893  0.41409  1.0000
  H   H1415     1.0  0.88825  0.89435  0.29348  1.0000
  H   H1416     1.0  0.82432  0.76556  0.30372  1.0000
  C   C1200     1.0  0.57528  0.50587  0.26122  1.0000
  H   H1417     1.0  0.84763  0.88617  0.27878  1.0000
  H   H1418     1.0  0.61706  0.52722  0.28899  1.0000
  H   H1419     1.0  0.89854  0.95283  0.29331  1.0000
  H   H1420     1.0  0.87591  0.90235  0.37876  1.0000
  H   H1421     1.0  0.88869  0.92624  0.27316  1.0000
  H   H1422     1.0  0.72220  0.70430  0.35896  1.0000
  H   H1423     1.0  0.93866  0.57507  0.47497  1.0000
  S   S329      1.0  0.81549  0.83488  0.48525  1.0000
  Fe  Fe168     1.0  0.59776  0.63097  0.26196  1.0000
  H   H1424     1.0  0.57707  0.53816  0.31246  1.0000
  N   N77       1.0  0.58322  0.52812  0.27733  1.0000
  C   C1201     1.0  0.85022  0.93496  0.31131  1.0000
  C   C1202     1.0  0.88765  0.52890  0.49884  1.0000
  H   H1425     1.0  0.81311  0.78733  0.27697  1.0000
  H   H1426     1.0  0.49913  0.49224  0.44507  1.0000
  H   H1427     1.0  0.47306  0.53584  0.47146  1.0000
  N   N78       1.0  0.86135  0.91984  0.30107  1.0000
  H   H1428     1.0  0.81034  0.72584  0.26317  1.0000
  C   C1203     1.0  0.87235  0.91001  0.31898  1.0000
  H   H1429     1.0  0.92998  0.85753  0.47333  1.0000
  C   C1204     1.0  0.52993  0.54930  0.49705  1.0000
  C   C1205     1.0  0.84047  0.89775  0.28799  1.0000
  C   C1206     1.0  0.70111  0.70404  0.32877  1.0000
  H   H1430     1.0  0.59438  0.48645  0.47418  1.0000
  C   C1207     1.0  0.86902  0.91155  0.34367  1.0000
  H   H1431     1.0  0.53987  0.57051  0.49400  1.0000
  H   H1432     1.0  0.85803  0.91972  0.35089  1.0000
  C   C1208     1.0  0.71613  0.67827  0.27555  1.0000
  H   H1433     1.0  0.52565  0.70295  0.47253  1.0000
  H   H1434     1.0  0.83173  0.90426  0.27417  1.0000
  H   H1435     1.0  0.49922  0.53335  0.45868  1.0000
  C   C1209     1.0  0.89318  0.89004  0.35245  1.0000
  C   C1210     1.0  0.56930  0.63149  0.49451  1.0000
  H   H1436     1.0  0.71913  0.69833  0.39880  1.0000
  C   C1211     1.0  0.56996  0.52104  0.30056  1.0000
  C   C1212     1.0  0.91839  0.85368  0.48905  1.0000
  H   H1437     1.0  0.67724  0.63112  0.37353  1.0000
  C   C1213     1.0  0.88163  0.93686  0.28405  1.0000
  H   H1438     1.0  0.46939  0.91505  0.49103  1.0000
  N   N79       1.0  0.68210  0.66695  0.38718  1.0000
  H   H1439     1.0  0.62324  0.55034  0.26606  1.0000
  H   H1440     1.0  0.64813  0.62903  0.38417  1.0000
  N   N80       1.0  0.73312  0.78929  0.38560  1.0000
  C   C1214     1.0  0.73618  0.81068  0.40113  1.0000
  C   C1215     1.0  0.75121  0.78080  0.39373  1.0000
  C   C1216     1.0  0.74094  0.80005  0.36143  1.0000
  C   C1217     1.0  0.70632  0.76719  0.38675  1.0000
  C   C1218     1.0  0.69428  0.75743  0.40887  1.0000
  C   C1219     1.0  0.69172  0.75420  0.36626  1.0000
  C   C1220     1.0  0.66881  0.73701  0.41039  1.0000
  C   C1221     1.0  0.66633  0.73356  0.36798  1.0000
  C   C1222     1.0  0.65479  0.72521  0.38998  1.0000
  H   H1441     1.0  0.73509  0.80590  0.42022  1.0000
  H   H1442     1.0  0.75547  0.82839  0.39895  1.0000
  H   H1443     1.0  0.72120  0.81599  0.39730  1.0000
  H   H1444     1.0  0.74934  0.76446  0.38296  1.0000
  H   H1445     1.0  0.74773  0.77434  0.41246  1.0000
  H   H1446     1.0  0.77167  0.79680  0.39263  1.0000
  H   H1447     1.0  0.72744  0.80596  0.35404  1.0000
  H   H1448     1.0  0.76055  0.81755  0.36131  1.0000
  H   H1449     1.0  0.74218  0.78619  0.34924  1.0000
  H   H1450     1.0  0.70447  0.76554  0.42525  1.0000
  H   H1451     1.0  0.69934  0.75971  0.34865  1.0000
  H   H1452     1.0  0.66000  0.73020  0.42756  1.0000
  H   H1453     1.0  0.65543  0.72408  0.35214  1.0000
  H   H1454     1.0  0.63503  0.70938  0.39122  1.0000
  H   H1455     1.0  0.78112  0.77364  0.28847  1.0000
  C   C1223     1.0  0.95587  0.92088  0.48839  1.0000
  H   H1456     1.0  0.69715  0.66119  0.27389  1.0000
  H   H1457     1.0  0.58292  0.56401  0.27749  1.0000
  H   H1458     1.0  0.95014  0.60498  0.48962  1.0000
  S   S330      1.0  0.55168  0.60437  0.45295  1.0000
  H   H1459     1.0  0.80849  0.73147  0.30569  1.0000
  C   C1224     1.0  0.80494  0.74770  0.30244  1.0000
  H   H1460     1.0  0.91991  0.79330  0.48836  1.0000
  H   H1461     1.0  0.66774  0.66735  0.42182  1.0000
  C   C1225     1.0  0.87330  0.95658  0.48760  1.0000
  C   C1226     1.0  0.76183  0.69809  0.28429  1.0000
  H   H1462     1.0  0.90051  0.88179  0.36521  1.0000
  C   C1227     1.0  0.51888  0.69612  0.49078  1.0000
  H   H1463     1.0  0.52992  0.80343  0.49457  1.0000
  H   H1464     1.0  0.90622  0.87774  0.32253  1.0000
  H   H1465     1.0  0.87610  0.94929  0.47110  1.0000
  H   H1466     1.0  0.95491  0.78260  0.49573  1.0000
  H   H1467     1.0  0.83327  0.92278  0.32273  1.0000
  S   S331      1.0  0.63883  0.64353  0.25347  1.0000
  H   H1468     1.0  0.50932  0.60833  0.47089  1.0000
  C   C1228     1.0  0.52521  0.61780  0.48325  1.0000
  H   H1469     1.0  0.61774  0.55705  0.29508  1.0000
  S   S332      1.0  0.87681  0.83231  0.45944  1.0000
  H   H1470     1.0  0.86490  0.95162  0.32184  1.0000
  C   C1229     1.0  0.87937  0.90170  0.36005  1.0000
  C   C1230     1.0  0.79312  0.77061  0.27535  1.0000
  H   H1471     1.0  0.79300  0.74836  0.31713  1.0000
  C   C1231     1.0  0.57731  0.54685  0.26603  1.0000
  C   C1232     1.0  0.50848  0.76207  0.49729  1.0000
  H   H1472     1.0  0.96236  0.74642  0.49115  1.0000
  H   H1473     1.0  0.94187  0.50758  0.49036  1.0000
  C   C1233     1.0  0.66850  0.67506  0.40385  1.0000
  C   C1234     1.0  0.65680  0.66640  0.35140  1.0000
  C   C1235     1.0  0.65506  0.67494  0.32889  1.0000
  C   C1236     1.0  0.67715  0.69370  0.31758  1.0000
  H   H1474     1.0  0.64813  0.66800  0.39851  1.0000
  H   H1475     1.0  0.67852  0.69641  0.40544  1.0000
  H   H1476     1.0  0.63898  0.65191  0.35941  1.0000
  H   H1477     1.0  0.63640  0.66683  0.32010  1.0000
  C   C1237     1.0  0.71956  0.70235  0.26968  1.0000
  H   H1478     1.0  0.71825  0.71854  0.31979  1.0000
  N   N81       1.0  0.50132  0.53739  0.49649  1.0000
  C   C1238     1.0  0.54881  0.61918  0.47851  1.0000
  C   C1239     1.0  0.89649  0.88790  0.32842  1.0000
  H   H1479     1.0  0.57050  0.72714  0.49118  1.0000
  C   C1240     1.0  0.61146  0.54110  0.28204  1.0000
  C   C1241     1.0  0.70311  0.69557  0.35130  1.0000
  S   S333      1.0  0.60833  0.59698  0.48350  1.0000
  N   N82       1.0  0.79245  0.74576  0.27923  1.0000
  H   H1480     1.0  0.95552  0.91294  0.47111  1.0000
  H   H1481     1.0  0.87420  0.94554  0.27101  1.0000
  C   C1242     1.0  0.88609  0.89752  0.31188  1.0000
  H   H1482     1.0  0.72019  0.67165  0.38453  1.0000
  C   C1243     1.0  0.76601  0.72299  0.27859  1.0000
  H   H1483     1.0  0.82476  0.88457  0.30003  1.0000
  C   C1244     1.0  0.47070  0.89479  0.46021  1.0000
  H   H1484     1.0  0.73452  0.65726  0.28696  1.0000
  H   H1485     1.0  0.55634  0.53794  0.26196  1.0000
  C   C1245     1.0  0.74405  0.72445  0.27114  1.0000
  H   H1486     1.0  0.57341  0.50671  0.30994  1.0000
  C   C1246     1.0  0.80814  0.74301  0.26049  1.0000
  H   H1487     1.0  0.50418  0.56367  0.46911  1.0000
  C   C1247     1.0  0.93290  0.91726  0.49832  1.0000
  H   H1488     1.0  0.82795  0.76018  0.25965  1.0000
  C   C1248     1.0  0.87938  0.50284  0.49302  1.0000
  H   H1489     1.0  0.58764  0.63281  0.49085  1.0000
  H   H1490     1.0  0.74532  0.74229  0.26560  1.0000
  H   H1491     1.0  0.95252  0.56663  0.44103  1.0000
  C   C1249     1.0  0.95328  0.50013  0.48246  1.0000
  S   S334      1.0  0.57933  0.52261  0.49473  1.0000
  C   C1250     1.0  0.55432  0.48072  0.26617  1.0000
  H   H1492     1.0  0.95610  0.60510  0.45868  1.0000
  H   H1493     1.0  0.70318  0.70376  0.26328  1.0000
  S   S335      1.0  0.83015  0.90658  0.49500  1.0000
  H   H1494     1.0  0.49796  0.68973  0.49156  1.0000
  H   H1495     1.0  0.53695  0.54137  0.48298  1.0000
  H   H1496     1.0  0.78654  0.77184  0.25726  1.0000
  H   H1497     1.0  0.52014  0.67837  0.49375  1.0000
  H   H1498     1.0  0.86609  0.49357  0.47849  1.0000
  H   H1499     1.0  0.53822  0.48882  0.45146  1.0000
  C   C1251     1.0  0.53104  0.78598  0.49634  1.0000
  H   H1500     1.0  0.57246  0.80620  0.49774  1.0000
  C   C1252     1.0  0.55497  0.78747  0.49832  1.0000
  Fe  Fe169     1.0  0.51020  0.85833  0.55057  1.0000
  Fe  Fe170     1.0  0.47970  0.88685  0.55038  1.0000
  S   S336      1.0  0.51587  0.82258  0.54922  1.0000
  Fe  Fe171     1.0  0.53695  0.91896  0.54059  1.0000
  S   S337      1.0  0.51133  0.92315  0.56677  1.0000
  S   S338      1.0  0.56639  0.95357  0.51771  1.0000
  Fe  Fe172     1.0  0.51655  0.89592  0.59031  1.0000
  S   S339      1.0  0.52727  0.90259  0.62918  1.0000
  S   S340      1.0  0.46939  0.60292  0.56620  1.0000
  S   S341      1.0  0.92958  0.86229  0.55969  1.0000
  S   S342      1.0  0.54486  0.89408  0.56553  1.0000
  S   S343      1.0  0.50481  0.88304  0.52306  1.0000
  S   S344      1.0  0.52702  0.64407  0.71077  1.0000
  Fe  Fe173     1.0  0.94023  0.60775  0.55015  1.0000
  H   H1501     1.0  0.88854  0.84801  0.71761  1.0000
  S   S345      1.0  0.91282  0.57406  0.52527  1.0000
  H   H1502     1.0  0.90371  0.80236  0.54922  1.0000
  S   S346      1.0  0.48736  0.66355  0.58073  1.0000
  S   S347      1.0  0.94948  0.69836  0.57001  1.0000
  Fe  Fe174     1.0  0.49725  0.64274  0.55330  1.0000
  S   S348      1.0  0.53863  0.65451  0.54601  1.0000
  H   H1503     1.0  0.58209  0.65223  0.52748  1.0000
  C   C1253     1.0  0.88497  0.90705  0.51829  1.0000
  H   H1504     1.0  0.59632  0.52562  0.57950  1.0000
  S   S349      1.0  0.92815  0.62500  0.57960  1.0000
  C   C1254     1.0  0.84388  0.49207  0.54600  1.0000
  C   C1255     1.0  0.54237  0.64069  0.52013  1.0000
  C   C1256     1.0  0.58434  0.48599  0.58786  1.0000
  C   C1257     1.0  0.56080  0.71999  0.50850  1.0000
  H   H1505     1.0  0.49431  0.84442  0.62348  1.0000
  C   C1258     1.0  0.87370  0.56127  0.58607  1.0000
  H   H1506     1.0  0.47374  0.94564  0.53108  1.0000
  C   C1259     1.0  0.50349  0.63410  0.68805  1.0000
  H   H1507     1.0  0.53097  0.70140  0.70419  1.0000
  C   C1260     1.0  0.94631  0.81108  0.52861  1.0000
  H   H1508     1.0  0.53050  0.78472  0.56078  1.0000
  C   C1261     1.0  0.84940  0.95050  0.52343  1.0000
  C   C1262     1.0  0.51150  0.64100  0.66460  1.0000
  H   H1509     1.0  0.86725  0.90436  0.52731  1.0000
  C   C1263     1.0  0.93258  0.92673  0.52127  1.0000
  H   H1510     1.0  0.49973  0.63927  0.62822  1.0000
  H   H1511     1.0  0.53192  0.65200  0.66063  1.0000
  H   H1512     1.0  0.61686  0.48610  0.52883  1.0000
  C   C1264     1.0  0.91332  0.52745  0.53100  1.0000
  C   C1265     1.0  0.90444  0.54142  0.51803  1.0000
  C   C1266     1.0  0.50778  0.97415  0.51452  1.0000
  H   H1513     1.0  0.85679  0.83946  0.72797  1.0000
  C   C1267     1.0  0.50971  0.73960  0.50069  1.0000
  H   H1514     1.0  0.50272  0.74750  0.63890  1.0000
  C   C1268     1.0  0.49756  0.78779  0.54997  1.0000
  H   H1515     1.0  0.88203  0.88741  0.51524  1.0000
  N   N83       1.0  0.53439  0.71652  0.50840  1.0000
  C   C1269     1.0  0.53374  0.74039  0.50304  1.0000
  C   C1270     1.0  0.49688  0.74672  0.55676  1.0000
  C   C1271     1.0  0.51016  0.77407  0.55631  1.0000
  H   H1516     1.0  0.85204  0.52579  0.62109  1.0000
  H   H1517     1.0  0.94391  0.74143  0.58438  1.0000
  H   H1518     1.0  0.92697  0.87382  0.74415  1.0000
  H   H1519     1.0  0.91093  0.49053  0.53626  1.0000
  C   C1272     1.0  0.93033  0.86073  0.51125  1.0000
  C   C1273     1.0  0.61687  0.97403  0.60810  1.0000
  C   C1274     1.0  0.47575  0.69654  0.72578  1.0000
  H   H1520     1.0  0.56034  0.70141  0.51208  1.0000
  N   N84       1.0  0.50004  0.70894  0.71196  1.0000
  H   H1521     1.0  0.54413  0.48538  0.52850  1.0000
  C   C1275     1.0  0.91537  0.85540  0.53159  1.0000
  N   N85       1.0  0.88111  0.54225  0.59412  1.0000
  C   C1276     1.0  0.93331  0.72222  0.51608  1.0000
  C   C1277     1.0  0.47732  0.79584  0.64402  1.0000
  H   H1522     1.0  0.95805  0.94849  0.55060  1.0000
  H   H1523     1.0  0.95835  0.80895  0.54241  1.0000
  H   H1524     1.0  0.48830  0.83265  0.66176  1.0000
  C   C1278     1.0  0.86664  0.97650  0.53019  1.0000
  H   H1525     1.0  0.56686  0.94524  0.59603  1.0000
  C   C1279     1.0  0.49385  0.70845  0.68656  1.0000
  H   H1526     1.0  0.51708  0.80504  0.59746  1.0000
  H   H1527     1.0  0.53030  0.89925  0.67971  1.0000
  C   C1280     1.0  0.88849  0.84367  0.52966  1.0000
  C   C1281     1.0  0.91049  0.74099  0.53531  1.0000
  C   C1282     1.0  0.96067  0.74912  0.57307  1.0000
  H   H1528     1.0  0.61671  0.52535  0.54172  1.0000
  C   C1283     1.0  0.85474  0.51504  0.55898  1.0000
  C   C1284     1.0  0.86913  0.51815  0.57998  1.0000
  H   H1529     1.0  0.95258  0.73510  0.69752  1.0000
  C   C1285     1.0  0.57806  0.96405  0.58666  1.0000
  S   S350      1.0  0.94013  0.84019  0.71735  1.0000
  H   H1530     1.0  0.91940  0.57300  0.60299  1.0000
  C   C1286     1.0  0.47850  0.81188  0.66306  1.0000
  H   H1531     1.0  0.59742  0.93228  0.58206  1.0000
  C   C1287     1.0  0.50188  0.73125  0.67305  1.0000
  C   C1288     1.0  0.85248  0.94014  0.50211  1.0000
  H   H1532     1.0  0.90417  0.70281  0.54235  1.0000
  H   H1533     1.0  0.50338  0.62633  0.50794  1.0000
  H   H1534     1.0  0.47237  0.66638  0.68363  1.0000
  H   H1535     1.0  0.91697  0.54227  0.59946  1.0000
  H   H1536     1.0  0.95107  0.87042  0.51251  1.0000
  H   H1537     1.0  0.51292  0.75031  0.68061  1.0000
  H   H1538     1.0  0.57551  0.48697  0.60413  1.0000
  H   H1539     1.0  0.52153  0.73480  0.74050  1.0000
  H   H1540     1.0  0.83349  0.93827  0.53491  1.0000
  C   C1289     1.0  0.87656  0.83706  0.50744  1.0000
  H   H1541     1.0  0.91451  0.95918  0.51841  1.0000
  C   C1290     1.0  0.49121  0.87627  0.69247  1.0000
  H   H1542     1.0  0.89301  0.94730  0.54310  1.0000
  C   C1291     1.0  0.87246  0.49714  0.58666  1.0000
  H   H1543     1.0  0.56894  0.96197  0.56905  1.0000
  C   C1292     1.0  0.48266  0.96453  0.52305  1.0000
  C   C1293     1.0  0.87345  0.53647  0.61926  1.0000
  H   H1544     1.0  0.92706  0.96171  0.54764  1.0000
  C   C1294     1.0  0.47920  0.68454  0.67457  1.0000
  H   H1545     1.0  0.47346  0.54505  0.51365  1.0000
  H   H1546     1.0  0.88397  0.49840  0.60186  1.0000
  H   H1547     1.0  0.90433  0.89214  0.55429  1.0000
  C   C1295     1.0  0.47329  0.68350  0.65057  1.0000
  C   C1296     1.0  0.48174  0.70613  0.63776  1.0000
  Fe  Fe175     1.0  0.51486  0.64038  0.74909  1.0000
  H   H1548     1.0  0.93569  0.84608  0.66746  1.0000
  C   C1297     1.0  0.56616  0.64252  0.51519  1.0000
  H   H1549     1.0  0.62724  0.95547  0.56873  1.0000
  H   H1550     1.0  0.49154  0.72172  0.50250  1.0000
  N   N86       1.0  0.60567  0.97176  0.58419  1.0000
  C   C1298     1.0  0.90788  0.78902  0.50448  1.0000
  H   H1551     1.0  0.85576  0.82749  0.50609  1.0000
  C   C1299     1.0  0.90494  0.91094  0.55584  1.0000
  C   C1300     1.0  0.60803  0.50828  0.55280  1.0000
  C   C1301     1.0  0.91470  0.72026  0.53196  1.0000
  H   H1552     1.0  0.88651  0.90711  0.56416  1.0000
  C   C1302     1.0  0.87763  0.85443  0.72906  1.0000
  C   C1303     1.0  0.52321  0.70735  0.53210  1.0000
  H   H1553     1.0  0.85236  0.55286  0.58618  1.0000
  H   H1554     1.0  0.49406  0.77454  0.60876  1.0000
  H   H1555     1.0  0.91368  0.78192  0.56312  1.0000
  C   C1304     1.0  0.50293  0.88770  0.65104  1.0000
  H   H1556     1.0  0.90324  0.80472  0.50637  1.0000
  C   C1305     1.0  0.46841  0.79900  0.60301  1.0000
  C   C1306     1.0  0.88733  0.48852  0.50661  1.0000
  C   C1307     1.0  0.95605  0.85475  0.67155  1.0000
  Fe  Fe176     1.0  0.95811  0.66495  0.56716  1.0000
  H   H1557     1.0  0.51725  0.96278  0.51619  1.0000
  C   C1308     1.0  0.51008  0.88879  0.67485  1.0000
  H   H1558     1.0  0.50696  0.73679  0.56194  1.0000
  H   H1559     1.0  0.87681  0.83940  0.54537  1.0000
  C   C1309     1.0  0.96385  0.85453  0.69494  1.0000
  H   H1560     1.0  0.50277  0.70271  0.53312  1.0000
  N   N87       1.0  0.90870  0.92335  0.53239  1.0000
  H   H1561     1.0  0.52340  0.68955  0.53707  1.0000
  C   C1310     1.0  0.49598  0.72995  0.64898  1.0000
  H   H1562     1.0  0.88204  0.57865  0.59766  1.0000
  C   C1311     1.0  0.60691  0.95056  0.57176  1.0000
  C   C1312     1.0  0.94759  0.74481  0.50321  1.0000
  C   C1313     1.0  0.90960  0.55475  0.59261  1.0000
  H   H1563     1.0  0.91742  0.89747  0.74662  1.0000
  H   H1564     1.0  0.93713  0.70642  0.51430  1.0000
  H   H1565     1.0  0.49697  0.87720  0.71072  1.0000
  C   C1314     1.0  0.49327  0.63381  0.64620  1.0000
  C   C1315     1.0  0.59633  0.50829  0.57399  1.0000
  H   H1566     1.0  0.52098  0.50377  0.50421  1.0000
  H   H1567     1.0  0.94386  0.82758  0.53388  1.0000
  C   C1316     1.0  0.91098  0.94898  0.53558  1.0000
  H   H1568     1.0  0.88037  0.90025  0.74841  1.0000
  C   C1317     1.0  0.92511  0.76454  0.52277  1.0000
  H   H1569     1.0  0.52137  0.84178  0.63404  1.0000
  H   H1570     1.0  0.92056  0.92292  0.56856  1.0000
  H   H1571     1.0  0.92645  0.53655  0.54561  1.0000
  C   C1318     1.0  0.51672  0.73534  0.72158  1.0000
  H   H1572     1.0  0.47640  0.80715  0.58534  1.0000
  H   H1573     1.0  0.57559  0.76769  0.50334  1.0000
  H   H1574     1.0  0.91615  0.55961  0.57402  1.0000
  C   C1319     1.0  0.47667  0.87409  0.64503  1.0000
  C   C1320     1.0  0.47122  0.77346  0.54422  1.0000
  S   S351      1.0  0.96701  0.64773  0.53562  1.0000
  C   C1321     1.0  0.90456  0.50122  0.52552  1.0000
  H   H1575     1.0  0.50126  0.67348  0.71240  1.0000
  S   S352      1.0  0.95043  0.61054  0.63847  1.0000
  H   H1576     1.0  0.85218  0.53029  0.55177  1.0000
  H   H1577     1.0  0.50693  0.74697  0.72088  1.0000
  H   H1578     1.0  0.53550  0.74564  0.71212  1.0000
  C   C1322     1.0  0.95668  0.94043  0.53325  1.0000
  H   H1579     1.0  0.88098  0.52482  0.62770  1.0000
  H   H1580     1.0  0.94529  0.59801  0.68771  1.0000
  C   C1323     1.0  0.47702  0.61992  0.69298  1.0000
  H   H1581     1.0  0.88136  0.55447  0.63005  1.0000
  H   H1582     1.0  0.88104  0.56849  0.56797  1.0000
  C   C1324     1.0  0.51380  0.69441  0.71587  1.0000
  C   C1325     1.0  0.50559  0.79532  0.61351  1.0000
  H   H1583     1.0  0.52058  0.69593  0.73446  1.0000
  C   C1326     1.0  0.50580  0.83480  0.62047  1.0000
  H   H1584     1.0  0.51956  0.79781  0.62768  1.0000
  H   H1585     1.0  0.53434  0.72208  0.54586  1.0000
  H   H1586     1.0  0.59664  0.94600  0.55445  1.0000
  S   S353      1.0  0.48243  0.85993  0.57635  1.0000
  H   H1587     1.0  0.49792  0.54586  0.53277  1.0000
  N   N88       1.0  0.92110  0.78685  0.52575  1.0000
  H   H1588     1.0  0.83356  0.49031  0.52970  1.0000
  C   C1327     1.0  0.96762  0.73685  0.70940  1.0000
  C   C1328     1.0  0.90513  0.78463  0.54665  1.0000
  H   H1589     1.0  0.88004  0.87236  0.72093  1.0000
  S   S354      1.0  0.47073  0.64335  0.52551  1.0000
  C   C1329     1.0  0.47084  0.73235  0.54997  1.0000
  H   H1590     1.0  0.47965  0.69670  0.74502  1.0000
  N   N89       1.0  0.48920  0.80624  0.62076  1.0000
  C   C1330     1.0  0.60807  0.48610  0.54554  1.0000
  H   H1591     1.0  0.88486  0.76854  0.54470  1.0000
  H   H1592     1.0  0.47081  0.87324  0.62683  1.0000
  Fe  Fe177     1.0  0.96043  0.62582  0.60090  1.0000
  H   H1593     1.0  0.53692  0.54659  0.51443  1.0000
  H   H1594     1.0  0.51540  0.84203  0.60308  1.0000
  H   H1595     1.0  0.60769  0.95507  0.61738  1.0000
  H   H1596     1.0  0.89600  0.73820  0.54808  1.0000
  C   C1331     1.0  0.52186  0.62814  0.50420  1.0000
  H   H1597     1.0  0.95784  0.81728  0.51213  1.0000
  C   C1332     1.0  0.94341  0.76559  0.50625  1.0000
  H   H1598     1.0  0.57308  0.73341  0.52272  1.0000
  H   H1599     1.0  0.47060  0.61436  0.71094  1.0000
  H   H1600     1.0  0.47732  0.70512  0.61906  1.0000
  C   C1333     1.0  0.96563  0.61085  0.68434  1.0000
  C   C1334     1.0  0.49417  0.55051  0.51470  1.0000
  H   H1601     1.0  0.88542  0.91593  0.50092  1.0000
  H   H1602     1.0  0.50544  0.57192  0.51275  1.0000
  C   C1335     1.0  0.50017  0.49490  0.50457  1.0000
  C   C1336     1.0  0.55646  0.76508  0.50159  1.0000
  H   H1603     1.0  0.96757  0.78820  0.57470  1.0000
  H   H1604     1.0  0.96144  0.56074  0.50033  1.0000
  H   H1605     1.0  0.89753  0.82892  0.74983  1.0000
  H   H1606     1.0  0.96769  0.66952  0.70996  1.0000
  H   H1607     1.0  0.57535  0.97838  0.59680  1.0000
  C   C1337     1.0  0.57009  0.48938  0.50040  1.0000
  C   C1338     1.0  0.48734  0.50920  0.50082  1.0000
  H   H1608     1.0  0.88932  0.77084  0.50115  1.0000
  Fe  Fe178     1.0  0.84453  0.93763  0.88444  1.0000
  C   C1339     1.0  0.87152  0.86583  0.76875  1.0000
  S   S355      1.0  0.86598  0.92058  0.86305  1.0000
  Fe  Fe179     1.0  0.80142  0.95276  0.89345  1.0000
  H   H1609     1.0  0.50880  0.60807  0.88426  1.0000
  S   S356      1.0  0.76209  0.94767  0.88176  1.0000
  Fe  Fe180     1.0  0.84958  0.49793  0.89785  1.0000
  S   S357      1.0  0.88180  0.53911  0.89554  1.0000
  Fe  Fe181     1.0  0.83393  0.95156  0.93444  1.0000
  S   S358      1.0  0.83424  0.94181  0.97313  1.0000
  S   S359      1.0  0.86963  0.96584  0.91253  1.0000
  S   S360      1.0  0.80870  0.92136  0.90753  1.0000
  H   H1610     1.0  0.56845  0.96433  0.79978  1.0000
  S   S361      1.0  0.49465  0.63918  0.81403  1.0000
  H   H1611     1.0  0.91890  0.48970  0.88968  1.0000
  H   H1612     1.0  0.95766  0.58542  0.84534  1.0000
  S   S362      1.0  0.54089  0.66892  0.77655  1.0000
  Fe  Fe182     1.0  0.52798  0.63451  0.80100  1.0000
  S   S363      1.0  0.55076  0.62536  0.82928  1.0000
  Fe  Fe183     1.0  0.50544  0.67111  0.78706  1.0000
  S   S364      1.0  0.51066  0.71234  0.78730  1.0000
  S   S365      1.0  0.50486  0.60631  0.77236  1.0000
  C   C1340     1.0  0.48914  0.50586  0.90087  1.0000
  Fe  Fe184     1.0  0.64960  0.51120  0.89299  1.0000
  H   H1613     1.0  0.52146  0.53587  0.81939  1.0000
  S   S366      1.0  0.69074  0.51603  0.89196  1.0000
  Fe  Fe185     1.0  0.61277  0.53319  0.87797  1.0000
  S   S367      1.0  0.58371  0.50893  0.90551  1.0000
  S   S368      1.0  0.59942  0.55175  0.84893  1.0000
  Fe  Fe186     1.0  0.61697  0.51903  0.93009  1.0000
  S   S369      1.0  0.61810  0.52976  0.96875  1.0000
  S   S370      1.0  0.48041  0.64371  0.75859  1.0000
  S   S371      1.0  0.57204  0.92956  0.89158  1.0000
  S   S372      1.0  0.64637  0.54607  0.90372  1.0000
  S   S373      1.0  0.61859  0.50052  0.86495  1.0000
  C   C1341     1.0  0.50128  0.82633  0.84914  1.0000
  S   S374      1.0  0.92336  0.80661  0.77941  1.0000
  C   C1342     1.0  0.48579  0.56888  0.85280  1.0000
  H   H1614     1.0  0.83590  0.59391  0.86457  1.0000
  S   S375      1.0  0.53389  0.90183  0.78654  1.0000
  H   H1615     1.0  0.85652  0.91405  0.77372  1.0000
  S   S376      1.0  0.95036  0.75947  0.79029  1.0000
  Fe  Fe187     1.0  0.93602  0.83857  0.80661  1.0000
  S   S377      1.0  0.90671  0.84341  0.83008  1.0000
  H   H1616     1.0  0.85806  0.83460  0.79498  1.0000
  H   H1617     1.0  0.50154  0.84504  0.85006  1.0000
  C   C1343     1.0  0.56162  0.92225  0.86241  1.0000
  C   C1344     1.0  0.57947  0.93063  0.84398  1.0000
  C   C1345     1.0  0.57084  0.92401  0.82066  1.0000
  C   C1346     1.0  0.54436  0.90954  0.81576  1.0000
  C   C1347     1.0  0.52654  0.90161  0.83419  1.0000
  C   C1348     1.0  0.53517  0.90764  0.85754  1.0000
  H   H1618     1.0  0.59995  0.94161  0.84776  1.0000
  H   H1619     1.0  0.58469  0.93012  0.80642  1.0000
  H   H1620     1.0  0.50614  0.89152  0.83052  1.0000
  H   H1621     1.0  0.52135  0.90144  0.87182  1.0000
  C   C1349     1.0  0.91166  0.88952  0.90385  1.0000
  H   H1622     1.0  0.89695  0.91525  0.90484  1.0000
  H   H1623     1.0  0.88109  0.86469  0.96529  1.0000
  C   C1350     1.0  0.49196  0.72834  0.78833  1.0000
  H   H1624     1.0  0.67282  0.48621  0.93409  1.0000
  C   C1351     1.0  0.74559  0.96489  0.88899  1.0000
  H   H1625     1.0  0.92186  0.88333  0.77287  1.0000
  C   C1352     1.0  0.49004  0.76817  0.78219  1.0000
  C   C1353     1.0  0.50325  0.75412  0.78049  1.0000
  H   H1626     1.0  0.85770  0.90957  0.91474  1.0000
  H   H1627     1.0  0.94164  0.70902  0.77803  1.0000
  H   H1628     1.0  0.49919  0.78786  0.77601  1.0000
  H   H1629     1.0  0.52264  0.76357  0.77346  1.0000
  C   C1354     1.0  0.56591  0.60610  0.83365  1.0000
  C   C1355     1.0  0.56609  0.58945  0.81635  1.0000
  C   C1356     1.0  0.57672  0.57343  0.82128  1.0000
  C   C1357     1.0  0.58716  0.57339  0.84366  1.0000
  C   C1358     1.0  0.58723  0.59021  0.86089  1.0000
  C   C1359     1.0  0.57709  0.60662  0.85579  1.0000
  H   H1630     1.0  0.55838  0.58919  0.79902  1.0000
  H   H1631     1.0  0.57693  0.56101  0.80755  1.0000
  H   H1632     1.0  0.59539  0.59084  0.87810  1.0000
  H   H1633     1.0  0.57770  0.61968  0.86930  1.0000
  H   H1634     1.0  0.71264  0.94040  0.86718  1.0000
  S   S378      1.0  0.48081  0.83837  0.75834  1.0000
  C   C1360     1.0  0.73371  0.50977  0.89346  1.0000
  C   C1361     1.0  0.70651  0.49710  0.89170  1.0000
  S   S379      1.0  0.83478  0.96620  0.86790  1.0000
  C   C1362     1.0  0.91349  0.86984  0.91506  1.0000
  C   C1363     1.0  0.55751  0.97255  0.79106  1.0000
  H   H1635     1.0  0.74453  0.53060  0.89481  1.0000
  C   C1364     1.0  0.88597  0.83417  0.76158  1.0000
  C   C1365     1.0  0.83545  0.49155  0.98901  1.0000
  C   C1366     1.0  0.87680  0.89877  0.85354  1.0000
  C   C1367     1.0  0.86644  0.87379  0.86273  1.0000
  C   C1368     1.0  0.87585  0.85740  0.85534  1.0000
  C   C1369     1.0  0.89594  0.86552  0.83870  1.0000
  C   C1370     1.0  0.90640  0.89056  0.82950  1.0000
  C   C1371     1.0  0.89681  0.90690  0.83676  1.0000
  H   H1636     1.0  0.85113  0.86702  0.87564  1.0000
  H   H1637     1.0  0.86748  0.83819  0.86268  1.0000
  H   H1638     1.0  0.92175  0.89730  0.81666  1.0000
  H   H1639     1.0  0.90496  0.92600  0.82925  1.0000
  C   C1372     1.0  0.89766  0.54735  0.86834  1.0000
  C   C1373     1.0  0.88404  0.53655  0.84744  1.0000
  C   C1374     1.0  0.89683  0.54392  0.82573  1.0000
  C   C1375     1.0  0.92334  0.56178  0.82487  1.0000
  C   C1376     1.0  0.93711  0.57215  0.84581  1.0000
  C   C1377     1.0  0.92422  0.56511  0.86753  1.0000
  H   H1640     1.0  0.86350  0.52307  0.84794  1.0000
  H   H1641     1.0  0.88612  0.53582  0.80954  1.0000
  H   H1642     1.0  0.72233  0.51231  0.96054  1.0000
  H   H1643     1.0  0.93484  0.57325  0.88375  1.0000
  Fe  Fe188     1.0  0.95186  0.83723  0.75491  1.0000
  C   C1378     1.0  0.68269  0.49911  0.99301  1.0000
  H   H1644     1.0  0.83374  0.88887  0.80914  1.0000
  H   H1645     1.0  0.86588  0.81749  0.76131  1.0000
  C   C1379     1.0  0.49659  0.54479  0.79918  1.0000
  H   H1646     1.0  0.85738  0.64149  0.86176  1.0000
  H   H1647     1.0  0.51824  0.59110  0.90464  1.0000
  H   H1648     1.0  0.53040  0.56280  0.85908  1.0000
  C   C1380     1.0  0.50451  0.78064  0.84360  1.0000
  H   H1649     1.0  0.75343  0.49376  0.95811  1.0000
  C   C1381     1.0  0.67023  0.52015  0.96365  1.0000
  H   H1650     1.0  0.89410  0.83617  0.77967  1.0000
  H   H1651     1.0  0.48264  0.81251  0.84039  1.0000
  H   H1652     1.0  0.85098  0.90279  0.97876  1.0000
  C   C1382     1.0  0.95228  0.64277  0.86378  1.0000
  C   C1383     1.0  0.76223  0.48146  0.95545  1.0000
  H   H1653     1.0  0.65318  0.95706  0.95775  1.0000
  H   H1654     1.0  0.52998  0.74180  0.83418  1.0000
  H   H1655     1.0  0.55676  0.49675  0.77117  1.0000
  H   H1656     1.0  0.92808  0.94860  0.87423  1.0000
  H   H1657     1.0  0.53846  0.83885  0.80032  1.0000
  H   H1658     1.0  0.54290  0.95682  0.77967  1.0000
  C   C1384     1.0  0.93670  0.96663  0.86460  1.0000
  S   S380      1.0  0.62147  0.48526  0.92044  1.0000
  C   C1385     1.0  0.91773  0.49266  0.82999  1.0000
  H   H1659     1.0  0.90683  0.59669  0.84885  1.0000
  N   N90       1.0  0.93009  0.49303  0.85289  1.0000
  C   C1386     1.0  0.72127  0.95709  0.87867  1.0000
  H   H1660     1.0  0.91242  0.51085  0.87243  1.0000
  H   H1661     1.0  0.93209  0.64572  0.80838  1.0000
  C   C1387     1.0  0.48186  0.52441  0.89681  1.0000
  H   H1662     1.0  0.87666  0.89652  0.98438  1.0000
  H   H1663     1.0  0.50719  0.96106  0.77510  1.0000
  C   C1388     1.0  0.85678  0.89651  0.77784  1.0000
  C   C1389     1.0  0.87039  0.88843  0.76349  1.0000
  C   C1390     1.0  0.52885  0.75930  0.83500  1.0000
  H   H1664     1.0  0.48628  0.77826  0.84944  1.0000
  S   S381      1.0  0.96691  0.83031  0.82045  1.0000
  H   H1665     1.0  0.94714  0.62221  0.86297  1.0000
  H   H1666     1.0  0.68243  0.97196  0.94130  1.0000
  C   C1391     1.0  0.91007  0.63453  0.85078  1.0000
  C   C1392     1.0  0.84414  0.85981  0.80316  1.0000
  H   H1667     1.0  0.91987  0.89576  0.88640  1.0000
  N   N91       1.0  0.49070  0.56695  0.87820  1.0000
  C   C1393     1.0  0.60750  0.50570  0.99100  1.0000
  H   H1668     1.0  0.83787  0.87888  0.92841  1.0000
  N   N92       1.0  0.68412  0.50583  0.96769  1.0000
  H   H1669     1.0  0.72097  0.54112  0.96811  1.0000
  H   H1670     1.0  0.67833  0.94951  0.96406  1.0000
  C   C1394     1.0  0.49669  0.54599  0.88187  1.0000
  H   H1671     1.0  0.51165  0.94380  0.81045  1.0000
  C   C1395     1.0  0.50174  0.52925  0.81385  1.0000
  H   H1672     1.0  0.88038  0.94169  0.95921  1.0000
  Fe  Fe189     1.0  0.60485  0.97007  0.89515  1.0000
  H   H1673     1.0  0.83826  0.49797  0.97089  1.0000
  H   H1674     1.0  0.50110  0.81999  0.86762  1.0000
  H   H1675     1.0  0.90312  0.66722  0.85329  1.0000
  H   H1676     1.0  0.53040  0.59780  0.87508  1.0000
  C   C1396     1.0  0.54739  0.80485  0.82683  1.0000
  H   H1677     1.0  0.76441  0.47998  0.93608  1.0000
  H   H1678     1.0  0.56506  0.85643  0.83611  1.0000
  H   H1679     1.0  0.47805  0.49000  0.91290  1.0000
  H   H1680     1.0  0.95848  0.53586  0.82275  1.0000
  N   N93       1.0  0.93817  0.64920  0.84593  1.0000
  H   H1681     1.0  0.52126  0.85415  0.81051  1.0000
  H   H1682     1.0  0.49033  0.74005  0.84882  1.0000
  C   C1397     1.0  0.70800  0.97074  0.88287  1.0000
  H   H1683     1.0  0.54317  0.53074  0.86721  1.0000
  C   C1398     1.0  0.94933  0.67766  0.84651  1.0000
  C   C1399     1.0  0.87051  0.59279  0.85704  1.0000
  H   H1684     1.0  0.50315  0.57445  0.84178  1.0000
  C   C1400     1.0  0.52520  0.80477  0.83579  1.0000
  C   C1401     1.0  0.47129  0.53664  0.79227  1.0000
  H   H1685     1.0  0.56337  0.82214  0.81955  1.0000
  H   H1686     1.0  0.90389  0.84594  0.94585  1.0000
  C   C1402     1.0  0.60501  0.97472  0.98828  1.0000
  H   H1687     1.0  0.89806  0.94222  0.93381  1.0000
  C   C1403     1.0  0.84378  0.88227  0.79770  1.0000
  H   H1688     1.0  0.78218  0.49193  0.96288  1.0000
  C   C1404     1.0  0.95621  0.51582  0.85604  1.0000
  C   C1405     1.0  0.95984  0.71872  0.78746  1.0000
  H   H1689     1.0  0.96401  0.65357  0.81758  1.0000
  C   C1406     1.0  0.52184  0.83591  0.81130  1.0000
  C   C1407     1.0  0.52572  0.52868  0.87512  1.0000
  H   H1690     1.0  0.53468  0.95092  0.83338  1.0000
  C   C1408     1.0  0.86853  0.63196  0.85912  1.0000
  H   H1691     1.0  0.90708  0.93612  0.96226  1.0000
  H   H1692     1.0  0.57538  0.49568  0.83157  1.0000
  C   C1409     1.0  0.59411  0.47937  0.98540  1.0000
  C   C1410     1.0  0.52581  0.95961  0.82209  1.0000
  C   C1411     1.0  0.89685  0.60719  0.85191  1.0000
  C   C1412     1.0  0.54916  0.78244  0.82662  1.0000
  H   H1693     1.0  0.56613  0.78282  0.81946  1.0000
  H   H1694     1.0  0.96263  0.50445  0.89088  1.0000
  C   C1413     1.0  0.85788  0.85167  0.78909  1.0000
  H   H1695     1.0  0.46967  0.55034  0.84593  1.0000
  H   H1696     1.0  0.71104  0.52673  0.93971  1.0000
  S   S382      1.0  0.93864  0.57034  0.79739  1.0000
  C   C1414     1.0  0.74719  0.49591  0.89294  1.0000
  N   N94       1.0  0.87261  0.90402  0.94780  1.0000
  C   C1415     1.0  0.86141  0.89330  0.97131  1.0000
  C   C1416     1.0  0.67443  0.96528  0.95935  1.0000
  C   C1417     1.0  0.85096  0.89979  0.93206  1.0000
  C   C1418     1.0  0.88681  0.89225  0.93708  1.0000
  C   C1419     1.0  0.88931  0.87232  0.94821  1.0000
  C   C1420     1.0  0.89847  0.90054  0.91458  1.0000
  C   C1421     1.0  0.90245  0.86133  0.93723  1.0000
  C   C1422     1.0  0.51118  0.50815  0.89026  1.0000
  C   C1423     1.0  0.53981  0.48225  0.78146  1.0000
  H   H1697     1.0  0.83908  0.90737  0.94003  1.0000
  H   H1698     1.0  0.51216  0.56336  0.79336  1.0000
  H   H1699     1.0  0.84698  0.87232  0.97025  1.0000
  H   H1700     1.0  0.91491  0.50958  0.82828  1.0000
  H   H1701     1.0  0.94098  0.68430  0.83244  1.0000
  H   H1702     1.0  0.67214  0.52711  0.94512  1.0000
  H   H1703     1.0  0.94635  0.68430  0.86394  1.0000
  H   H1704     1.0  0.54606  0.86791  0.84913  1.0000
  Fe  Fe190     1.0  0.49197  0.87158  0.78305  1.0000
  H   H1705     1.0  0.94801  0.64655  0.88197  1.0000
  H   H1706     1.0  0.55099  0.84471  0.86474  1.0000
  C   C1424     1.0  0.89500  0.64657  0.85426  1.0000
  H   H1707     1.0  0.52741  0.49077  0.78528  1.0000
  C   C1425     1.0  0.51847  0.54717  0.87081  1.0000
  S   S383      1.0  0.96246  0.86912  0.78117  1.0000
  H   H1708     1.0  0.50388  0.82065  0.80268  1.0000
  C   C1426     1.0  0.54749  0.85022  0.84694  1.0000
  H   H1709     1.0  0.60262  0.96815  0.97019  1.0000
  C   C1427     1.0  0.94315  0.64214  0.82223  1.0000
  Fe  Fe191     1.0  0.47244  0.61210  0.78426  1.0000
  H   H1710     1.0  0.96615  0.68617  0.78506  1.0000
  Fe  Fe192     1.0  0.95660  0.80103  0.79097  1.0000
  C   C1428     1.0  0.89032  0.93218  0.95085  1.0000
  H   H1711     1.0  0.48652  0.49447  0.83355  1.0000
  H   H1712     1.0  0.55701  0.51035  0.82163  1.0000
  C   C1429     1.0  0.71089  0.52218  0.95883  1.0000
  N   N95       1.0  0.52383  0.82879  0.83592  1.0000
  H   H1713     1.0  0.92326  0.86097  0.90640  1.0000
  H   H1714     1.0  0.64922  0.50791  0.96688  1.0000
  H   H1715     1.0  0.76807  0.50619  0.89390  1.0000
  H   H1716     1.0  0.51485  0.96549  0.83392  1.0000
  H   H1717     1.0  0.93764  0.62144  0.82102  1.0000
  H   H1718     1.0  0.86110  0.57191  0.85830  1.0000
  C   C1430     1.0  0.84497  0.96661  0.99474  1.0000
  C   C1431     1.0  0.51293  0.59196  0.88595  1.0000
  H   H1719     1.0  0.58299  0.51240  0.80441  1.0000
  H   H1720     1.0  0.47043  0.56254  0.91091  1.0000
  C   C1432     1.0  0.85636  0.60515  0.86065  1.0000
  H   H1721     1.0  0.51734  0.49431  0.89412  1.0000
  C   C1433     1.0  0.50653  0.75837  0.84332  1.0000
  N   N96       1.0  0.88700  0.85835  0.75382  1.0000
  H   H1722     1.0  0.83435  0.84903  0.81887  1.0000
  H   H1723     1.0  0.67734  0.53721  0.97553  1.0000
  C   C1434     1.0  0.56642  0.49930  0.81585  1.0000
  C   C1435     1.0  0.48160  0.50548  0.82167  1.0000
  C   C1436     1.0  0.67160  0.48187  0.95330  1.0000
  C   C1437     1.0  0.95993  0.97530  0.85266  1.0000
  C   C1438     1.0  0.91446  0.87918  0.75440  1.0000
  C   C1439     1.0  0.91287  0.49252  0.87189  1.0000
  H   H1724     1.0  0.90591  0.97394  0.87270  1.0000
  H   H1725     1.0  0.64615  0.93840  0.99339  1.0000
  H   H1726     1.0  0.68947  0.96448  0.87457  1.0000
  H   H1727     1.0  0.48059  0.58407  0.84954  1.0000
  H   H1728     1.0  0.92933  0.49248  0.81476  1.0000
  S   S384      1.0  0.81627  0.48607  0.92258  1.0000
  C   C1440     1.0  0.46772  0.56311  0.89153  1.0000
