data_image0
_chemical_formula_structural       FeSHFeS2FeSFeS3FeSHFeS2FeSFeS3CH2C4HCN2C3H3NS2HC2HC3H4C6H2CHC6H6C3HCH3CHC4H3C7H7C2HNCH4CH6C2H4C2H3CHNHC2H3CH2C2HC3HCHC2HCHNC3HSCSC2H3C2H2CH2CH3CH2CHCH2CHC2H3CH3CH2C3NC2H10C3H4FeSHFeS2FeSFeS3FeSHFeS2FeSFeS3CHCH4CH2CHCH3CNHCHC2HC4H3C6HCNHC6H6C3HCH3C7H7C2H4CHSHC2H2CH2C3HC3HCHC3HCHNH3CH4CHCHCH2NC2HC6H7SHC3HC2H3NC2H2C2H2CH2CH4C3HCH4FeSFe2S2HS2HFeCH2C2HC2HC3FeH3CHC2FeCNSHC3HSHCH3CHC3H2CHCH3CHC2H3S3HC4SH4CHCH2C2H3SHC2H2CHCH2CH3CHCHCSHC2NHCHCNCHCH3CHFeHC2FeH3C2SCHC2H5FeHFeHC3H4CSHCH2FeSH3CNC2HSH2CH2CSCS2C2NCH3C2H2CH3C2FeSH2CHCHSFeH2CH2FeHCHC4SCSH3SC2SHC2FeCH2FeH2SCSHSHNH2CH2FeS2FeS2FeSFeS3HS2FeS2FeS2FeS2FeCFeS3Fe2S2FeCFeS2C6H4C2H3CHNC6H4C6H4C6H6CSHC3H4CHCHCH2CHCNH2C5SCH3C2HSH3FeHCH2CH3SH3NC9H15FeH4C2HNCH2CH2FeNH3CH3CHCHC4SCHC2HCH4CHCNCHC7H4SC2HCH2C3NCHSH4SCHC2HCH3CHC2H2CH3SH7C2H4CHCFeS2FeS2FeSHS2CFeS2FeS2FeSFeHS3HCH3CH3C2H3C6H3C7H4C6H5C3FeC3HCH3CHNC9H20CHCHCHC2SHC2H3CNC6H6C3H2CHCH2N2H2C4NCH4CHCH6CHC2H3CHC2H3C3HCH2CHCH2SCHCH3C2HC5HFeSHFeS2FeSHS2HFeS2FeS2FeHFeCS4CNH2CH3C2H3C6H3C7H4C6H7CH4C2H6C2NHCH4C2H2CH2C3H3FeH4NHCH2NH2C2SC3HCNC2H2C3H3CH2C3HCH2CH2C2HCH3CHCHCHCHCNC2H2CH2CH2CH2SCSCHCHCHC2FeS2FeS2FeSFeS3FeS2FeS2FeSFeS3FeS2FeSH2FeS3FeS2FeS2FeSFeS3HC6H4C3FeC2HCH2C2HCHCHCH2C6H4C6H4C6H4C6H4NC5H13NC9H16NC6H2CH11CH4CH2C2H2C2HCHCH2NCH2CH3CHC2HCHNH2NC2H2CHC5H5C3HCSH4CHC3H3CHCHFeS2FeS2FeSFeS3FeS2FeS2FeSFeS3FeS2FeSH2FeS3FeS2FeS2FeSFeS3C7H4C2HC3H4C2HCHCH2CHC6H4C6H4C6H4C6H3CH3CH2C3H3CNC9H15CH3C2HNH2CHCHNC2H2CHCH2CSCHC2H3C3HC2HCHC2H3CNHC2H2CH4C2H2CHCFeHCHCH2CHC2HCH5C2HC2HC2HC2NH4CH4CH3C2H2CHCH2CH2CH2S2FeS2HNHC2HFeS2FeS2FeSFeS3FeS2FeS2FeHFeHS5H2C4H3C3H4C2H2C6H4C2HC4H2C5H3C8H4C6H4C2H2CHCHCH4C2H2NH3CNFeH4CH2NC5H9CNFeC4H2FeSCHC2H3CH4NCH2C3HCHNCH4C2HCSH4C4HC4H2CH4C2HCSH2CH4C2HC3SH2C2SCNC9H12CH6C2HC4HCHCH4CFeC2HCSH2CHC2HSH2CH2CH2C3SH3CHCH2C2HNFeH2CH6C2HCHFeH2CHFeNSFeS2HCHCH2FeS2FeS2FeSFeS3FeS2FeS2FeHFeHS2CS2CHC5H3C2H5C2HC2H2C2H3SC6H3C6H4C6H4C6H7CSNH4CH3C6HCH2CHCSH2SH6C3H4C3HC3HSC3H3C2H2SHC2H2FeHCHCHCH2NC2H6C2H2C2H2FeH5CHCHC5FeH2CH2NC9H11CH2C2NCHCH2C3HC2H3CHSH3CHC3NCH2C3H4CFeCHCSHCHCHCH2C2HSH2CSFeCFeS2FeS2FeSFeS3CSHFeHSHSFeSH2FeS2HCH2C2H3C4H2C6H4C6H4C6HCH5C2HNHC3H2SHCH3C2H3CH4C2H2CHSHNHC2HCHCH3CHCHCH2SFeS2FeS2FeSFeS3HSHC3HSHSH2FeS2CHC2H6CH4C6H4C6NHSHC6HCH11C3HCHFeSHCHCFeSH5C2HC4HCHCH4CH3CHCHC2H2CNHSC2H3CH3CH2C2HC2HNCH2CH3CH2FeS2FeS2FeSFeS3CSFeHFeSFeS2FeSCHSFeSHS2HCHCH3CH2CNHC7H4C6H4C6H4C3HC2H3CHNCHC2H2CSHCHNHC2H4CH3NCHC3H2C3H3CH2N2H2CHC2H3CHC3H2CH3CHCH5CH2CHS2C4H4C4H5CHCHC2HC3H3CNC7HFeHCH2CH2CH5C3H2CHCH2CH2CHCH4CHFeS2FeS2FeSFeS3CSFeHFeSFeS2FeSH2SFeSHS2HCH3CSHCNCH2C7H4C6H4C6H4C3H2CH2CHC2H3C4H2CH5CH3C2H3CHC3SNCHCH2CH3CHCH6CH3C2H2C2H6C3HC2NCHCHCNH4CH2C4HNH2CH4C2H3CHCH2N2C2HCNHSCH4CH2C2H2CH3CH2C2H4FeHC4HC5H5S2C2FeSCFeSHFeSCS2HFeS2FeS2FeHFeS3FeSCFeS2FeNFeS3FeSFeSHFeSFeS3HC6H4C6H4C3HC2H5C6H4C6H4C6H5CHNC9H20CH2CH3CNH4SHC3H2C2HNC7HCH10CHCHFeCH2CH2NHCH2CH2SC2NC3H3CHCHSCHC2HCHNCH4CH3SCHCHCH2C2H2CHSHCSNFeSHFeSCS2CFeS2FeS2FeHFeS3FeSHFeS2FeHFeS3FeSFeSCFeSFeS3C7H4C6H4C2H2C2H5C6HNH2C6H4C6H5CH2CHCHCH4CH3C2H2C2SC2H2C2H2C3NH4C2H2NCHCH7C4HCH3NH2C2H3C2FeC2H7CHCH3CHCHCH3C3H3CHSCHC2SH2SCN2CHSCHCH4FeH3CHSCFeS2FeS2FeHFeCS2FeS2FeS2FeSFeCS4FeS2FeS2FeSFeS3C6H4C7H4C2NHC2HC2H2C2H4C9H4C5H3C5H4CNCH3CH4CH6C2HCHC2HSHCNC8H13CHFeNH2CH2SH3C3H2C4H3C2H4C2HCH6C2HCSH4CHNCHC3H2CH2CHNSC4HC2H2C2H5CH4C2SHC3FeH2CHCHCHCH4CFeS2FeS2FeHFeS3FeS2FeS2FeSFeS5FeS2FeS2FeSFeS3C6H4C7H4C2H3CHC2HC3H2SC2H2C6H5C4H4C4H5SC2NHCH5CNC9H13CNHSHCNHCHCHCH3C2H5C5HC2H3NC8H4CH6NHC3H3CFeH2CH2C2HCH3C2HCH2C3H2CH5NHC3H2C5HCH2CH4CHC3H2C2H5NH2CH2CHCH7FeCHSHS2FeSCSFeSFeS3FeS2H6SCHCHCHCHC3HC6HSC7H3C6H2CFeH2C2HCNC2H2FeH6CH6CHSHCH2CH2C2HSHNCNH4CSH3CFeH2C3SC2SFeSCSCSHS2HFeS2CH4S2HCHC2FeH4C6HFeHC2SC4H4C6H3NCHC2H3CFeHCHNCH4C2H2CHCH4C2H3CH5Fe2HCHC2NHSCH2FeHC2H2FeCH2CSCHC2NC2H2CH2CHSH3CH2CH2CHNH2FeH2CSFeS2FeS2FeSFeS4FeSCFeS2FeSFeS3C6H4C6H4C6H4C6H4C6H4C6H2CH4C4HCH2FeH4C3HCHCSC2H3C2H3SCNC2H2NHC8H3CHNCH2CH3CH2C3HNH3CH6CNCNC9H19CH4CH3SH2C10H5C2NH2CH2CH3CH4CH4C2HCSHCH2CFeH2CH2CNH4SFeH3CSFeCHS2FeS2FeS2FeSFeS4FeSCFeS2FeSFeS3C6H4C6H4C6H4C6H4C6H4C6H4CHCH3C2H4CHSNC4FeCH9CNC9H15C2H2CH5CHCHC2HCHNC9H5CH12C6FeHCHCH8CH4NHCHCH5CHSHNSH2FeCH6CFeS2HCFeSFeS3FeS2CHFeSFeSC2FeS2FeS2FeSFeS3FeS2FeS2FeSFeS3HCHC4H4CHC3HCH3C6H4CH3C3H3C6H4C6H3C3H3CH2NC4H11NC9H5CH6CNC2H2CHCHCSCH2CH4SCH2CH4CHC3H5CH2C3SN2HSH4C3H2C2HCHNCH5CHC2H7C3H2CSCH2CH3CH2C4H2C3HCHCH2FeS2HCFeSFeS3FeS2H2FeSFeSC2FeS2FeS2FeSFeS3FeS2FeS2FeSFeS3HCHC3HCH2C6HCH2SC6H4C4HCH3C7H4C2HC3H3C4HNCHCNC9H12CHNC6HC2H11C2H5C2HC3H3CSHCHC2H2CH5C2HCH2SH2CHCH3CH9C2HC2HCHNC2H4CHCH2NCH9C3NHCH2CH2NSCHC2H5C3H2C
_chemical_formula_sum              "Fe288 S576 H2592 C2160 N144"
_cell_length_a       77.1404
_cell_length_b       77.5245
_cell_length_c       51.2247
_cell_angle_alpha    90.486
_cell_angle_beta     91.4066
_cell_angle_gamma    112.577

_space_group_name_H-M_alt    "P 1"
_space_group_IT_number       1

loop_
  _space_group_symop_operation_xyz
  'x, y, z'

loop_
  _atom_site_type_symbol
  _atom_site_label
  _atom_site_symmetry_multiplicity
  _atom_site_fract_x
  _atom_site_fract_y
  _atom_site_fract_z
  _atom_site_occupancy
  Fe  Fe1       1.0  0.28118  0.17264  0.08789  1.0000
  S   S1        1.0  0.27875  0.14310  0.08926  1.0000
  H   H1        1.0  0.24679  0.05602  0.40238  1.0000
  Fe  Fe2       1.0  0.23875  0.16086  0.09076  1.0000
  S   S2        1.0  0.23406  0.13014  0.09203  1.0000
  S   S3        1.0  0.21179  0.16660  0.09070  1.0000
  Fe  Fe3       1.0  0.25839  0.13951  0.12123  1.0000
  S   S4        1.0  0.26471  0.12445  0.15618  1.0000
  Fe  Fe4       1.0  0.25503  0.13682  0.05989  1.0000
  S   S5        1.0  0.25745  0.11844  0.02609  1.0000
  S   S6        1.0  0.26207  0.16974  0.12166  1.0000
  S   S7        1.0  0.25833  0.16678  0.05683  1.0000
  Fe  Fe5       1.0  0.28484  0.12133  0.33924  1.0000
  S   S8        1.0  0.26492  0.13598  0.33789  1.0000
  H   H2        1.0  0.20508  0.06346  0.28050  1.0000
  Fe  Fe6       1.0  0.25245  0.08217  0.34147  1.0000
  S   S9        1.0  0.23060  0.09469  0.33976  1.0000
  S   S10       1.0  0.24647  0.05078  0.34382  1.0000
  Fe  Fe7       1.0  0.24836  0.11341  0.30888  1.0000
  S   S11       1.0  0.23590  0.12115  0.27230  1.0000
  Fe  Fe8       1.0  0.24953  0.11595  0.36896  1.0000
  S   S12       1.0  0.23760  0.12629  0.40311  1.0000
  S   S13       1.0  0.26907  0.09960  0.30856  1.0000
  S   S14       1.0  0.27061  0.10257  0.37240  1.0000
  C   C1        1.0  0.01491  0.19906  0.26070  1.0000
  H   H3        1.0  0.19782  0.03280  0.25855  1.0000
  H   H4        1.0  0.27634  0.15593  0.40516  1.0000
  C   C2        1.0  0.19503  0.99548  0.35551  1.0000
  C   C3        1.0  0.21268  0.03486  0.26317  1.0000
  C   C4        1.0  0.02932  0.20915  0.42250  1.0000
  C   C5        1.0  0.05913  0.21353  0.40395  1.0000
  H   H5        1.0  0.30648  0.13804  0.15608  1.0000
  C   C6        1.0  0.20861  0.20694  0.04090  1.0000
  N   N1        1.0  0.30450  0.16716  0.24509  1.0000
  N   N2        1.0  0.22527  0.05484  0.26158  1.0000
  C   C7        1.0  0.18530  0.17765  0.02512  1.0000
  C   C8        1.0  0.21108  0.03850  0.41979  1.0000
  C   C9        1.0  0.30175  0.15072  0.40541  1.0000
  H   H6        1.0  0.22901  0.08039  0.28233  1.0000
  H   H7        1.0  0.21358  0.03212  0.40144  1.0000
  H   H8        1.0  0.00649  0.21165  0.29299  1.0000
  N   N3        1.0  0.17408  0.22160  0.19290  1.0000
  S   S15       1.0  0.14627  0.23551  0.11355  1.0000
  S   S16       1.0  0.11059  0.23537  0.43179  1.0000
  H   H9        1.0  0.22187  0.06011  0.30227  1.0000
  C   C10       1.0  0.98892  0.19761  0.34784  1.0000
  C   C11       1.0  0.99028  0.21614  0.34778  1.0000
  H   H10       1.0  0.13986  0.21481  0.28528  1.0000
  C   C12       1.0  0.18238  0.20737  0.18949  1.0000
  C   C13       1.0  0.02348  0.20922  0.34964  1.0000
  C   C14       1.0  0.00567  0.19431  0.34858  1.0000
  H   H11       1.0  0.22294  0.21514  0.04744  1.0000
  H   H12       1.0  0.03608  0.20629  0.34989  1.0000
  H   H13       1.0  0.00487  0.18007  0.34846  1.0000
  H   H14       1.0  0.05427  0.19837  0.39920  1.0000
  C   C15       1.0  0.20922  0.18764  0.09968  1.0000
  C   C16       1.0  0.19110  0.18800  0.09982  1.0000
  C   C17       1.0  0.18851  0.20466  0.10563  1.0000
  C   C18       1.0  0.20407  0.22115  0.11119  1.0000
  C   C19       1.0  0.22213  0.22070  0.11151  1.0000
  C   C20       1.0  0.22472  0.20405  0.10578  1.0000
  H   H15       1.0  0.17905  0.17535  0.09507  1.0000
  H   H16       1.0  0.17456  0.20476  0.10568  1.0000
  C   C21       1.0  0.24489  0.05673  0.26734  1.0000
  H   H17       1.0  0.23871  0.20398  0.10573  1.0000
  C   C22       1.0  0.25684  0.12413  0.18843  1.0000
  C   C23       1.0  0.26359  0.11545  0.20797  1.0000
  C   C24       1.0  0.25766  0.11479  0.23388  1.0000
  C   C25       1.0  0.24475  0.12266  0.24043  1.0000
  C   C26       1.0  0.23808  0.13141  0.22093  1.0000
  C   C27       1.0  0.24416  0.13225  0.19507  1.0000
  H   H18       1.0  0.27330  0.10901  0.20294  1.0000
  H   H19       1.0  0.26273  0.10781  0.24859  1.0000
  H   H20       1.0  0.22800  0.13744  0.22579  1.0000
  H   H21       1.0  0.23884  0.13894  0.18022  1.0000
  H   H22       1.0  0.24278  0.01284  0.35140  1.0000
  H   H23       1.0  0.16471  0.22200  0.99716  1.0000
  C   C28       1.0  0.25375  0.11442  0.44459  1.0000
  C   C29       1.0  0.24324  0.12473  0.43653  1.0000
  C   C30       1.0  0.23659  0.13370  0.45549  1.0000
  H   H24       1.0  0.25493  0.07134  0.26440  1.0000
  C   C31       1.0  0.25378  0.12099  0.99223  1.0000
  H   H25       1.0  0.25916  0.10771  0.43019  1.0000
  H   H26       1.0  0.22845  0.14171  0.44941  1.0000
  H   H27       1.0  0.30737  0.15243  0.27933  1.0000
  C   C32       1.0  0.31323  0.16697  0.14778  1.0000
  H   H28       1.0  0.29903  0.17499  0.20644  1.0000
  C   C33       1.0  0.19250  0.01237  0.35159  1.0000
  C   C34       1.0  0.20792  0.02933  0.34750  1.0000
  C   C35       1.0  0.22623  0.02972  0.34769  1.0000
  C   C36       1.0  0.22874  0.01282  0.35133  1.0000
  H   H29       1.0  0.13583  0.21415  0.20235  1.0000
  H   H30       1.0  0.17845  0.01229  0.35172  1.0000
  H   H31       1.0  0.20556  0.04204  0.34446  1.0000
  C   C37       1.0  0.00206  0.20047  0.27835  1.0000
  C   C38       1.0  0.22380  0.06170  0.23502  1.0000
  C   C39       1.0  0.22966  0.05420  0.21309  1.0000
  C   C40       1.0  0.21685  0.07594  0.23004  1.0000
  C   C41       1.0  0.22938  0.06112  0.18801  1.0000
  C   C42       1.0  0.21646  0.08260  0.20483  1.0000
  C   C43       1.0  0.22296  0.07543  0.18394  1.0000
  H   H32       1.0  0.24922  0.04740  0.25486  1.0000
  H   H33       1.0  0.21652  0.02586  0.24936  1.0000
  H   H34       1.0  0.23473  0.04308  0.21523  1.0000
  H   H35       1.0  0.21206  0.08259  0.24531  1.0000
  H   H36       1.0  0.23434  0.05553  0.17162  1.0000
  H   H37       1.0  0.21159  0.09384  0.20159  1.0000
  H   H38       1.0  0.22320  0.08113  0.16461  1.0000
  C   C44       1.0  0.17429  0.22021  0.24198  1.0000
  C   C45       1.0  0.99071  0.17153  0.24089  1.0000
  H   H39       1.0  0.22856  0.08356  0.40039  1.0000
  N   N4        1.0  0.16083  0.21133  0.03619  1.0000
  C   C46       1.0  0.17583  0.20386  0.03473  1.0000
  H   H40       1.0  0.25313  0.07507  0.42566  1.0000
  H   H41       1.0  0.05618  0.22047  0.38643  1.0000
  H   H42       1.0  0.99123  0.22074  0.40955  1.0000
  H   H43       1.0  0.02929  0.20918  0.26158  1.0000
  C   C47       1.0  0.02485  0.22778  0.35037  1.0000
  H   H44       1.0  0.29720  0.15128  0.20855  1.0000
  H   H45       1.0  0.29865  0.16496  0.14413  1.0000
  H   H46       1.0  0.24665  0.05142  0.43622  1.0000
  H   H47       1.0  0.30076  0.14751  0.38463  1.0000
  H   H48       1.0  0.30331  0.16837  0.33655  1.0000
  H   H49       1.0  0.20734  0.08522  0.43147  1.0000
  C   C48       1.0  0.17153  0.18524  0.02578  1.0000
  C   C49       1.0  0.16553  0.21863  0.26595  1.0000
  H   H50       1.0  0.30400  0.18363  0.27897  1.0000
  H   H51       1.0  0.13428  0.20485  0.05491  1.0000
  H   H52       1.0  0.99297  0.16637  0.41372  1.0000
  H   H53       1.0  0.20236  0.09708  0.47317  1.0000
  C   C50       1.0  0.21998  0.06825  0.39915  1.0000
  C   C51       1.0  0.21983  0.06615  0.44740  1.0000
  H   H54       1.0  0.17356  0.22015  0.28410  1.0000
  H   H55       1.0  0.15534  0.23091  0.17064  1.0000
  H   H56       1.0  0.12139  0.21142  0.24417  1.0000
  C   C52       1.0  0.98352  0.18747  0.27740  1.0000
  H   H57       1.0  0.29557  0.13374  0.00551  1.0000
  N   N5        1.0  0.04996  0.21733  0.42713  1.0000
  H   H58       1.0  0.18947  0.20881  0.17041  1.0000
  C   C53       1.0  0.16734  0.23026  0.04845  1.0000
  C   C54       1.0  0.98994  0.19269  0.41215  1.0000
  H   H59       1.0  0.28395  0.14438  0.26548  1.0000
  H   H60       1.0  0.01930  0.18372  0.22818  1.0000
  H   H61       1.0  0.28016  0.15684  0.99697  1.0000
  C   C55       1.0  0.05539  0.20889  0.45027  1.0000
  H   H62       1.0  0.13762  0.18497  0.04232  1.0000
  H   H63       1.0  0.30134  0.13835  0.25000  1.0000
  C   C56       1.0  0.25695  0.11253  0.47140  1.0000
  C   C57       1.0  0.22450  0.05991  0.47157  1.0000
  H   H64       1.0  0.29455  0.18034  0.98737  1.0000
  C   C58       1.0  0.15349  0.21241  0.00949  1.0000
  C   C59       1.0  0.19494  0.21464  0.04190  1.0000
  C   C60       1.0  0.00013  0.18141  0.41565  1.0000
  H   H65       1.0  0.30072  0.19329  0.24804  1.0000
  C   C61       1.0  0.14514  0.19885  0.05187  1.0000
  H   H66       1.0  0.17815  0.24084  0.03670  1.0000
  C   C62       1.0  0.29419  0.16836  0.99944  1.0000
  C   C63       1.0  0.13611  0.21349  0.24349  1.0000
  H   H67       1.0  0.14767  0.19858  0.99928  1.0000
  C   C64       1.0  0.01852  0.22026  0.41835  1.0000
  H   H68       1.0  0.21337  0.03017  0.43608  1.0000
  N   N6        1.0  0.22346  0.05857  0.42239  1.0000
  C   C65       1.0  0.01953  0.18946  0.42068  1.0000
  C   C66       1.0  0.16164  0.22016  0.16972  1.0000
  C   C67       1.0  0.14651  0.21543  0.26669  1.0000
  H   H69       1.0  0.15743  0.17631  0.01951  1.0000
  S   S17       1.0  0.09409  0.23463  0.35768  1.0000
  C   C68       1.0  0.22006  0.06519  0.28250  1.0000
  S   S18       1.0  0.31005  0.19581  0.08443  1.0000
  C   C69       1.0  0.28807  0.15557  0.41698  1.0000
  C   C70       1.0  0.29763  0.18013  0.25892  1.0000
  H   H70       1.0  0.15033  0.19654  0.07146  1.0000
  H   H71       1.0  0.23056  0.04947  0.47225  1.0000
  H   H72       1.0  0.07464  0.21885  0.40695  1.0000
  C   C71       1.0  0.14472  0.21516  0.21941  1.0000
  C   C72       1.0  0.16422  0.21882  0.21794  1.0000
  H   H73       1.0  0.18163  0.16321  0.01907  1.0000
  H   H74       1.0  0.23425  0.23337  0.11594  1.0000
  C   C73       1.0  0.29909  0.14985  0.26056  1.0000
  H   H75       1.0  0.17138  0.19297  0.19006  1.0000
  H   H76       1.0  0.05266  0.19389  0.44713  1.0000
  C   C74       1.0  0.30405  0.15871  0.45992  1.0000
  H   H77       1.0  0.19969  0.22888  0.04913  1.0000
  H   H78       1.0  0.22374  0.06294  0.38079  1.0000
  H   H79       1.0  0.21321  0.02934  0.28311  1.0000
  C   C75       1.0  0.20377  0.18845  0.03282  1.0000
  H   H80       1.0  0.30693  0.15014  0.03132  1.0000
  H   H81       1.0  0.24688  0.05302  0.28786  1.0000
  C   C76       1.0  0.24333  0.06036  0.42176  1.0000
  H   H82       1.0  0.17325  0.23042  0.06858  1.0000
  C   C77       1.0  0.99912  0.21205  0.41344  1.0000
  H   H83       1.0  0.15009  0.20611  0.16785  1.0000
  H   H84       1.0  0.16949  0.22242  0.15125  1.0000
  C   C78       1.0  0.29460  0.16257  0.21919  1.0000
  H   H85       1.0  0.19320  0.20851  0.20486  1.0000
  C   C79       1.0  0.00924  0.18468  0.24196  1.0000
  C   C80       1.0  0.28907  0.15947  0.44383  1.0000
  H   H86       1.0  0.28212  0.17382  0.26127  1.0000
  H   H87       1.0  0.20490  0.06609  0.39673  1.0000
  H   H88       1.0  0.23465  0.05900  0.01292  1.0000
  C   C81       1.0  0.21330  0.99583  0.35516  1.0000
  H   H89       1.0  0.98726  0.16077  0.22590  1.0000
  H   H90       1.0  0.27770  0.16264  0.45153  1.0000
  H   H91       1.0  0.27908  0.15756  0.22101  1.0000
  C   C82       1.0  0.30819  0.14653  0.01055  1.0000
  H   H92       1.0  0.18910  0.22285  0.24242  1.0000
  H   H93       1.0  0.02686  0.18012  0.42242  1.0000
  C   C83       1.0  0.21132  0.07949  0.44867  1.0000
  C   C84       1.0  0.00809  0.23106  0.34917  1.0000
  C   C85       1.0  0.18938  0.24045  0.19291  1.0000
  N   N7        1.0  0.30950  0.16202  0.99287  1.0000
  C   C86       1.0  0.05764  0.23788  0.43180  1.0000
  C   C87       1.0  0.20827  0.08645  0.47265  1.0000
  H   H94       1.0  0.29528  0.17310  0.02028  1.0000
  H   H95       1.0  0.21428  0.18233  0.03317  1.0000
  H   H96       1.0  0.19598  0.03650  0.41957  1.0000
  H   H97       1.0  0.02477  0.23532  0.41797  1.0000
  H   H98       1.0  0.07076  0.21575  0.45508  1.0000
  H   H99       1.0  0.15562  0.23520  0.05016  1.0000
  H   H100      1.0  0.14191  0.21767  0.00984  1.0000
  H   H101      1.0  0.23744  0.13783  0.99696  1.0000
  H   H102      1.0  0.04771  0.21026  0.46778  1.0000
  H   H103      1.0  0.26462  0.10406  0.47748  1.0000
  C   C88       1.0  0.22121  0.07638  0.99717  1.0000
  C   C89       1.0  0.24331  0.13108  0.98314  1.0000
  C   C90       1.0  0.22981  0.06361  0.99528  1.0000
  H   H104      1.0  0.21968  0.08191  0.01613  1.0000
  H   H105      1.0  0.26933  0.10436  0.98080  1.0000
  H   H106      1.0  0.09835  0.24121  0.00552  1.0000
  H   H107      1.0  0.09885  0.24116  0.21920  1.0000
  Fe  Fe9       1.0  0.27926  0.16982  0.58967  1.0000
  S   S19       1.0  0.27371  0.13948  0.59021  1.0000
  H   H108      1.0  0.11462  0.21668  0.74281  1.0000
  Fe  Fe10      1.0  0.23745  0.16228  0.58768  1.0000
  S   S20       1.0  0.22947  0.13089  0.58779  1.0000
  S   S21       1.0  0.21333  0.17231  0.58179  1.0000
  Fe  Fe11      1.0  0.25194  0.13713  0.61967  1.0000
  S   S22       1.0  0.25410  0.11868  0.65326  1.0000
  Fe  Fe12      1.0  0.25217  0.13629  0.55837  1.0000
  S   S23       1.0  0.25461  0.11849  0.52390  1.0000
  S   S24       1.0  0.25871  0.16811  0.62115  1.0000
  S   S25       1.0  0.25884  0.16704  0.55631  1.0000
  Fe  Fe13      1.0  0.28816  0.11981  0.83785  1.0000
  S   S26       1.0  0.26818  0.13441  0.83838  1.0000
  H   H109      1.0  0.98648  0.15231  0.76645  1.0000
  Fe  Fe14      1.0  0.25580  0.08066  0.83967  1.0000
  S   S27       1.0  0.23392  0.09315  0.83982  1.0000
  S   S28       1.0  0.24942  0.04918  0.84112  1.0000
  Fe  Fe15      1.0  0.25111  0.11235  0.80898  1.0000
  S   S29       1.0  0.23770  0.12123  0.77429  1.0000
  Fe  Fe16      1.0  0.25328  0.11392  0.86923  1.0000
  S   S30       1.0  0.24160  0.12379  0.90418  1.0000
  S   S31       1.0  0.27190  0.09864  0.80676  1.0000
  S   S32       1.0  0.27439  0.10053  0.87080  1.0000
  C   C91       1.0  0.15697  0.22124  0.76901  1.0000
  H   H110      1.0  0.18393  0.03475  0.75983  1.0000
  C   C92       1.0  0.15821  0.22217  0.72110  1.0000
  H   H111      1.0  0.98811  0.17177  0.88552  1.0000
  H   H112      1.0  0.11198  0.22048  0.48282  1.0000
  H   H113      1.0  0.25374  0.05579  0.89986  1.0000
  H   H114      1.0  0.25967  0.07459  0.92350  1.0000
  C   C93       1.0  0.22158  0.06715  0.49542  1.0000
  H   H115      1.0  0.28008  0.15070  0.74865  1.0000
  H   H116      1.0  0.20049  0.08779  0.74478  1.0000
  C   C94       1.0  0.21013  0.20773  0.52086  1.0000
  H   H117      1.0  0.20390  0.09724  0.69971  1.0000
  C   C95       1.0  0.99386  0.17834  0.90485  1.0000
  H   H118      1.0  0.20365  0.03335  0.91959  1.0000
  H   H119      1.0  0.13075  0.21871  0.78563  1.0000
  H   H120      1.0  0.20872  0.09275  0.97621  1.0000
  C   C96       1.0  0.25052  0.05966  0.91967  1.0000
  N   N8        1.0  0.23037  0.05660  0.92165  1.0000
  H   H121      1.0  0.21022  0.06317  0.89795  1.0000
  C   C97       1.0  0.17637  0.20967  0.69430  1.0000
  H   H122      1.0  0.19628  0.03375  0.78973  1.0000
  C   C98       1.0  0.99323  0.19753  0.84342  1.0000
  C   C99       1.0  0.99374  0.21464  0.85316  1.0000
  H   H123      1.0  0.00111  0.16985  0.91396  1.0000
  C   C100      1.0  0.30872  0.15568  0.96534  1.0000
  C   C101      1.0  0.02783  0.21021  0.84612  1.0000
  C   C102      1.0  0.01042  0.19546  0.83996  1.0000
  C   C103      1.0  0.02837  0.22733  0.85597  1.0000
  H   H124      1.0  0.98611  0.15866  0.73276  1.0000
  H   H125      1.0  0.01032  0.18232  0.83255  1.0000
  H   H126      1.0  0.12681  0.23508  0.52549  1.0000
  C   C104      1.0  0.21015  0.19181  0.59610  1.0000
  C   C105      1.0  0.19355  0.19468  0.59012  1.0000
  C   C106      1.0  0.19079  0.21046  0.59998  1.0000
  C   C107      1.0  0.20473  0.22363  0.61579  1.0000
  C   C108      1.0  0.22115  0.22056  0.62222  1.0000
  C   C109      1.0  0.22388  0.20476  0.61242  1.0000
  H   H127      1.0  0.29564  0.15093  0.77539  1.0000
  C   C110      1.0  0.30593  0.19086  0.68679  1.0000
  N   N9        1.0  0.30560  0.16263  0.48842  1.0000
  H   H128      1.0  0.23670  0.20274  0.61718  1.0000
  C   C111      1.0  0.25082  0.12093  0.68709  1.0000
  C   C112      1.0  0.25627  0.11000  0.70473  1.0000
  C   C113      1.0  0.25296  0.11042  0.73163  1.0000
  C   C114      1.0  0.24381  0.12155  0.74108  1.0000
  C   C115      1.0  0.23856  0.13265  0.72350  1.0000
  C   C116      1.0  0.24221  0.13251  0.69667  1.0000
  H   H129      1.0  0.26275  0.10084  0.69743  1.0000
  H   H130      1.0  0.25694  0.10168  0.74483  1.0000
  H   H131      1.0  0.23141  0.14127  0.73062  1.0000
  H   H132      1.0  0.23787  0.14093  0.68331  1.0000
  H   H133      1.0  0.24513  0.01088  0.84664  1.0000
  H   H134      1.0  0.23371  0.20716  0.54362  1.0000
  C   C117      1.0  0.25812  0.11340  0.94691  1.0000
  C   C118      1.0  0.24715  0.12300  0.93787  1.0000
  C   C119      1.0  0.23989  0.13194  0.95612  1.0000
  H   H135      1.0  0.29699  0.17241  0.76142  1.0000
  C   C120      1.0  0.13821  0.21914  0.76780  1.0000
  H   H136      1.0  0.26397  0.10668  0.93310  1.0000
  H   H137      1.0  0.23140  0.13942  0.94931  1.0000
  H   H138      1.0  0.22237  0.04520  0.72608  1.0000
  C   C121      1.0  0.22552  0.06612  0.89925  1.0000
  C   C122      1.0  0.19766  0.21669  0.51664  1.0000
  C   C123      1.0  0.19544  0.01149  0.85128  1.0000
  C   C124      1.0  0.21093  0.02830  0.84678  1.0000
  C   C125      1.0  0.22904  0.02829  0.84533  1.0000
  C   C126      1.0  0.23125  0.01116  0.84783  1.0000
  C   C127      1.0  0.30618  0.13640  0.73596  1.0000
  H   H139      1.0  0.18154  0.01170  0.85270  1.0000
  H   H140      1.0  0.20882  0.04123  0.84470  1.0000
  H   H141      1.0  0.21653  0.08164  0.66752  1.0000
  H   H142      1.0  0.22906  0.06135  0.88031  1.0000
  H   H143      1.0  0.30805  0.13909  0.89252  1.0000
  H   H144      1.0  0.22136  0.03053  0.89984  1.0000
  H   H145      1.0  0.21317  0.08199  0.93347  1.0000
  C   C128      1.0  0.29717  0.16077  0.66540  1.0000
  C   C129      1.0  0.19928  0.23285  0.53152  1.0000
  H   H146      1.0  0.22233  0.02808  0.93431  1.0000
  H   H147      1.0  0.27664  0.15772  0.49553  1.0000
  H   H148      1.0  0.13109  0.21928  0.70265  1.0000
  H   H149      1.0  0.29162  0.12721  0.72980  1.0000
  C   C130      1.0  0.21782  0.07619  0.95003  1.0000
  H   H150      1.0  0.16581  0.22229  0.55341  1.0000
  S   S33       1.0  0.30949  0.19058  0.58958  1.0000
  H   H151      1.0  0.20496  0.03001  0.75940  1.0000
  C   C131      1.0  0.21392  0.23921  0.55095  1.0000
  C   C132      1.0  0.17328  0.23580  0.50484  1.0000
  H   H152      1.0  0.22833  0.05911  0.79937  1.0000
  H   H153      1.0  0.18284  0.18470  0.57753  1.0000
  C   C133      1.0  0.22692  0.06341  0.94736  1.0000
  H   H154      1.0  0.23723  0.23514  0.57008  1.0000
  H   H155      1.0  0.19930  0.06344  0.80516  1.0000
  C   C134      1.0  0.23249  0.05704  0.97080  1.0000
  C   C135      1.0  0.30398  0.14543  0.50244  1.0000
  C   C136      1.0  0.01115  0.22935  0.85947  1.0000
  H   H156      1.0  0.17797  0.21243  0.59522  1.0000
  C   C137      1.0  0.98864  0.18993  0.94614  1.0000
  C   C138      1.0  0.29953  0.15291  0.68903  1.0000
  C   C139      1.0  0.29476  0.15769  0.75657  1.0000
  H   H157      1.0  0.23909  0.04703  0.97039  1.0000
  C   C140      1.0  0.26125  0.11225  0.97396  1.0000
  H   H158      1.0  0.30801  0.20549  0.68589  1.0000
  C   C141      1.0  0.22452  0.21455  0.53977  1.0000
  C   C142      1.0  0.29444  0.14970  0.92103  1.0000
  C   C143      1.0  0.19814  0.03852  0.76912  1.0000
  H   H159      1.0  0.29223  0.15198  0.64798  1.0000
  C   C144      1.0  0.21356  0.08045  0.49594  1.0000
  H   H160      1.0  0.22553  0.05559  0.68091  1.0000
  N   N10       1.0  0.16934  0.22489  0.69720  1.0000
  H   H161      1.0  0.31222  0.19227  0.72762  1.0000
  H   H162      1.0  0.18666  0.21042  0.50202  1.0000
  H   H163      1.0  0.25494  0.05110  0.93353  1.0000
  C   C145      1.0  0.29451  0.15553  0.94699  1.0000
  H   H164      1.0  0.30246  0.14682  0.52380  1.0000
  H   H165      1.0  0.18138  0.22432  0.74802  1.0000
  H   H166      1.0  0.16729  0.22731  0.65532  1.0000
  H   H167      1.0  0.04086  0.20834  0.84333  1.0000
  C   C146      1.0  0.12915  0.21803  0.74364  1.0000
  H   H168      1.0  0.21185  0.08646  0.51443  1.0000
  C   C147      1.0  0.24023  0.13223  0.48231  1.0000
  H   H169      1.0  0.28304  0.15948  0.95225  1.0000
  C   C148      1.0  0.19767  0.99435  0.85401  1.0000
  H   H170      1.0  0.18590  0.20947  0.71080  1.0000
  H   H171      1.0  0.22580  0.06267  0.51365  1.0000
  N   N11       1.0  0.20930  0.05891  0.76763  1.0000
  C   C149      1.0  0.22848  0.06295  0.77845  1.0000
  C   C150      1.0  0.20042  0.06855  0.78476  1.0000
  H   H172      1.0  0.29850  0.18567  0.64585  1.0000
  C   C151      1.0  0.21053  0.06493  0.74011  1.0000
  C   C152      1.0  0.20544  0.07983  0.73163  1.0000
  C   C153      1.0  0.21777  0.05631  0.72101  1.0000
  C   C154      1.0  0.20734  0.08549  0.70563  1.0000
  C   C155      1.0  0.21968  0.06215  0.69509  1.0000
  C   C156      1.0  0.21449  0.07672  0.68743  1.0000
  H   H173      1.0  0.29273  0.17203  0.51964  1.0000
  H   H174      1.0  0.23569  0.05509  0.76803  1.0000
  H   H175      1.0  0.23734  0.07809  0.77699  1.0000
  H   H176      1.0  0.18594  0.06623  0.77759  1.0000
  H   H177      1.0  0.20884  0.08389  0.78614  1.0000
  H   H178      1.0  0.18164  0.23776  0.48691  1.0000
  H   H179      1.0  0.20839  0.19510  0.50991  1.0000
  S   S34       1.0  0.10030  0.23868  0.85797  1.0000
  H   H180      1.0  0.99927  0.20405  0.94180  1.0000
  C   C157      1.0  0.13890  0.21956  0.72056  1.0000
  C   C158      1.0  0.15849  0.22504  0.67289  1.0000
  C   C159      1.0  0.17358  0.23764  0.55167  1.0000
  H   H181      1.0  0.15313  0.23647  0.67348  1.0000
  C   C160      1.0  0.16683  0.22258  0.74605  1.0000
  C   C161      1.0  0.21894  0.03630  0.91877  1.0000
  H   H182      1.0  0.23345  0.08155  0.90061  1.0000
  H   H183      1.0  0.00470  0.19240  0.90070  1.0000
  H   H184      1.0  0.18453  0.21120  0.67615  1.0000
  N   N12       1.0  0.30846  0.15631  0.73767  1.0000
  C   C162      1.0  0.21506  0.08250  0.97463  1.0000
  C   C163      1.0  0.22647  0.23032  0.55467  1.0000
  H   H185      1.0  0.23491  0.13909  0.49673  1.0000
  H   H186      1.0  0.29618  0.13804  0.68852  1.0000
  C   C164      1.0  0.30832  0.14378  0.91261  1.0000
  C   C165      1.0  0.30549  0.16399  0.71233  1.0000
  H   H187      1.0  0.30932  0.15417  0.57412  1.0000
  H   H188      1.0  0.99633  0.18243  0.95676  1.0000
  C   C166      1.0  0.25025  0.12144  0.49041  1.0000
  H   H189      1.0  0.16453  0.19576  0.69323  1.0000
  H   H190      1.0  0.29125  0.18171  0.48846  1.0000
  C   C167      1.0  0.11974  0.23543  0.48430  1.0000
  H   H191      1.0  0.30521  0.16493  0.82349  1.0000
  H   H192      1.0  0.23198  0.23062  0.63454  1.0000
  H   H193      1.0  0.30885  0.13117  0.75527  1.0000
  H   H194      1.0  0.14638  0.21153  0.66946  1.0000
  C   C168      1.0  0.21573  0.99432  0.85206  1.0000
  C   C169      1.0  0.30832  0.18315  0.71054  1.0000
  C   C170      1.0  0.29090  0.16882  0.49823  1.0000
  H   H195      1.0  0.29131  0.13331  0.49556  1.0000
  C   C171      1.0  0.30051  0.17972  0.66422  1.0000
  H   H196      1.0  0.16395  0.22213  0.78791  1.0000
  H   H197      1.0  0.16346  0.22092  0.50584  1.0000
  H   H198      1.0  0.28325  0.14938  0.90749  1.0000
  H   H199      1.0  0.10162  0.24149  0.95737  1.0000
  Fe  Fe17      1.0  0.14499  0.25634  0.08375  1.0000
  S   S35       1.0  0.14093  0.27551  0.11413  1.0000
  Fe  Fe18      1.0  0.07879  0.25430  0.35759  1.0000
  Fe  Fe19      1.0  0.11616  0.28842  0.36972  1.0000
  S   S36       1.0  0.13295  0.27051  0.37156  1.0000
  S   S37       1.0  0.13001  0.32006  0.37452  1.0000
  H   H200      1.0  0.11948  0.46317  0.22604  1.0000
  S   S38       1.0  0.10026  0.27542  0.33246  1.0000
  S   S39       1.0  0.09324  0.26959  0.39468  1.0000
  H   H201      1.0  0.14250  0.33529  0.16373  1.0000
  Fe  Fe20      1.0  0.14491  0.25616  0.14417  1.0000
  C   C172      1.0  0.14573  0.25487  0.00373  1.0000
  H   H202      1.0  0.13263  0.27430  0.44727  1.0000
  H   H203      1.0  0.15309  0.35907  0.37683  1.0000
  C   C173      1.0  0.15443  0.33196  0.38082  1.0000
  C   C174      1.0  0.13132  0.26568  0.46420  1.0000
  H   H204      1.0  0.11857  0.46734  0.15823  1.0000
  C   C175      1.0  0.14777  0.47671  0.17029  1.0000
  C   C176      1.0  0.15646  0.31698  0.24978  1.0000
  H   H205      1.0  0.12885  0.28991  0.01088  1.0000
  C   C177      1.0  0.14648  0.25861  0.22423  1.0000
  C   C178      1.0  0.12796  0.24971  0.01443  1.0000
  C   C179      1.0  0.13275  0.25518  0.26763  1.0000
  Fe  Fe21      1.0  0.11646  0.25676  0.33478  1.0000
  H   H206      1.0  0.13394  0.29530  0.30123  1.0000
  H   H207      1.0  0.98411  0.49027  0.30809  1.0000
  H   H208      1.0  0.14634  0.30221  0.33214  1.0000
  C   C180      1.0  0.14327  0.30758  0.31321  1.0000
  H   H209      1.0  0.13505  0.31623  0.31777  1.0000
  C   C181      1.0  0.13127  0.47301  0.23731  1.0000
  C   C182      1.0  0.14853  0.26014  0.25173  1.0000
  Fe  Fe22      1.0  0.10915  0.25072  0.39424  1.0000
  C   C183      1.0  0.14840  0.47074  0.23850  1.0000
  N   N13       1.0  0.16068  0.31820  0.29939  1.0000
  S   S40       1.0  0.13613  0.25589  0.30223  1.0000
  H   H210      1.0  0.15174  0.31711  0.20804  1.0000
  C   C184      1.0  0.15112  0.32351  0.22677  1.0000
  C   C185      1.0  0.15555  0.32498  0.27458  1.0000
  C   C186      1.0  0.14457  0.33792  0.22775  1.0000
  H   H211      1.0  0.14025  0.34280  0.20991  1.0000
  S   S41       1.0  0.15003  0.45635  0.15739  1.0000
  H   H212      1.0  0.14880  0.45879  0.22792  1.0000
  C   C187      1.0  0.14362  0.29873  0.01124  1.0000
  H   H213      1.0  0.15411  0.31361  0.14108  1.0000
  H   H214      1.0  0.15808  0.25883  0.01644  1.0000
  H   H215      1.0  0.14644  0.29072  0.05084  1.0000
  C   C188      1.0  0.15268  0.30920  0.98933  1.0000
  H   H216      1.0  0.99640  0.48246  0.11163  1.0000
  C   C189      1.0  0.15654  0.34055  0.15623  1.0000
  C   C190      1.0  0.14314  0.34578  0.25174  1.0000
  C   C191      1.0  0.14841  0.33936  0.27485  1.0000
  H   H217      1.0  0.13752  0.35662  0.25239  1.0000
  H   H218      1.0  0.14634  0.34539  0.29304  1.0000
  C   C192      1.0  0.12854  0.25144  0.21231  1.0000
  H   H219      1.0  0.15870  0.26216  0.21234  1.0000
  C   C193      1.0  0.13030  0.47843  0.16777  1.0000
  H   H220      1.0  0.00457  0.48675  0.20607  1.0000
  H   H221      1.0  0.05577  0.24542  0.41418  1.0000
  H   H222      1.0  0.14721  0.45566  0.09902  1.0000
  C   C194      1.0  0.98350  0.48995  0.14357  1.0000
  H   H223      1.0  0.99272  0.48736  0.15799  1.0000
  C   C195      1.0  0.15364  0.29902  0.03450  1.0000
  C   C196      1.0  0.98541  0.48709  0.11697  1.0000
  H   H224      1.0  0.00889  0.24530  0.34950  1.0000
  H   H225      1.0  0.07307  0.24348  0.43631  1.0000
  H   H226      1.0  0.98612  0.46449  0.07559  1.0000
  S   S42       1.0  0.04690  0.24737  0.35316  1.0000
  S   S43       1.0  0.12449  0.24775  0.04861  1.0000
  S   S44       1.0  0.15918  0.37484  0.17452  1.0000
  H   H227      1.0  0.10258  0.24485  0.26752  1.0000
  C   C197      1.0  0.11279  0.24673  0.22819  1.0000
  C   C198      1.0  0.11216  0.24518  0.99746  1.0000
  C   C199      1.0  0.11487  0.24882  0.25564  1.0000
  C   C200      1.0  0.12126  0.24638  0.46199  1.0000
  S   S45       1.0  0.12492  0.24646  0.17813  1.0000
  H   H228      1.0  0.15825  0.48918  0.11542  1.0000
  H   H229      1.0  0.15511  0.47352  0.04799  1.0000
  H   H230      1.0  0.16057  0.30736  0.38612  1.0000
  H   H231      1.0  0.14445  0.48099  0.07380  1.0000
  C   C201      1.0  0.15829  0.48302  0.06543  1.0000
  H   H232      1.0  0.15734  0.33413  0.46407  1.0000
  C   C202      1.0  0.12951  0.48838  0.24941  1.0000
  H   H233      1.0  0.16084  0.30539  0.24761  1.0000
  H   H234      1.0  0.05091  0.24176  0.44859  1.0000
  C   C203      1.0  0.16288  0.49128  0.18231  1.0000
  C   C204      1.0  0.21216  0.48844  0.03944  1.0000
  H   H235      1.0  0.02493  0.49132  0.46221  1.0000
  H   H236      1.0  0.18461  0.48750  0.03378  1.0000
  H   H237      1.0  0.11537  0.30373  0.98035  1.0000
  S   S46       1.0  0.98758  0.46916  0.47871  1.0000
  H   H238      1.0  0.21528  0.49083  0.01892  1.0000
  C   C205      1.0  0.22564  0.48668  0.05660  1.0000
  C   C206      1.0  0.19444  0.48631  0.04830  1.0000
  H   H239      1.0  0.28601  0.42178  0.47710  1.0000
  H   H240      1.0  0.20051  0.24215  0.20801  1.0000
  C   C207      1.0  0.17233  0.49071  0.10839  1.0000
  H   H241      1.0  0.18856  0.40507  0.98171  1.0000
  C   C208      1.0  0.16442  0.48400  0.25195  1.0000
  H   H242      1.0  0.18821  0.49012  0.29393  1.0000
  H   H243      1.0  0.16199  0.29236  0.28561  1.0000
  C   C209      1.0  0.18747  0.47871  0.28009  1.0000
  H   H244      1.0  0.17663  0.46554  0.28723  1.0000
  H   H245      1.0  0.18379  0.25151  0.19653  1.0000
  H   H246      1.0  0.16243  0.26471  0.26074  1.0000
  C   C210      1.0  0.16308  0.32823  0.14338  1.0000
  H   H247      1.0  0.21669  0.36712  0.98414  1.0000
  C   C211      1.0  0.16163  0.45899  0.09174  1.0000
  H   H248      1.0  0.26838  0.44172  0.47284  1.0000
  C   C212      1.0  0.18974  0.48230  0.07489  1.0000
  S   S47       1.0  0.20187  0.24266  0.11809  1.0000
  H   H249      1.0  0.30867  0.43907  0.47325  1.0000
  C   C213      1.0  0.22151  0.48282  0.08274  1.0000
  C   C214      1.0  0.17098  0.30567  0.29567  1.0000
  N   N14       1.0  0.18298  0.48245  0.25293  1.0000
  H   H250      1.0  0.17517  0.30129  0.31469  1.0000
  C   C215      1.0  0.20884  0.37408  0.99408  1.0000
  H   H251      1.0  0.17394  0.45330  0.24219  1.0000
  C   C216      1.0  0.16216  0.35157  0.38057  1.0000
  N   N15       1.0  0.18277  0.35788  0.47442  1.0000
  C   C217      1.0  0.20161  0.36708  0.46319  1.0000
  H   H252      1.0  0.20129  0.47724  0.28167  1.0000
  C   C218      1.0  0.18379  0.46722  0.23585  1.0000
  H   H253      1.0  0.21023  0.38041  0.47350  1.0000
  H   H254      1.0  0.18031  0.46907  0.21511  1.0000
  H   H255      1.0  0.17861  0.32943  0.33369  1.0000
  C   C219      1.0  0.17278  0.33416  0.31633  1.0000
  H   H256      1.0  0.16498  0.34229  0.32457  1.0000
  Fe  Fe23      1.0  0.17226  0.44395  0.16375  1.0000
  H   H257      1.0  0.18391  0.31254  0.28443  1.0000
  C   C220      1.0  0.21102  0.38459  0.32781  1.0000
  C   C221      1.0  0.18934  0.39290  0.01928  1.0000
  Fe  Fe24      1.0  0.17744  0.25222  0.11513  1.0000
  H   H258      1.0  0.19655  0.24342  0.17386  1.0000
  H   H259      1.0  0.20110  0.47681  0.11194  1.0000
  H   H260      1.0  0.16056  0.44958  0.07471  1.0000
  C   C222      1.0  0.22220  0.39759  0.23336  1.0000
  C   C223      1.0  0.18976  0.39316  0.23503  1.0000
  S   S48       1.0  0.29770  0.43932  0.41927  1.0000
  C   C224      1.0  0.20571  0.38491  0.27274  1.0000
  H   H261      1.0  0.19805  0.46672  0.23627  1.0000
  C   C225      1.0  0.18098  0.33498  0.13292  1.0000
  C   C226      1.0  0.17233  0.31967  0.99212  1.0000
  H   H262      1.0  0.19104  0.43789  0.26416  1.0000
  H   H263      1.0  0.22635  0.37196  0.27239  1.0000
  H   H264      1.0  0.18485  0.34387  0.30550  1.0000
  H   H265      1.0  0.23325  0.39194  0.23700  1.0000
  H   H266      1.0  0.24216  0.43824  0.01115  1.0000
  Fe  Fe25      1.0  0.20296  0.43567  0.13596  1.0000
  H   H267      1.0  0.20642  0.35916  0.12822  1.0000
  Fe  Fe26      1.0  0.23024  0.39545  0.40388  1.0000
  H   H268      1.0  0.18725  0.37663  0.38439  1.0000
  C   C227      1.0  0.18241  0.35743  0.06728  1.0000
  C   C228      1.0  0.17294  0.37099  0.47318  1.0000
  C   C229      1.0  0.22067  0.44381  0.26573  1.0000
  H   H269      1.0  0.19199  0.44105  0.06809  1.0000
  H   H270      1.0  0.16997  0.35085  0.05386  1.0000
  H   H271      1.0  0.20828  0.38431  0.09866  1.0000
  H   H272      1.0  0.17059  0.34560  0.43691  1.0000
  C   C230      1.0  0.21021  0.38514  0.07718  1.0000
  S   S49       1.0  0.17616  0.27145  0.14765  1.0000
  H   H273      1.0  0.24482  0.43552  0.05926  1.0000
  C   C231      1.0  0.19806  0.36649  0.23232  1.0000
  H   H274      1.0  0.19525  0.36632  0.21081  1.0000
  H   H275      1.0  0.18704  0.40263  0.07187  1.0000
  Fe  Fe27      1.0  0.23083  0.43294  0.38617  1.0000
  S   S50       1.0  0.17627  0.27158  0.08319  1.0000
  H   H276      1.0  0.23908  0.48764  0.04941  1.0000
  H   H277      1.0  0.19385  0.40798  0.24142  1.0000
  H   H278      1.0  0.16951  0.45521  0.10763  1.0000
  C   C232      1.0  0.20136  0.43899  0.30401  1.0000
  N   N16       1.0  0.20384  0.38556  0.24393  1.0000
  C   C233      1.0  0.20164  0.44230  0.02852  1.0000
  C   C234      1.0  0.18584  0.36632  0.14850  1.0000
  H   H279      1.0  0.18974  0.44456  0.02000  1.0000
  S   S51       1.0  0.24815  0.44870  0.42177  1.0000
  H   H280      1.0  0.19182  0.34970  0.06495  1.0000
  H   H281      1.0  0.24971  0.44867  0.27420  1.0000
  C   C235      1.0  0.19590  0.39213  0.29009  1.0000
  H   H282      1.0  0.21096  0.36254  0.03102  1.0000
  H   H283      1.0  0.22738  0.41186  0.24242  1.0000
  C   C236      1.0  0.19246  0.35397  0.13597  1.0000
  S   S52       1.0  0.24811  0.40783  0.43981  1.0000
  C   C237      1.0  0.17194  0.34145  0.45737  1.0000
  S   S53       1.0  0.21122  0.41037  0.41083  1.0000
  S   S54       1.0  0.17254  0.42634  0.19847  1.0000
  C   C238      1.0  0.20313  0.43986  0.27665  1.0000
  C   C239      1.0  0.21687  0.44120  0.32070  1.0000
  N   N17       1.0  0.19198  0.37774  0.06242  1.0000
  C   C240      1.0  0.19864  0.39198  0.31719  1.0000
  H   H284      1.0  0.20897  0.36055  0.23503  1.0000
  H   H285      1.0  0.17550  0.38468  0.24202  1.0000
  H   H286      1.0  0.24622  0.44591  0.32225  1.0000
  C   C241      1.0  0.23414  0.44409  0.30968  1.0000
  C   C242      1.0  0.22071  0.37724  0.31143  1.0000
  H   H287      1.0  0.17895  0.33131  0.45636  1.0000
  H   H288      1.0  0.21821  0.40013  0.07282  1.0000
  C   C243      1.0  0.21583  0.44167  0.01218  1.0000
  H   H289      1.0  0.23052  0.37175  0.31994  1.0000
  H   H290      1.0  0.21335  0.38485  0.34880  1.0000
  H   H291      1.0  0.19469  0.47274  0.46634  1.0000
  C   C244      1.0  0.19289  0.39538  0.99263  1.0000
  C   C245      1.0  0.18005  0.38716  0.07307  1.0000
  Fe  Fe28      1.0  0.22994  0.42419  0.44549  1.0000
  S   S55       1.0  0.21792  0.36414  0.39549  1.0000
  H   H292      1.0  0.18640  0.39845  0.28329  1.0000
  H   H293      1.0  0.18496  0.35677  0.24110  1.0000
  C   C246      1.0  0.18574  0.33245  0.38999  1.0000
  H   H294      1.0  0.22126  0.39922  0.21185  1.0000
  C   C247      1.0  0.19346  0.35206  0.38973  1.0000
  H   H295      1.0  0.17079  0.37458  0.45264  1.0000
  S   S56       1.0  0.20626  0.41825  0.16918  1.0000
  Fe  Fe29      1.0  0.17495  0.40577  0.16905  1.0000
  H   H296      1.0  0.19727  0.32753  0.01691  1.0000
  H   H297      1.0  0.19470  0.38094  0.15028  1.0000
  C   C248      1.0  0.18156  0.36158  0.38496  1.0000
  H   H298      1.0  0.18216  0.40099  0.02779  1.0000
  H   H299      1.0  0.16612  0.38237  0.06270  1.0000
  Fe  Fe30      1.0  0.17233  0.28935  0.11558  1.0000
  H   H300      1.0  0.30757  0.48006  0.42503  1.0000
  C   C249      1.0  0.19542  0.38074  0.03416  1.0000
  H   H301      1.0  0.18841  0.39307  0.21335  1.0000
  C   C250      1.0  0.23607  0.44567  0.28239  1.0000
  C   C251      1.0  0.23261  0.43724  0.05076  1.0000
  C   C252      1.0  0.21816  0.37739  0.28429  1.0000
  C   C253      1.0  0.17288  0.30951  0.03662  1.0000
  S   S57       1.0  0.24930  0.41725  0.37760  1.0000
  C   C254      1.0  0.16631  0.32243  0.38566  1.0000
  S   S58       1.0  0.21435  0.44188  0.35505  1.0000
  H   H302      1.0  0.18791  0.43665  0.31236  1.0000
  H   H303      1.0  0.21931  0.37744  0.07246  1.0000
  H   H304      1.0  0.17730  0.35467  0.08753  1.0000
  S   S59       1.0  0.22436  0.44755  0.23172  1.0000
  C   C255      1.0  0.20544  0.37154  0.02078  1.0000
  C   C256      1.0  0.23115  0.43876  0.02344  1.0000
  S   S60       1.0  0.17156  0.42173  0.13430  1.0000
  H   H305      1.0  0.18056  0.30950  0.05467  1.0000
  C   C257      1.0  0.16782  0.35966  0.15860  1.0000
  C   C258      1.0  0.18222  0.31973  0.01542  1.0000
  Fe  Fe31      1.0  0.20390  0.43991  0.19657  1.0000
  C   C259      1.0  0.20288  0.44032  0.05581  1.0000
  H   H306      1.0  0.28980  0.45947  0.46315  1.0000
  H   H307      1.0  0.19481  0.32495  0.39371  1.0000
  Fe  Fe32      1.0  0.26571  0.43152  0.41442  1.0000
  H   H308      1.0  0.19154  0.39816  0.33012  1.0000
  H   H309      1.0  0.17737  0.38425  0.09420  1.0000
  S   S61       1.0  0.18896  0.32048  0.11428  1.0000
  C   C260      1.0  0.21862  0.43820  0.06715  1.0000
  S   S62       1.0  0.20374  0.45903  0.16341  1.0000
  H   H310      1.0  0.20058  0.37076  0.44240  1.0000
  S   S63       1.0  0.22175  0.43697  0.10155  1.0000
  H   H311      1.0  0.17652  0.49045  0.18358  1.0000
  N   N18       1.0  0.17082  0.47891  0.08474  1.0000
  H   H312      1.0  0.17928  0.48679  0.12529  1.0000
  H   H313      1.0  0.23178  0.48069  0.09580  1.0000
  C   C261      1.0  0.20383  0.48056  0.09177  1.0000
  H   H314      1.0  0.20962  0.35782  0.46384  1.0000
  H   H315      1.0  0.11646  0.49053  0.24744  1.0000
  Fe  Fe33      1.0  0.17786  0.45412  0.65813  1.0000
  S   S64       1.0  0.20936  0.46833  0.66141  1.0000
  S   S65       1.0  0.15952  0.47019  0.64686  1.0000
  Fe  Fe34      1.0  0.17976  0.41549  0.65940  1.0000
  S   S66       1.0  0.21124  0.42704  0.66215  1.0000
  S   S67       1.0  0.16166  0.38474  0.66016  1.0000
  Fe  Fe35      1.0  0.20776  0.44686  0.69184  1.0000
  S   S68       1.0  0.22722  0.45255  0.72793  1.0000
  Fe  Fe36      1.0  0.20982  0.44702  0.63147  1.0000
  S   S69       1.0  0.22974  0.45689  0.59756  1.0000
  S   S70       1.0  0.17617  0.43426  0.69080  1.0000
  S   S71       1.0  0.17848  0.43394  0.62656  1.0000
  H   H316      1.0  0.10255  0.25100  0.76318  1.0000
  S   S72       1.0  0.18659  0.28082  0.59221  1.0000
  S   S73       1.0  0.17761  0.27476  0.65390  1.0000
  Fe  Fe37      1.0  0.18002  0.29673  0.62452  1.0000
  S   S74       1.0  0.19867  0.32714  0.63088  1.0000
  S   S75       1.0  0.14930  0.28609  0.61441  1.0000
  Fe  Fe38      1.0  0.22767  0.40257  0.91505  1.0000
  S   S76       1.0  0.20883  0.41828  0.91484  1.0000
  S   S77       1.0  0.21518  0.37068  0.91407  1.0000
  Fe  Fe39      1.0  0.26336  0.43909  0.91407  1.0000
  S   S78       1.0  0.24590  0.45690  0.91320  1.0000
  S   S79       1.0  0.29545  0.44880  0.90868  1.0000
  Fe  Fe40      1.0  0.22905  0.43759  0.94456  1.0000
  C   C262      1.0  0.26332  0.42216  0.51864  1.0000
  Fe  Fe41      1.0  0.22706  0.43567  0.88357  1.0000
  S   S80       1.0  0.20932  0.43856  0.84855  1.0000
  S   S81       1.0  0.24723  0.42075  0.94676  1.0000
  S   S82       1.0  0.24519  0.41899  0.88254  1.0000
  Fe  Fe42      1.0  0.08221  0.25559  0.86375  1.0000
  Fe  Fe43      1.0  0.11727  0.29219  0.87297  1.0000
  S   S83       1.0  0.13663  0.27750  0.86732  1.0000
  S   S84       1.0  0.12911  0.32333  0.88314  1.0000
  Fe  Fe44      1.0  0.11803  0.26271  0.83285  1.0000
  C   C263      1.0  0.21372  0.48338  0.82243  1.0000
  Fe  Fe45      1.0  0.11749  0.25538  0.89290  1.0000
  S   S85       1.0  0.09941  0.27888  0.83717  1.0000
  S   S86       1.0  0.09868  0.27079  0.90004  1.0000
  C   C264      1.0  0.19135  0.35790  0.90455  1.0000
  C   C265      1.0  0.18537  0.33873  0.89862  1.0000
  C   C266      1.0  0.16653  0.32811  0.89117  1.0000
  C   C267      1.0  0.15333  0.33644  0.89018  1.0000
  C   C268      1.0  0.15933  0.35561  0.89600  1.0000
  C   C269      1.0  0.17823  0.36630  0.90305  1.0000
  H   H317      1.0  0.19540  0.33209  0.89967  1.0000
  H   H318      1.0  0.16224  0.31341  0.88669  1.0000
  H   H319      1.0  0.14929  0.36225  0.89524  1.0000
  H   H320      1.0  0.18252  0.38099  0.90757  1.0000
  C   C270      1.0  0.19471  0.36728  0.52068  1.0000
  C   C271      1.0  0.19331  0.47364  0.58441  1.0000
  H   H321      1.0  0.14770  0.28879  0.48969  1.0000
  H   H322      1.0  0.11484  0.29900  0.94604  1.0000
  H   H323      1.0  0.29421  0.46048  0.55220  1.0000
  C   C272      1.0  0.14630  0.26595  0.71952  1.0000
  H   H324      1.0  0.20546  0.38815  0.95948  1.0000
  N   N19       1.0  0.20147  0.38790  0.73308  1.0000
  C   C273      1.0  0.22507  0.44646  0.56582  1.0000
  C   C274      1.0  0.20980  0.42968  0.56055  1.0000
  C   C275      1.0  0.20658  0.42173  0.53517  1.0000
  C   C276      1.0  0.21868  0.43031  0.51484  1.0000
  C   C277      1.0  0.23388  0.44715  0.52004  1.0000
  C   C278      1.0  0.23703  0.45519  0.54542  1.0000
  H   H325      1.0  0.20050  0.42279  0.57605  1.0000
  H   H326      1.0  0.19460  0.40885  0.53132  1.0000
  H   H327      1.0  0.24312  0.45403  0.50453  1.0000
  H   H328      1.0  0.24887  0.46819  0.54931  1.0000
  C   C279      1.0  0.22157  0.44666  0.76096  1.0000
  C   C280      1.0  0.20318  0.44089  0.76965  1.0000
  C   C281      1.0  0.19964  0.43792  0.79646  1.0000
  C   C282      1.0  0.21432  0.44030  0.81479  1.0000
  C   C283      1.0  0.23256  0.44520  0.80591  1.0000
  C   C284      1.0  0.23616  0.44853  0.77916  1.0000
  H   H329      1.0  0.19175  0.43924  0.75597  1.0000
  H   H330      1.0  0.18550  0.43421  0.80319  1.0000
  H   H331      1.0  0.24399  0.44714  0.81979  1.0000
  H   H332      1.0  0.25043  0.45294  0.77266  1.0000
  C   C285      1.0  0.17188  0.36887  0.65090  1.0000
  C   C286      1.0  0.16086  0.34966  0.65000  1.0000
  C   C287      1.0  0.16882  0.33672  0.64332  1.0000
  C   C288      1.0  0.18790  0.34293  0.63782  1.0000
  C   C289      1.0  0.19888  0.36213  0.63860  1.0000
  C   C290      1.0  0.19088  0.37506  0.64493  1.0000
  H   H333      1.0  0.14615  0.34475  0.65456  1.0000
  H   H334      1.0  0.16026  0.32195  0.64300  1.0000
  H   H335      1.0  0.21364  0.36701  0.63432  1.0000
  H   H336      1.0  0.19945  0.38977  0.64518  1.0000
  H   H337      1.0  0.18101  0.25470  0.70315  1.0000
  H   H338      1.0  0.18560  0.26970  0.52377  1.0000
  C   C291      1.0  0.13160  0.24961  0.95945  1.0000
  S   S87       1.0  0.12489  0.25310  0.67341  1.0000
  H   H339      1.0  0.20376  0.40302  0.76950  1.0000
  C   C292      1.0  0.18823  0.34482  0.55540  1.0000
  C   C293      1.0  0.12816  0.24366  0.50854  1.0000
  C   C294      1.0  0.20640  0.36030  0.71178  1.0000
  H   H340      1.0  0.11879  0.28324  0.96820  1.0000
  H   H341      1.0  0.04394  0.45172  0.68300  1.0000
  H   H342      1.0  0.07331  0.48072  0.73729  1.0000
  H   H343      1.0  0.18101  0.38450  0.48347  1.0000
  C   C295      1.0  0.13987  0.27387  0.48833  1.0000
  H   H344      1.0  0.14839  0.45530  0.56022  1.0000
  C   C296      1.0  0.19634  0.36317  0.54698  1.0000
  H   H345      1.0  0.18944  0.34165  0.57583  1.0000
  C   C297      1.0  0.19112  0.47301  0.48665  1.0000
  H   H346      1.0  0.25964  0.41521  0.49975  1.0000
  H   H347      1.0  0.09393  0.47612  0.73117  1.0000
  C   C298      1.0  0.25480  0.42296  0.56365  1.0000
  H   H348      1.0  0.11349  0.44829  0.63332  1.0000
  C   C299      1.0  0.11478  0.25530  0.75117  1.0000
  N   N20       1.0  0.29175  0.44715  0.50014  1.0000
  H   H349      1.0  0.21528  0.47965  0.84248  1.0000
  H   H350      1.0  0.18652  0.44757  0.54112  1.0000
  C   C300      1.0  0.12835  0.25803  0.70770  1.0000
  C   C301      1.0  0.19798  0.38844  0.76138  1.0000
  C   C302      1.0  0.17848  0.33050  0.53756  1.0000
  C   C303      1.0  0.30909  0.46352  0.50764  1.0000
  C   C304      1.0  0.15008  0.30113  0.94327  1.0000
  S   S88       1.0  0.13652  0.26410  0.79762  1.0000
  C   C305      1.0  0.22880  0.48795  0.80584  1.0000
  H   H351      1.0  0.15893  0.36486  0.48217  1.0000
  H   H352      1.0  0.24514  0.41714  0.57927  1.0000
  H   H353      1.0  0.18277  0.38264  0.76551  1.0000
  C   C306      1.0  0.14747  0.25442  0.97640  1.0000
  C   C307      1.0  0.28258  0.44752  0.54760  1.0000
  H   H354      1.0  0.20332  0.26901  0.54572  1.0000
  S   S89       1.0  0.15021  0.27428  0.54010  1.0000
  H   H355      1.0  0.23887  0.40165  0.53566  1.0000
  H   H356      1.0  0.17211  0.31622  0.54426  1.0000
  H   H357      1.0  0.15851  0.27005  0.70756  1.0000
  Fe  Fe46      1.0  0.18114  0.25747  0.62039  1.0000
  H   H358      1.0  0.99046  0.47096  0.55618  1.0000
  C   C308      1.0  0.19559  0.26263  0.52727  1.0000
  H   H359      1.0  0.20121  0.38173  0.51509  1.0000
  H   H360      1.0  0.19848  0.46692  0.72978  1.0000
  C   C309      1.0  0.14846  0.26797  0.74697  1.0000
  H   H361      1.0  0.20580  0.26646  0.51125  1.0000
  H   H362      1.0  0.16417  0.24390  0.50223  1.0000
  H   H363      1.0  0.15331  0.32964  0.71575  1.0000
  S   S90       1.0  0.21361  0.41960  0.48327  1.0000
  H   H364      1.0  0.30584  0.47544  0.51507  1.0000
  H   H365      1.0  0.09868  0.24679  0.71485  1.0000
  H   H366      1.0  0.16332  0.44342  0.57014  1.0000
  N   N21       1.0  0.16579  0.32403  0.80957  1.0000
  C   C310      1.0  0.14645  0.31542  0.81933  1.0000
  C   C311      1.0  0.16472  0.32327  0.78062  1.0000
  C   C312      1.0  0.17599  0.31217  0.81833  1.0000
  C   C313      1.0  0.17478  0.34374  0.81890  1.0000
  C   C314      1.0  0.16620  0.35663  0.81337  1.0000
  C   C315      1.0  0.19214  0.35079  0.83343  1.0000
  C   C316      1.0  0.17422  0.37521  0.82242  1.0000
  C   C317      1.0  0.20011  0.36944  0.84210  1.0000
  C   C318      1.0  0.19113  0.38159  0.83679  1.0000
  H   H367      1.0  0.13716  0.32255  0.81268  1.0000
  H   H368      1.0  0.13934  0.30056  0.81278  1.0000
  H   H369      1.0  0.14665  0.31564  0.84097  1.0000
  H   H370      1.0  0.15845  0.30855  0.77301  1.0000
  H   H371      1.0  0.17892  0.32998  0.77234  1.0000
  H   H372      1.0  0.15574  0.33037  0.77260  1.0000
  H   H373      1.0  0.16865  0.29736  0.81152  1.0000
  H   H374      1.0  0.19038  0.31705  0.81051  1.0000
  H   H375      1.0  0.17692  0.31180  0.84005  1.0000
  H   H376      1.0  0.15300  0.35233  0.80251  1.0000
  H   H377      1.0  0.19966  0.34212  0.83905  1.0000
  H   H378      1.0  0.16714  0.38468  0.81881  1.0000
  H   H379      1.0  0.21304  0.37438  0.85394  1.0000
  H   H380      1.0  0.19714  0.39589  0.84429  1.0000
  H   H381      1.0  0.16022  0.33730  0.95273  1.0000
  Fe  Fe47      1.0  0.14712  0.26287  0.64208  1.0000
  H   H382      1.0  0.19271  0.39670  0.69736  1.0000
  H   H383      1.0  0.07414  0.44270  0.73576  1.0000
  H   H384      1.0  0.16890  0.32263  0.49864  1.0000
  H   H385      1.0  0.20381  0.37427  0.56101  1.0000
  C   C319      1.0  0.13838  0.26297  0.51064  1.0000
  C   C320      1.0  0.18021  0.33078  0.70405  1.0000
  H   H386      1.0  0.19604  0.46070  0.58173  1.0000
  N   N22       1.0  0.18566  0.24202  0.52866  1.0000
  C   C321      1.0  0.17524  0.35652  0.72507  1.0000
  H   H387      1.0  0.16242  0.27348  0.75587  1.0000
  H   H388      1.0  0.17606  0.39231  0.72248  1.0000
  C   C322      1.0  0.27945  0.43895  0.52230  1.0000
  H   H389      1.0  0.30487  0.48100  0.94535  1.0000
  H   H390      1.0  0.01131  0.24250  0.86697  1.0000
  Fe  Fe48      1.0  0.15548  0.26880  0.58302  1.0000
  N   N23       1.0  0.17723  0.47353  0.56783  1.0000
  H   H391      1.0  0.19692  0.41306  0.72419  1.0000
  H   H392      1.0  0.22117  0.36815  0.70905  1.0000
  H   H393      1.0  0.16530  0.36172  0.73304  1.0000
  C   C323      1.0  0.18566  0.24303  0.69923  1.0000
  H   H394      1.0  0.22661  0.41316  0.73680  1.0000
  H   H395      1.0  0.13679  0.32919  0.94005  1.0000
  H   H396      1.0  0.98820  0.48452  0.52924  1.0000
  C   C324      1.0  0.18679  0.48765  0.49646  1.0000
  H   H397      1.0  0.11936  0.44453  0.67997  1.0000
  C   C325      1.0  0.16823  0.33811  0.71537  1.0000
  H   H398      1.0  0.22537  0.39930  0.70838  1.0000
  C   C326      1.0  0.22189  0.39842  0.72944  1.0000
  C   C327      1.0  0.19923  0.34184  0.70225  1.0000
  C   C328      1.0  0.18474  0.35305  0.50198  1.0000
  C   C329      1.0  0.19089  0.45868  0.50299  1.0000
  S   S91       1.0  0.20258  0.24424  0.62787  1.0000
  C   C330      1.0  0.11263  0.25291  0.72372  1.0000
  H   H399      1.0  0.17465  0.31673  0.69568  1.0000
  C   C331      1.0  0.27036  0.43956  0.56786  1.0000
  C   C332      1.0  0.20255  0.38596  0.98007  1.0000
  H   H400      1.0  0.16505  0.30962  0.93955  1.0000
  C   C333      1.0  0.17672  0.33445  0.51123  1.0000
  H   H401      1.0  0.16940  0.48922  0.59714  1.0000
  H   H402      1.0  0.20469  0.38034  0.77272  1.0000
  H   H403      1.0  0.08772  0.45810  0.61951  1.0000
  H   H404      1.0  0.20830  0.33627  0.69235  1.0000
  C   C334      1.0  0.19456  0.36824  0.72347  1.0000
  H   H405      1.0  0.14209  0.29989  0.92445  1.0000
  C   C335      1.0  0.11396  0.24534  0.97014  1.0000
  N   N24       1.0  0.06978  0.46059  0.70615  1.0000
  C   C336      1.0  0.05317  0.46373  0.69541  1.0000
  H   H406      1.0  0.05283  0.44618  0.73824  1.0000
  C   C337      1.0  0.08141  0.47746  0.72163  1.0000
  C   C338      1.0  0.08141  0.45709  0.68579  1.0000
  C   C339      1.0  0.07857  0.45937  0.65869  1.0000
  C   C340      1.0  0.09659  0.45183  0.69292  1.0000
  C   C341      1.0  0.08997  0.45608  0.64004  1.0000
  C   C342      1.0  0.10771  0.44835  0.67410  1.0000
  C   C343      1.0  0.10443  0.45049  0.64772  1.0000
  H   H407      1.0  0.14912  0.28687  0.94818  1.0000
  H   H408      1.0  0.99067  0.48228  0.69489  1.0000
  H   H409      1.0  0.23053  0.39203  0.74028  1.0000
  H   H410      1.0  0.30359  0.42613  0.50287  1.0000
  S   S92       1.0  0.13434  0.24809  0.92528  1.0000
  C   C344      1.0  0.18639  0.45895  0.52922  1.0000
  C   C345      1.0  0.13274  0.26253  0.76302  1.0000
  H   H411      1.0  0.15622  0.45611  0.59376  1.0000
  C   C346      1.0  0.19135  0.39793  0.71879  1.0000
  H   H412      1.0  0.06781  0.46391  0.65138  1.0000
  H   H413      1.0  0.10024  0.45075  0.71316  1.0000
  C   C347      1.0  0.25129  0.41427  0.53909  1.0000
  C   C348      1.0  0.18192  0.47364  0.53993  1.0000
  C   C349      1.0  0.06271  0.44446  0.72389  1.0000
  N   N25       1.0  0.14260  0.30927  0.96436  1.0000
  C   C350      1.0  0.18224  0.48806  0.52269  1.0000
  H   H414      1.0  0.05733  0.47672  0.68383  1.0000
  S   S93       1.0  0.15027  0.24412  0.60967  1.0000
  H   H415      1.0  0.05513  0.43122  0.71264  1.0000
  H   H416      1.0  0.27265  0.44651  0.58686  1.0000
  H   H417      1.0  0.21536  0.25061  0.56427  1.0000
  H   H418      1.0  0.04435  0.46570  0.71119  1.0000
  S   S94       1.0  0.04987  0.24651  0.86463  1.0000
  C   C351      1.0  0.14544  0.32874  0.95760  1.0000
  H   H419      1.0  0.19081  0.47465  0.60560  1.0000
  C   C352      1.0  0.16058  0.45637  0.57313  1.0000
  C   C353      1.0  0.14968  0.48257  0.66707  1.0000
  H   H420      1.0  0.98736  0.47943  0.87386  1.0000
  C   C354      1.0  0.98373  0.48060  0.54949  1.0000
  H   H421      1.0  0.16119  0.25785  0.96829  1.0000
  H   H422      1.0  0.19588  0.24332  0.71502  1.0000
  H   H423      1.0  0.16046  0.49028  0.56502  1.0000
  C   C355      1.0  0.17288  0.48982  0.57607  1.0000
  H   H424      1.0  0.19430  0.44731  0.49528  1.0000
  C   C356      1.0  0.12202  0.29833  0.96496  1.0000
  C   C357      1.0  0.29769  0.43290  0.48797  1.0000
  H   H425      1.0  0.27655  0.46418  0.48873  1.0000
  H   H426      1.0  0.18193  0.24270  0.57020  1.0000
  C   C358      1.0  0.15094  0.48221  0.69430  1.0000
  H   H427      1.0  0.14147  0.33591  0.97392  1.0000
  H   H428      1.0  0.24201  0.48768  0.81318  1.0000
  H   H429      1.0  0.98552  0.48018  0.60144  1.0000
  S   S95       1.0  0.21423  0.44562  0.97820  1.0000
  H   H430      1.0  0.98411  0.47445  0.92091  1.0000
  H   H431      1.0  0.08680  0.48985  0.70890  1.0000
  H   H432      1.0  0.16302  0.24419  0.55046  1.0000
  H   H433      1.0  0.15771  0.47391  0.70349  1.0000
  H   H434      1.0  0.17915  0.47296  0.73812  1.0000
  H   H435      1.0  0.18466  0.47878  0.82585  1.0000
  H   H436      1.0  0.19371  0.24621  0.68093  1.0000
  C   C359      1.0  0.19302  0.47824  0.72877  1.0000
  C   C360      1.0  0.19645  0.48280  0.81294  1.0000
  H   H437      1.0  0.20651  0.48557  0.57979  1.0000
  H   H438      1.0  0.18021  0.32769  0.97612  1.0000
  H   H439      1.0  0.19056  0.48041  0.70775  1.0000
  H   H440      1.0  0.22991  0.49097  0.72529  1.0000
  C   C361      1.0  0.19420  0.48689  0.78683  1.0000
  H   H441      1.0  0.18041  0.48585  0.78033  1.0000
  C   C362      1.0  0.28117  0.45340  0.48039  1.0000
  Fe  Fe49      1.0  0.06033  0.57273  0.45490  1.0000
  S   S96       1.0  0.08078  0.55860  0.45562  1.0000
  S   S97       1.0  0.02871  0.55633  0.45703  1.0000
  Fe  Fe50      1.0  0.09220  0.61234  0.45299  1.0000
  S   S98       1.0  0.11437  0.60027  0.45379  1.0000
  S   S99       1.0  0.09849  0.64391  0.45273  1.0000
  Fe  Fe51      1.0  0.09554  0.57900  0.42452  1.0000
  S   S100      1.0  0.10796  0.56965  0.38983  1.0000
  H   H442      1.0  0.02534  0.52822  0.15001  1.0000
  S   S101      1.0  0.10926  0.57164  0.01809  1.0000
  S   S102      1.0  0.07408  0.59198  0.42192  1.0000
  C   C363      1.0  0.18742  0.70020  0.37198  1.0000
  Fe  Fe52      1.0  0.10133  0.56349  0.17226  1.0000
  S   S103      1.0  0.09504  0.53277  0.16777  1.0000
  S   S104      1.0  0.10027  0.58293  0.13961  1.0000
  Fe  Fe53      1.0  0.09866  0.56116  0.23328  1.0000
  S   S105      1.0  0.09225  0.53033  0.23233  1.0000
  S   S106      1.0  0.09413  0.57752  0.26806  1.0000
  Fe  Fe54      1.0  0.11498  0.53708  0.20244  1.0000
  S   S107      1.0  0.13989  0.52799  0.20585  1.0000
  Fe  Fe55      1.0  0.07309  0.52916  0.19788  1.0000
  H   H443      1.0  0.11457  0.61177  0.01420  1.0000
  S   S108      1.0  0.12255  0.56838  0.20545  1.0000
  S   S109      1.0  0.07838  0.55941  0.20031  1.0000
  S   S110      1.0  0.17000  0.71925  0.43107  1.0000
  H   H444      1.0  0.04588  0.55020  0.25734  1.0000
  C   C364      1.0  0.02431  0.54554  0.35751  1.0000
  H   H445      1.0  0.02205  0.51584  0.11943  1.0000
  H   H446      1.0  0.04441  0.54944  0.01465  1.0000
  H   H447      1.0  0.06466  0.54180  0.37902  1.0000
  C   C365      1.0  0.02486  0.51511  0.20550  1.0000
  H   H448      1.0  0.05533  0.51534  0.29564  1.0000
  H   H449      1.0  0.05647  0.52261  0.12302  1.0000
  H   H450      1.0  0.11981  0.62885  0.98883  1.0000
  C   C366      1.0  0.01386  0.53851  0.22207  1.0000
  C   C367      1.0  0.02791  0.53379  0.21084  1.0000
  H   H451      1.0  0.16460  0.49778  0.05899  1.0000
  H   H452      1.0  0.01656  0.55299  0.22666  1.0000
  H   H453      1.0  0.04109  0.54469  0.20658  1.0000
  C   C368      1.0  0.11887  0.66474  0.44812  1.0000
  C   C369      1.0  0.13662  0.66447  0.44366  1.0000
  C   C370      1.0  0.15202  0.68127  0.43868  1.0000
  C   C371      1.0  0.15008  0.69865  0.43852  1.0000
  C   C372      1.0  0.13242  0.69893  0.44346  1.0000
  C   C373      1.0  0.11697  0.68211  0.44812  1.0000
  H   H454      1.0  0.13850  0.65135  0.44384  1.0000
  H   H455      1.0  0.16561  0.68084  0.43513  1.0000
  H   H456      1.0  0.13059  0.71209  0.44337  1.0000
  C   C374      1.0  0.99937  0.49365  0.47446  1.0000
  C   C375      1.0  0.10530  0.57379  0.05168  1.0000
  C   C376      1.0  0.09564  0.58464  0.06045  1.0000
  C   C377      1.0  0.09414  0.58725  0.08743  1.0000
  C   C378      1.0  0.10171  0.57852  0.10588  1.0000
  C   C379      1.0  0.11064  0.56702  0.09710  1.0000
  C   C380      1.0  0.11265  0.56489  0.07013  1.0000
  H   H457      1.0  0.08955  0.59121  0.04646  1.0000
  H   H458      1.0  0.08708  0.59607  0.09406  1.0000
  H   H459      1.0  0.11658  0.56027  0.11109  1.0000
  H   H460      1.0  0.12011  0.55644  0.06353  1.0000
  C   C381      1.0  0.10291  0.57090  0.35610  1.0000
  C   C382      1.0  0.09128  0.57982  0.34720  1.0000
  C   C383      1.0  0.08867  0.58166  0.32020  1.0000
  C   C384      1.0  0.09722  0.57412  0.30180  1.0000
  C   C385      1.0  0.10827  0.56456  0.31069  1.0000
  C   C386      1.0  0.11124  0.56315  0.33772  1.0000
  H   H461      1.0  0.08445  0.58541  0.36114  1.0000
  H   H462      1.0  0.08012  0.58910  0.31353  1.0000
  H   H463      1.0  0.11494  0.55871  0.29677  1.0000
  H   H464      1.0  0.12021  0.55615  0.34443  1.0000
  H   H465      1.0  0.99564  0.49710  0.03984  1.0000
  C   C387      1.0  0.05425  0.53759  0.33900  1.0000
  C   C388      1.0  0.99370  0.49939  0.06093  1.0000
  C   C389      1.0  0.05615  0.52818  0.28530  1.0000
  Fe  Fe56      1.0  0.09416  0.57942  0.98430  1.0000
  C   C390      1.0  0.04307  0.55135  0.27834  1.0000
  C   C391      1.0  0.03035  0.54914  0.07720  1.0000
  C   C392      1.0  0.15527  0.66377  0.01529  1.0000
  H   H466      1.0  0.11422  0.67115  0.01392  1.0000
  C   C393      1.0  0.05789  0.54319  0.04843  1.0000
  H   H467      1.0  0.09487  0.62373  0.03698  1.0000
  H   H468      1.0  0.21073  0.73352  0.39544  1.0000
  H   H469      1.0  0.99506  0.51413  0.06338  1.0000
  C   C394      1.0  0.14266  0.50850  0.19079  1.0000
  H   H470      1.0  0.07286  0.54662  0.12676  1.0000
  N   N26       1.0  0.11278  0.63586  0.37069  1.0000
  C   C395      1.0  0.09211  0.63037  0.37146  1.0000
  C   C396      1.0  0.11836  0.62665  0.39285  1.0000
  C   C397      1.0  0.12194  0.65635  0.37510  1.0000
  C   C398      1.0  0.11807  0.63082  0.34496  1.0000
  C   C399      1.0  0.12882  0.61956  0.34217  1.0000
  C   C400      1.0  0.11249  0.63729  0.32162  1.0000
  C   C401      1.0  0.13312  0.61472  0.31751  1.0000
  C   C402      1.0  0.11677  0.63224  0.29706  1.0000
  C   C403      1.0  0.12695  0.62087  0.29502  1.0000
  H   H471      1.0  0.08456  0.61529  0.36647  1.0000
  H   H472      1.0  0.08763  0.63286  0.39123  1.0000
  H   H473      1.0  0.08688  0.63842  0.35775  1.0000
  H   H474      1.0  0.11191  0.61112  0.39065  1.0000
  H   H475      1.0  0.11368  0.63016  0.41178  1.0000
  H   H476      1.0  0.13387  0.63114  0.39488  1.0000
  H   H477      1.0  0.13749  0.66113  0.37540  1.0000
  H   H478      1.0  0.11789  0.66428  0.35977  1.0000
  H   H479      1.0  0.11792  0.66072  0.39402  1.0000
  H   H480      1.0  0.13346  0.61364  0.35863  1.0000
  H   H481      1.0  0.10451  0.64609  0.32214  1.0000
  H   H482      1.0  0.14054  0.60539  0.31576  1.0000
  H   H483      1.0  0.11183  0.63678  0.27943  1.0000
  H   H484      1.0  0.12959  0.61634  0.27594  1.0000
  H   H485      1.0  0.13104  0.64788  0.06818  1.0000
  H   H486      1.0  0.18696  0.67543  0.30581  1.0000
  H   H487      1.0  0.17192  0.51810  0.20235  1.0000
  H   H488      1.0  0.04154  0.52524  0.45418  1.0000
  H   H489      1.0  0.06650  0.53518  0.33316  1.0000
  H   H490      1.0  0.18678  0.70645  0.39068  1.0000
  C   C404      1.0  0.03845  0.54538  0.37485  1.0000
  H   H491      1.0  0.20012  0.51199  0.25825  1.0000
  C   C405      1.0  0.00012  0.52536  0.47501  1.0000
  H   H492      1.0  0.07012  0.53945  0.28957  1.0000
  C   C406      1.0  0.00719  0.50126  0.21027  1.0000
  H   H493      1.0  0.10337  0.68259  0.45152  1.0000
  C   C407      1.0  0.17897  0.67183  0.34590  1.0000
  C   C408      1.0  0.04418  0.54782  0.03567  1.0000
  S   S111      1.0  0.04280  0.50867  0.19319  1.0000
  H   H494      1.0  0.04870  0.56186  0.15308  1.0000
  C   C409      1.0  0.03994  0.53746  0.32083  1.0000
  C   C410      1.0  0.02745  0.52006  0.46146  1.0000
  H   H495      1.0  0.03048  0.55500  0.27919  1.0000
  H   H496      1.0  0.05585  0.52508  0.26394  1.0000
  H   H497      1.0  0.10210  0.64806  0.04453  1.0000
  C   C411      1.0  0.03040  0.55074  0.04999  1.0000
  N   N27       1.0  0.12362  0.64045  0.02768  1.0000
  C   C412      1.0  0.10364  0.63794  0.03016  1.0000
  C   C413      1.0  0.12413  0.62609  0.00876  1.0000
  C   C414      1.0  0.13050  0.63693  0.05360  1.0000
  C   C415      1.0  0.13580  0.65924  0.01871  1.0000
  C   C416      1.0  0.99303  0.50600  0.22129  1.0000
  C   C417      1.0  0.12886  0.67336  0.01268  1.0000
  H   H498      1.0  0.99311  0.53482  0.47857  1.0000
  H   H499      1.0  0.02345  0.51496  0.26234  1.0000
  H   H500      1.0  0.17249  0.65672  0.34413  1.0000
  H   H501      1.0  0.16151  0.65372  0.01927  1.0000
  H   H502      1.0  0.98656  0.53909  0.39917  1.0000
  H   H503      1.0  0.01050  0.52308  0.28380  1.0000
  C   C418      1.0  0.18718  0.68240  0.32435  1.0000
  C   C419      1.0  0.01794  0.50079  0.46587  1.0000
  C   C420      1.0  0.01846  0.53243  0.46563  1.0000
  H   H504      1.0  0.06884  0.54136  0.03717  1.0000
  H   H505      1.0  0.12128  0.62313  0.06131  1.0000
  C   C421      1.0  0.05340  0.54146  0.36559  1.0000
  H   H506      1.0  0.22869  0.73123  0.37552  1.0000
  C   C422      1.0  0.19624  0.71141  0.35060  1.0000
  H   H507      1.0  0.19419  0.50420  0.22495  1.0000
  H   H508      1.0  0.14477  0.63663  0.05294  1.0000
  N   N28       1.0  0.20482  0.73203  0.35358  1.0000
  N   N29       1.0  0.04399  0.54317  0.11976  1.0000
  H   H509      1.0  0.20168  0.70922  0.30902  1.0000
  H   H510      1.0  0.18035  0.50575  0.10449  1.0000
  C   C423      1.0  0.02547  0.52990  0.12838  1.0000
  C   C424      1.0  0.04408  0.54434  0.09088  1.0000
  C   C425      1.0  0.02278  0.51891  0.28312  1.0000
  C   C426      1.0  0.04765  0.56189  0.13133  1.0000
  N   N30       1.0  0.04059  0.53398  0.29245  1.0000
  C   C427      1.0  0.14077  0.69083  0.00387  1.0000
  H   H511      1.0  0.01284  0.54888  0.36466  1.0000
  H   H512      1.0  0.03645  0.56702  0.12605  1.0000
  H   H513      1.0  0.16873  0.70808  0.99275  1.0000
  H   H514      1.0  0.21171  0.49887  0.24312  1.0000
  C   C428      1.0  0.99646  0.52464  0.22775  1.0000
  H   H515      1.0  0.01994  0.55458  0.03978  1.0000
  C   C429      1.0  0.15974  0.69471  0.00044  1.0000
  H   H516      1.0  0.99688  0.52510  0.41632  1.0000
  H   H517      1.0  0.18173  0.68426  0.00322  1.0000
  H   H518      1.0  0.17325  0.50957  0.27590  1.0000
  H   H519      1.0  0.06933  0.53834  0.08412  1.0000
  H   H520      1.0  0.01970  0.55206  0.08751  1.0000
  H   H521      1.0  0.03800  0.54855  0.39546  1.0000
  C   C430      1.0  0.19569  0.70190  0.32651  1.0000
  H   H522      1.0  0.01390  0.54234  0.31813  1.0000
  C   C431      1.0  0.02502  0.54171  0.33090  1.0000
  C   C432      1.0  0.19784  0.50013  0.24448  1.0000
  H   H523      1.0  0.05770  0.53562  0.15238  1.0000
  H   H524      1.0  0.01384  0.53450  0.12348  1.0000
  H   H525      1.0  0.17921  0.73486  0.34110  1.0000
  C   C433      1.0  0.21552  0.74154  0.33054  1.0000
  H   H526      1.0  0.06117  0.57239  0.12457  1.0000
  C   C434      1.0  0.05795  0.54148  0.07560  1.0000
  C   C435      1.0  0.05839  0.53670  0.13076  1.0000
  H   H527      1.0  0.09728  0.63952  0.01098  1.0000
  H   H528      1.0  0.05529  0.56341  0.28657  1.0000
  H   H529      1.0  0.17278  0.67259  0.38654  1.0000
  C   C436      1.0  0.16699  0.68122  0.00619  1.0000
  C   C437      1.0  0.17912  0.68073  0.36969  1.0000
  C   C438      1.0  0.99217  0.49475  0.98356  1.0000
  H   H530      1.0  0.13829  0.62561  0.00751  1.0000
  C   C439      1.0  0.16027  0.50702  0.19267  1.0000
  H   H531      1.0  0.13513  0.70125  0.99883  1.0000
  H   H532      1.0  0.14337  0.51347  0.27221  1.0000
  C   C440      1.0  0.12772  0.49421  0.17798  1.0000
  H   H533      1.0  0.11411  0.49516  0.17636  1.0000
  C   C441      1.0  0.99065  0.50614  0.47941  1.0000
  H   H534      1.0  0.00564  0.49780  0.07175  1.0000
  H   H535      1.0  0.01962  0.50609  0.29478  1.0000
  S   S112      1.0  0.07445  0.59411  0.98922  1.0000
  C   C442      1.0  0.21800  0.73756  0.37664  1.0000
  H   H536      1.0  0.18215  0.73388  0.37589  1.0000
  C   C443      1.0  0.18976  0.73911  0.35756  1.0000
  H   H537      1.0  0.22682  0.73648  0.32606  1.0000
  H   H538      1.0  0.20621  0.73980  0.31294  1.0000
  H   H539      1.0  0.01913  0.49259  0.98115  1.0000
  C   C444      1.0  0.16190  0.49913  0.26486  1.0000
  C   C445      1.0  0.14475  0.50135  0.26328  1.0000
  H   H540      1.0  0.99835  0.50237  0.38927  1.0000
  C   C446      1.0  0.98280  0.50703  0.98225  1.0000
  C   C447      1.0  0.98881  0.50155  0.37303  1.0000
  C   C448      1.0  0.98114  0.49473  0.32699  1.0000
  C   C449      1.0  0.98363  0.52737  0.41296  1.0000
  C   C450      1.0  0.99310  0.49639  0.34854  1.0000
  H   H541      1.0  0.00561  0.49338  0.34638  1.0000
  Fe  Fe57      1.0  0.05571  0.57245  0.96028  1.0000
  S   S113      1.0  0.07488  0.55701  0.95700  1.0000
  H   H542      1.0  0.03179  0.60290  0.73515  1.0000
  Fe  Fe58      1.0  0.08864  0.61112  0.95451  1.0000
  S   S114      1.0  0.10958  0.59760  0.95143  1.0000
  S   S115      1.0  0.09607  0.64292  0.95364  1.0000
  Fe  Fe59      1.0  0.08808  0.57665  0.92430  1.0000
  S   S116      1.0  0.09859  0.56706  0.88776  1.0000
  H   H543      1.0  0.04001  0.55635  0.64412  1.0000
  S   S117      1.0  0.11161  0.57526  0.52114  1.0000
  S   S118      1.0  0.06769  0.59097  0.92576  1.0000
  H   H544      1.0  0.18700  0.49878  0.48362  1.0000
  Fe  Fe60      1.0  0.08655  0.55043  0.67242  1.0000
  S   S119      1.0  0.08221  0.51996  0.67232  1.0000
  S   S120      1.0  0.08181  0.56648  0.63743  1.0000
  Fe  Fe61      1.0  0.08457  0.55222  0.73339  1.0000
  S   S121      1.0  0.07986  0.52199  0.73690  1.0000
  S   S122      1.0  0.08025  0.57034  0.76609  1.0000
  Fe  Fe62      1.0  0.10248  0.52777  0.70710  1.0000
  H   H545      1.0  0.18993  0.73408  0.87790  1.0000
  Fe  Fe63      1.0  0.06036  0.51693  0.70205  1.0000
  C   C451      1.0  0.13157  0.50240  0.67066  1.0000
  S   S123      1.0  0.10843  0.55879  0.70552  1.0000
  S   S124      1.0  0.06343  0.54655  0.70034  1.0000
  S   S125      1.0  0.16853  0.71615  0.92706  1.0000
  S   S126      1.0  0.12411  0.51536  0.71817  1.0000
  C   C452      1.0  0.03903  0.52438  0.54711  1.0000
  N   N31       1.0  0.98874  0.49712  0.56723  1.0000
  H   H546      1.0  0.01008  0.52888  0.63917  1.0000
  H   H547      1.0  0.03794  0.55738  0.74339  1.0000
  C   C453      1.0  0.98959  0.51157  0.74427  1.0000
  H   H548      1.0  0.11690  0.60447  0.62683  1.0000
  H   H549      1.0  0.01251  0.51302  0.52721  1.0000
  H   H550      1.0  0.19922  0.70750  0.86316  1.0000
  C   C454      1.0  0.00885  0.51953  0.75063  1.0000
  C   C455      1.0  0.02161  0.51450  0.73647  1.0000
  H   H551      1.0  0.15142  0.65355  0.53738  1.0000
  H   H552      1.0  0.01400  0.52971  0.76644  1.0000
  H   H553      1.0  0.03647  0.52086  0.74139  1.0000
  C   C456      1.0  0.11659  0.66310  0.94683  1.0000
  C   C457      1.0  0.13397  0.66211  0.94189  1.0000
  C   C458      1.0  0.14957  0.67844  0.93582  1.0000
  C   C459      1.0  0.14822  0.69608  0.93501  1.0000
  C   C460      1.0  0.13088  0.69706  0.94013  1.0000
  C   C461      1.0  0.11521  0.68070  0.94589  1.0000
  H   H554      1.0  0.13545  0.64881  0.94276  1.0000
  H   H555      1.0  0.16289  0.67745  0.93204  1.0000
  H   H556      1.0  0.12949  0.71042  0.93952  1.0000
  C   C462      1.0  0.02914  0.59358  0.71758  1.0000
  C   C463      1.0  0.10212  0.57146  0.55286  1.0000
  C   C464      1.0  0.08677  0.57586  0.55933  1.0000
  C   C465      1.0  0.08044  0.57377  0.58516  1.0000
  C   C466      1.0  0.08919  0.56702  0.60474  1.0000
  C   C467      1.0  0.10420  0.56211  0.59811  1.0000
  C   C468      1.0  0.11071  0.56448  0.57236  1.0000
  H   H557      1.0  0.08003  0.58127  0.54460  1.0000
  H   H558      1.0  0.06887  0.57767  0.59008  1.0000
  H   H559      1.0  0.11116  0.55704  0.61298  1.0000
  H   H560      1.0  0.12262  0.56107  0.56757  1.0000
  C   C469      1.0  0.09152  0.56634  0.85429  1.0000
  C   C470      1.0  0.09946  0.55822  0.83582  1.0000
  C   C471      1.0  0.09541  0.55852  0.80886  1.0000
  C   C472      1.0  0.08366  0.56734  0.79998  1.0000
  C   C473      1.0  0.07545  0.57520  0.81846  1.0000
  C   C474      1.0  0.07914  0.57446  0.84549  1.0000
  H   H561      1.0  0.10901  0.55184  0.84240  1.0000
  H   H562      1.0  0.10190  0.55249  0.79492  1.0000
  H   H563      1.0  0.06637  0.58207  0.81183  1.0000
  H   H564      1.0  0.07270  0.58046  0.85947  1.0000
  H   H565      1.0  0.08318  0.63059  0.89390  1.0000
  H   H566      1.0  0.10965  0.62707  0.91211  1.0000
  H   H567      1.0  0.04650  0.57671  0.68253  1.0000
  C   C475      1.0  0.13376  0.62289  0.56823  1.0000
  H   H568      1.0  0.04755  0.52184  0.61194  1.0000
  H   H569      1.0  0.21527  0.71131  0.83677  1.0000
  H   H570      1.0  0.11090  0.61221  0.51458  1.0000
  H   H571      1.0  0.01381  0.50433  0.61102  1.0000
  C   C476      1.0  0.01511  0.50112  0.71627  1.0000
  C   C477      1.0  0.13269  0.61398  0.59210  1.0000
  H   H572      1.0  0.00499  0.55459  0.75098  1.0000
  H   H573      1.0  0.08075  0.63475  0.86018  1.0000
  H   H574      1.0  0.10526  0.60682  0.89201  1.0000
  H   H575      1.0  0.13235  0.65555  0.87231  1.0000
  H   H576      1.0  0.98401  0.52272  0.56873  1.0000
  H   H577      1.0  0.23481  0.51484  0.73552  1.0000
  C   C478      1.0  0.10642  0.62495  0.79707  1.0000
  C   C479      1.0  0.11928  0.61232  0.84152  1.0000
  N   N32       1.0  0.12127  0.63887  0.53441  1.0000
  H   H578      1.0  0.99573  0.56960  0.73394  1.0000
  C   C480      1.0  0.11992  0.62975  0.56002  1.0000
  H   H579      1.0  0.10118  0.62952  0.77974  1.0000
  H   H580      1.0  0.09261  0.61638  0.61408  1.0000
  H   H581      1.0  0.12415  0.51016  0.66140  1.0000
  H   H582      1.0  0.09669  0.64069  0.82284  1.0000
  C   C481      1.0  0.11799  0.61185  0.60865  1.0000
  C   C482      1.0  0.10378  0.63110  0.82184  1.0000
  H   H583      1.0  0.20757  0.52312  0.75089  1.0000
  H   H584      1.0  0.12170  0.63176  0.49359  1.0000
  C   C483      1.0  0.02938  0.55362  0.65878  1.0000
  H   H585      1.0  0.98544  0.53550  0.97639  1.0000
  H   H586      1.0  0.01757  0.59511  0.70564  1.0000
  C   C484      1.0  0.01235  0.53328  0.97372  1.0000
  C   C485      1.0  0.10990  0.62478  0.84489  1.0000
  C   C486      1.0  0.03293  0.56529  0.68089  1.0000
  H   H587      1.0  0.11686  0.60725  0.77534  1.0000
  H   H588      1.0  0.11258  0.65951  0.85854  1.0000
  H   H589      1.0  0.07781  0.61174  0.87050  1.0000
  Fe  Fe64      1.0  0.09721  0.58117  0.48483  1.0000
  H   H590      1.0  0.11443  0.65708  0.89287  1.0000
  H   H591      1.0  0.19162  0.70946  0.83053  1.0000
  H   H592      1.0  0.99568  0.49818  0.83962  1.0000
  H   H593      1.0  0.21973  0.73406  0.88827  1.0000
  N   N33       1.0  0.20643  0.49555  0.74165  1.0000
  H   H594      1.0  0.10188  0.68172  0.94963  1.0000
  C   C487      1.0  0.00860  0.56887  0.74330  1.0000
  H   H595      1.0  0.98275  0.50214  0.60692  1.0000
  H   H596      1.0  0.19717  0.51414  0.71922  1.0000
  N   N34       1.0  0.02426  0.57380  0.72482  1.0000
  H   H597      1.0  0.14305  0.60827  0.59756  1.0000
  H   H598      1.0  0.12411  0.60634  0.85774  1.0000
  C   C488      1.0  0.10427  0.61857  0.60136  1.0000
  C   C489      1.0  0.99921  0.53428  0.67521  1.0000
  S   S127      1.0  0.02438  0.55761  0.96803  1.0000
  C   C490      1.0  0.12198  0.60640  0.81664  1.0000
  C   C491      1.0  0.19852  0.51024  0.73984  1.0000
  C   C492      1.0  0.99285  0.52615  0.97742  1.0000
  H   H599      1.0  0.01229  0.57838  0.76076  1.0000
  C   C493      1.0  0.04903  0.52692  0.57079  1.0000
  N   N35       1.0  0.21017  0.73556  0.84857  1.0000
  C   C494      1.0  0.04060  0.57220  0.73888  1.0000
  C   C495      1.0  0.00943  0.50711  0.56888  1.0000
  H   H600      1.0  0.98652  0.50750  0.81365  1.0000
  H   H601      1.0  0.04643  0.53003  0.52940  1.0000
  C   C496      1.0  0.00259  0.54591  0.69735  1.0000
  C   C497      1.0  0.14297  0.49228  0.70962  1.0000
  C   C498      1.0  0.01971  0.56173  0.70100  1.0000
  H   H602      1.0  0.13579  0.62376  0.51438  1.0000
  H   H603      1.0  0.14416  0.49209  0.73069  1.0000
  H   H604      1.0  0.04213  0.59916  0.70614  1.0000
  C   C499      1.0  0.11272  0.62231  0.89288  1.0000
  H   H605      1.0  0.03669  0.52619  0.97230  1.0000
  H   H606      1.0  0.06415  0.53445  0.57147  1.0000
  C   C500      1.0  0.98303  0.49803  0.72424  1.0000
  C   C501      1.0  0.02011  0.50980  0.59273  1.0000
  C   C502      1.0  0.03961  0.51971  0.59355  1.0000
  H   H607      1.0  0.13972  0.66367  0.51549  1.0000
  C   C503      1.0  0.20379  0.71507  0.84455  1.0000
  H   H608      1.0  0.98844  0.51720  0.84613  1.0000
  H   H609      1.0  0.05358  0.57745  0.72735  1.0000
  C   C504      1.0  0.11694  0.65171  0.87369  1.0000
  H   H610      1.0  0.04407  0.58020  0.75774  1.0000
  H   H611      1.0  0.22143  0.50517  0.70604  1.0000
  C   C505      1.0  0.01259  0.53810  0.65602  1.0000
  C   C506      1.0  0.02172  0.52100  0.97511  1.0000
  H   H612      1.0  0.18414  0.50567  0.74758  1.0000
  C   C507      1.0  0.11542  0.61255  0.79449  1.0000
  H   H613      1.0  0.12812  0.62579  0.89305  1.0000
  H   H614      1.0  0.10359  0.65417  0.54199  1.0000
  H   H615      1.0  0.09380  0.63190  0.57287  1.0000
  C   C508      1.0  0.12250  0.62617  0.51335  1.0000
  H   H616      1.0  0.12847  0.59630  0.81456  1.0000
  C   C509      1.0  0.98486  0.50391  0.83475  1.0000
  H   H617      1.0  0.14535  0.62402  0.55602  1.0000
  C   C510      1.0  0.01956  0.51464  0.54609  1.0000
  H   H618      1.0  0.10626  0.65048  0.50828  1.0000
  C   C511      1.0  0.13839  0.65629  0.53440  1.0000
  H   H619      1.0  0.13816  0.66611  0.55025  1.0000
  C   C512      1.0  0.08623  0.62690  0.87388  1.0000
  N   N36       1.0  0.10657  0.63121  0.87092  1.0000
  C   C513      1.0  0.10492  0.64386  0.52776  1.0000
  C   C514      1.0  0.10510  0.62739  0.57742  1.0000
  H   H620      1.0  0.18511  0.50321  0.57364  1.0000
  H   H621      1.0  0.09158  0.63124  0.52675  1.0000
  C   C515      1.0  0.99578  0.49270  0.71042  1.0000
  H   H622      1.0  0.23722  0.73777  0.86426  1.0000
  H   H623      1.0  0.23881  0.49466  0.76778  1.0000
  C   C516      1.0  0.22395  0.50196  0.72661  1.0000
  H   H624      1.0  0.17908  0.49983  0.52895  1.0000
  H   H625      1.0  0.18152  0.73409  0.84521  1.0000
  C   C517      1.0  0.13329  0.50246  0.69790  1.0000
  H   H626      1.0  0.99170  0.54191  0.71159  1.0000
  H   H627      1.0  0.18919  0.73219  0.80321  1.0000
  S   S128      1.0  0.07600  0.59442  0.48576  1.0000
  C   C518      1.0  0.19426  0.73986  0.85816  1.0000
  S   S129      1.0  0.03106  0.49494  0.69816  1.0000
  C   C519      1.0  0.22502  0.74122  0.86960  1.0000
  H   H628      1.0  0.98408  0.51387  0.53625  1.0000
  C   C520      1.0  0.20932  0.49173  0.76938  1.0000
  H   H629      1.0  0.98629  0.52196  0.67333  1.0000
  C   C521      1.0  0.22671  0.49196  0.77966  1.0000
  H   H630      1.0  0.13863  0.49284  0.63428  1.0000
  C   C522      1.0  0.13988  0.49264  0.65534  1.0000
  C   C523      1.0  0.01169  0.50190  0.98011  1.0000
  Fe  Fe65      1.0  0.23327  0.81164  0.15083  1.0000
  S   S130      1.0  0.25021  0.84181  0.14319  1.0000
  S   S131      1.0  0.22243  0.78858  0.11922  1.0000
  Fe  Fe66      1.0  0.23085  0.81950  0.21066  1.0000
  S   S132      1.0  0.24769  0.85036  0.20597  1.0000
  S   S133      1.0  0.21311  0.80700  0.24653  1.0000
  Fe  Fe67      1.0  0.22975  0.84737  0.16923  1.0000
  S   S134      1.0  0.21517  0.86646  0.15588  1.0000
  Fe  Fe68      1.0  0.26671  0.84172  0.18033  1.0000
  S   S135      1.0  0.29884  0.84925  0.18090  1.0000
  S   S136      1.0  0.21224  0.81728  0.17511  1.0000
  S   S137      1.0  0.25044  0.81075  0.18676  1.0000
  Fe  Fe69      1.0  0.11359  0.85076  0.11236  1.0000
  S   S138      1.0  0.13070  0.88137  0.11515  1.0000
  S   S139      1.0  0.12955  0.83160  0.11605  1.0000
  Fe  Fe70      1.0  0.07617  0.85592  0.10668  1.0000
  S   S140      1.0  0.09168  0.88733  0.10998  1.0000
  S   S141      1.0  0.04439  0.84821  0.09854  1.0000
  Fe  Fe71      1.0  0.11208  0.88360  0.08203  1.0000
  S   S142      1.0  0.12547  0.90439  0.04979  1.0000
  Fe  Fe72      1.0  0.10893  0.88219  0.14284  1.0000
  S   S143      1.0  0.12017  0.90225  0.17797  1.0000
  S   S144      1.0  0.09614  0.85265  0.07714  1.0000
  S   S145      1.0  0.09230  0.85115  0.14174  1.0000
  Fe  Fe73      1.0  0.20801  0.78300  0.40064  1.0000
  S   S146      1.0  0.17665  0.76839  0.39748  1.0000
  S   S147      1.0  0.22755  0.78965  0.36574  1.0000
  Fe  Fe74      1.0  0.20751  0.78634  0.46195  1.0000
  S   S148      1.0  0.17602  0.77189  0.46179  1.0000
  H   H631      1.0  0.08948  0.91329  0.46737  1.0000
  H   H632      1.0  0.19319  0.88088  0.12329  1.0000
  Fe  Fe75      1.0  0.17666  0.79009  0.42716  1.0000
  S   S149      1.0  0.15888  0.80754  0.42314  1.0000
  S   S150      1.0  0.21108  0.76537  0.43395  1.0000
  S   S151      1.0  0.20777  0.80527  0.42870  1.0000
  Fe  Fe76      1.0  0.14413  0.90644  0.33388  1.0000
  S   S152      1.0  0.17510  0.92381  0.33879  1.0000
  S   S153      1.0  0.13025  0.88702  0.29874  1.0000
  Fe  Fe77      1.0  0.13800  0.90962  0.39404  1.0000
  S   S154      1.0  0.16844  0.92751  0.40210  1.0000
  S   S155      1.0  0.11640  0.89450  0.42450  1.0000
  Fe  Fe78      1.0  0.16660  0.94274  0.36503  1.0000
  S   S156      1.0  0.17493  0.97468  0.36144  1.0000
  Fe  Fe79      1.0  0.17394  0.90715  0.37519  1.0000
  S   S157      1.0  0.19315  0.89188  0.38488  1.0000
  S   S158      1.0  0.13528  0.92571  0.35860  1.0000
  S   S159      1.0  0.14389  0.88900  0.36867  1.0000
  H   H633      1.0  0.16606  0.85910  0.26769  1.0000
  C   C524      1.0  0.18352  0.86856  0.39598  1.0000
  C   C525      1.0  0.16481  0.86018  0.40339  1.0000
  C   C526      1.0  0.15750  0.84156  0.41171  1.0000
  C   C527      1.0  0.16882  0.83108  0.41292  1.0000
  C   C528      1.0  0.18762  0.83957  0.40596  1.0000
  C   C529      1.0  0.19494  0.85821  0.39767  1.0000
  H   H634      1.0  0.15589  0.86799  0.40281  1.0000
  H   H635      1.0  0.14295  0.83520  0.41710  1.0000
  H   H636      1.0  0.19652  0.83175  0.40647  1.0000
  H   H637      1.0  0.20945  0.86452  0.39208  1.0000
  C   C530      1.0  0.02329  0.82783  0.09365  1.0000
  C   C531      1.0  0.00634  0.83007  0.08761  1.0000
  C   C532      1.0  0.98923  0.81447  0.08363  1.0000
  Fe  Fe80      1.0  0.17928  0.75147  0.43213  1.0000
  C   C533      1.0  0.00571  0.79407  0.09178  1.0000
  C   C534      1.0  0.02284  0.80967  0.09564  1.0000
  H   H638      1.0  0.00646  0.84401  0.08594  1.0000
  C   C535      1.0  0.27639  0.81708  0.12296  1.0000
  H   H639      1.0  0.00561  0.78013  0.09346  1.0000
  H   H640      1.0  0.03567  0.80762  0.10024  1.0000
  C   C536      1.0  0.12391  0.90106  0.01533  1.0000
  C   C537      1.0  0.11207  0.88427  0.00323  1.0000
  H   H641      1.0  0.15386  0.88357  0.44432  1.0000
  C   C538      1.0  0.11966  0.89621  0.45898  1.0000
  H   H642      1.0  0.22195  0.83226  0.32097  1.0000
  C   C539      1.0  0.13471  0.91593  0.99961  1.0000
  H   H643      1.0  0.10381  0.87261  0.01496  1.0000
  C   C540      1.0  0.04802  0.83407  0.98384  1.0000
  H   H644      1.0  0.24200  0.76193  0.04791  1.0000
  H   H645      1.0  0.14391  0.92898  0.00876  1.0000
  C   C541      1.0  0.12196  0.89772  0.21169  1.0000
  C   C542      1.0  0.11454  0.87965  0.22159  1.0000
  C   C543      1.0  0.11691  0.87672  0.24837  1.0000
  C   C544      1.0  0.12675  0.89178  0.26557  1.0000
  C   C545      1.0  0.13407  0.90985  0.25572  1.0000
  C   C546      1.0  0.13160  0.91278  0.22896  1.0000
  H   H646      1.0  0.10688  0.86795  0.20863  1.0000
  H   H647      1.0  0.11106  0.86270  0.25582  1.0000
  H   H648      1.0  0.14161  0.92158  0.26870  1.0000
  H   H649      1.0  0.13730  0.92683  0.22155  1.0000
  C   C547      1.0  0.22174  0.79560  0.02980  1.0000
  C   C548      1.0  0.21053  0.77875  0.04107  1.0000
  C   C549      1.0  0.21081  0.77688  0.06848  1.0000
  C   C550      1.0  0.22192  0.79191  0.08493  1.0000
  C   C551      1.0  0.23272  0.80890  0.07365  1.0000
  C   C552      1.0  0.23278  0.81064  0.04626  1.0000
  H   H650      1.0  0.20207  0.76702  0.02868  1.0000
  H   H651      1.0  0.20243  0.76366  0.07699  1.0000
  H   H652      1.0  0.24130  0.82063  0.08592  1.0000
  H   H653      1.0  0.24159  0.82370  0.03775  1.0000
  C   C553      1.0  0.21758  0.80213  0.27950  1.0000
  C   C554      1.0  0.20234  0.79470  0.29625  1.0000
  C   C555      1.0  0.20510  0.79104  0.32270  1.0000
  C   C556      1.0  0.22321  0.79458  0.33275  1.0000
  C   C557      1.0  0.23842  0.80168  0.31590  1.0000
  C   C558      1.0  0.23567  0.80557  0.28954  1.0000
  H   H654      1.0  0.18828  0.79205  0.28881  1.0000
  H   H655      1.0  0.19323  0.78558  0.33528  1.0000
  H   H656      1.0  0.25249  0.80441  0.32335  1.0000
  H   H657      1.0  0.24756  0.81125  0.27701  1.0000
  C   C559      1.0  0.19133  0.85652  0.14489  1.0000
  C   C560      1.0  0.17936  0.83860  0.15204  1.0000
  C   C561      1.0  0.16043  0.83121  0.14339  1.0000
  C   C562      1.0  0.15317  0.84172  0.12766  1.0000
  C   C563      1.0  0.16512  0.85966  0.12043  1.0000
  C   C564      1.0  0.18407  0.86702  0.12907  1.0000
  H   H658      1.0  0.18447  0.83053  0.16480  1.0000
  H   H659      1.0  0.15133  0.81736  0.14916  1.0000
  H   H660      1.0  0.15990  0.86773  0.10771  1.0000
  H   H661      1.0  0.27587  0.78958  0.15413  1.0000
  N   N37       1.0  0.16723  0.85924  0.30992  1.0000
  C   C565      1.0  0.17667  0.87989  0.31099  1.0000
  C   C566      1.0  0.15691  0.85345  0.28445  1.0000
  C   C567      1.0  0.15304  0.85366  0.33059  1.0000
  C   C568      1.0  0.18162  0.85103  0.31285  1.0000
  C   C569      1.0  0.18301  0.84070  0.33507  1.0000
  H   H662      1.0  0.06558  0.90480  0.99183  1.0000
  H   H663      1.0  0.18664  0.88538  0.29497  1.0000
  H   H664      1.0  0.16637  0.88671  0.30957  1.0000
  H   H665      1.0  0.18482  0.88474  0.32975  1.0000
  H   H666      1.0  0.14529  0.85861  0.28243  1.0000
  H   H667      1.0  0.15064  0.83795  0.28227  1.0000
  H   H668      1.0  0.15956  0.85903  0.35011  1.0000
  H   H669      1.0  0.14206  0.85955  0.32733  1.0000
  H   H670      1.0  0.14565  0.83821  0.33132  1.0000
  H   H671      1.0  0.17332  0.83779  0.35086  1.0000
  H   H672      1.0  0.19833  0.82628  0.35499  1.0000
  H   H673      1.0  0.27322  0.77253  0.12883  1.0000
  H   H674      1.0  0.04776  0.90255  0.04298  1.0000
  N   N38       1.0  0.16975  0.88154  0.20218  1.0000
  C   C570      1.0  0.16566  0.88999  0.22607  1.0000
  C   C571      1.0  0.18655  0.89568  0.19027  1.0000
  C   C572      1.0  0.15372  0.87748  0.18314  1.0000
  C   C573      1.0  0.17248  0.86424  0.20935  1.0000
  C   C574      1.0  0.19063  0.86378  0.21332  1.0000
  C   C575      1.0  0.15687  0.84750  0.21439  1.0000
  C   C576      1.0  0.19288  0.84744  0.22084  1.0000
  C   C577      1.0  0.15930  0.83122  0.22184  1.0000
  C   C578      1.0  0.17728  0.83118  0.22501  1.0000
  H   H675      1.0  0.16311  0.90289  0.22160  1.0000
  H   H676      1.0  0.15287  0.88024  0.23551  1.0000
  H   H677      1.0  0.17745  0.89381  0.24074  1.0000
  H   H678      1.0  0.19850  0.90174  0.20457  1.0000
  H   H679      1.0  0.18367  0.90778  0.18270  1.0000
  H   H680      1.0  0.19132  0.88951  0.17358  1.0000
  H   H681      1.0  0.15490  0.86887  0.16642  1.0000
  H   H682      1.0  0.13986  0.87005  0.19187  1.0000
  H   H683      1.0  0.15280  0.89044  0.17512  1.0000
  H   H684      1.0  0.20338  0.87572  0.20995  1.0000
  H   H685      1.0  0.14263  0.84680  0.21264  1.0000
  H   H686      1.0  0.20684  0.84723  0.22293  1.0000
  H   H687      1.0  0.14717  0.81849  0.22495  1.0000
  H   H688      1.0  0.17921  0.81852  0.23050  1.0000
  H   H689      1.0  0.21556  0.98304  0.35813  1.0000
  H   H690      1.0  0.15146  0.88960  0.99259  1.0000
  N   N39       1.0  0.17281  0.81641  0.06582  1.0000
  C   C579      1.0  0.18921  0.81087  0.06524  1.0000
  C   C580      1.0  0.17997  0.83655  0.07303  1.0000
  C   C581      1.0  0.16045  0.80555  0.08664  1.0000
  C   C582      1.0  0.16207  0.81320  0.04066  1.0000
  C   C583      1.0  0.14560  0.81723  0.03846  1.0000
  C   C584      1.0  0.16753  0.80627  0.01777  1.0000
  H   H691      1.0  0.19555  0.75466  0.35893  1.0000
  H   H692      1.0  0.30573  0.80869  0.13924  1.0000
  C   C585      1.0  0.14081  0.80737  0.99297  1.0000
  H   H693      1.0  0.18483  0.79574  0.06038  1.0000
  H   H694      1.0  0.19967  0.81912  0.05092  1.0000
  H   H695      1.0  0.19683  0.81326  0.08457  1.0000
  H   H696      1.0  0.18920  0.84521  0.05776  1.0000
  H   H697      1.0  0.18826  0.83957  0.09184  1.0000
  H   H698      1.0  0.16841  0.84156  0.07560  1.0000
  H   H699      1.0  0.15408  0.79040  0.08136  1.0000
  H   H700      1.0  0.16831  0.80706  0.10564  1.0000
  H   H701      1.0  0.14879  0.81020  0.09053  1.0000
  H   H702      1.0  0.14062  0.82261  0.05502  1.0000
  H   H703      1.0  0.18717  0.87326  0.45364  1.0000
  C   C586      1.0  0.05621  0.87035  0.45348  1.0000
  H   H704      1.0  0.12256  0.81734  0.01388  1.0000
  H   H705      1.0  0.26125  0.81423  0.11965  1.0000
  H   H706      1.0  0.04268  0.85140  0.04247  1.0000
  H   H707      1.0  0.25696  0.78505  0.01417  1.0000
  C   C587      1.0  0.25957  0.77859  0.07960  1.0000
  H   H708      1.0  0.98872  0.81153  0.17345  1.0000
  H   H709      1.0  0.29354  0.82210  0.07199  1.0000
  C   C588      1.0  0.17636  0.90816  0.47931  1.0000
  C   C589      1.0  0.27432  0.79569  0.08745  1.0000
  H   H710      1.0  0.22565  0.75301  0.37827  1.0000
  H   H711      1.0  0.30937  0.81793  0.10737  1.0000
  C   C590      1.0  0.16326  0.88474  0.99290  1.0000
  C   C591      1.0  0.05749  0.86893  0.01045  1.0000
  H   H712      1.0  0.08585  0.88369  0.04429  1.0000
  C   C592      1.0  0.07851  0.89973  0.47068  1.0000
  H   H713      1.0  0.03648  0.87792  0.04632  1.0000
  C   C593      1.0  0.19741  0.83402  0.33780  1.0000
  H   H714      1.0  0.10072  0.86772  0.46464  1.0000
  H   H715      1.0  0.14375  0.87770  0.47547  1.0000
  N   N40       1.0  0.28043  0.80062  0.11511  1.0000
  C   C594      1.0  0.06282  0.86787  0.98427  1.0000
  H   H716      1.0  0.03551  0.88815  0.01525  1.0000
  H   H717      1.0  0.20310  0.89580  0.46652  1.0000
  C   C595      1.0  0.98876  0.79630  0.08580  1.0000
  H   H718      1.0  0.27985  0.82076  0.14402  1.0000
  H   H719      1.0  0.13856  0.92506  0.46016  1.0000
  H   H720      1.0  0.16285  0.82625  0.47347  1.0000
  C   C596      1.0  0.07341  0.88689  0.04895  1.0000
  H   H721      1.0  0.07864  0.90065  0.05946  1.0000
  C   C597      1.0  0.10968  0.88069  0.47423  1.0000
  C   C598      1.0  0.26211  0.78777  0.03431  1.0000
  H   H722      1.0  0.25183  0.76821  0.09341  1.0000
  C   C599      1.0  0.19533  0.85393  0.29353  1.0000
  H   H723      1.0  0.98635  0.81221  0.13881  1.0000
  N   N41       1.0  0.17407  0.88833  0.47631  1.0000
  H   H724      1.0  0.19536  0.86182  0.27626  1.0000
  H   H725      1.0  0.06518  0.87637  0.06316  1.0000
  N   N42       1.0  0.06225  0.88685  0.02497  1.0000
  C   C600      1.0  0.07338  0.90352  0.00979  1.0000
  C   C601      1.0  0.04474  0.88896  0.03265  1.0000
  H   H726      1.0  0.17990  0.80291  0.01733  1.0000
  H   H727      1.0  0.17587  0.91459  0.46005  1.0000
  C   C602      1.0  0.21072  0.83733  0.31863  1.0000
  H   H728      1.0  0.08707  0.90310  0.00416  1.0000
  C   C603      1.0  0.15551  0.87762  0.46354  1.0000
  C   C604      1.0  0.13517  0.81432  0.01495  1.0000
  C   C605      1.0  0.13103  0.91294  0.47160  1.0000
  C   C606      1.0  0.06989  0.88802  0.44941  1.0000
  C   C607      1.0  0.20953  0.84699  0.29634  1.0000
  H   H729      1.0  0.28273  0.81492  0.02646  1.0000
  H   H730      1.0  0.17609  0.89715  0.99841  1.0000
  H   H731      1.0  0.07691  0.91672  0.02138  1.0000
  H   H732      1.0  0.22254  0.75694  0.33393  1.0000
  H   H733      1.0  0.25540  0.78205  0.13351  1.0000
  C   C608      1.0  0.04719  0.85175  0.02259  1.0000
  C   C609      1.0  0.30092  0.80537  0.11841  1.0000
  C   C610      1.0  0.25370  0.77476  0.05338  1.0000
  H   H734      1.0  0.21973  0.84912  0.28123  1.0000
  C   C611      1.0  0.27081  0.78544  0.13356  1.0000
  S   S160      1.0  0.22346  0.79843  0.99543  1.0000
  H   H735      1.0  0.07416  0.89255  0.42976  1.0000
  H   H736      1.0  0.30707  0.88969  0.18650  1.0000
  H   H737      1.0  0.04962  0.86128  0.43681  1.0000
  H   H738      1.0  0.16071  0.87445  0.00882  1.0000
  C   C612      1.0  0.18870  0.88784  0.45834  1.0000
  H   H739      1.0  0.18773  0.89432  0.43932  1.0000
  C   C613      1.0  0.15693  0.80339  0.99440  1.0000
  C   C614      1.0  0.05129  0.86422  0.47886  1.0000
  C   C615      1.0  0.28264  0.80860  0.06745  1.0000
  H   H740      1.0  0.30466  0.79357  0.11174  1.0000
  H   H741      1.0  0.03473  0.82173  0.01931  1.0000
  H   H742      1.0  0.28451  0.82981  0.11200  1.0000
  C   C616      1.0  0.27657  0.80465  0.04132  1.0000
  H   H743      1.0  0.15343  0.86274  0.46014  1.0000
  C   C617      1.0  0.04256  0.83462  0.00945  1.0000
  H   H744      1.0  0.22787  0.88529  0.98060  1.0000
  Fe  Fe81      1.0  0.23650  0.81153  0.65265  1.0000
  S   S161      1.0  0.25353  0.84196  0.64689  1.0000
  S   S162      1.0  0.22768  0.78918  0.62001  1.0000
  Fe  Fe82      1.0  0.22987  0.81814  0.71154  1.0000
  S   S163      1.0  0.24610  0.84917  0.70869  1.0000
  S   S164      1.0  0.21108  0.80459  0.74599  1.0000
  Fe  Fe83      1.0  0.23079  0.84635  0.66964  1.0000
  S   S165      1.0  0.21618  0.86487  0.65416  1.0000
  Fe  Fe84      1.0  0.26737  0.84170  0.68635  1.0000
  S   S166      1.0  0.29919  0.85059  0.69543  1.0000
  S   S167      1.0  0.21348  0.81604  0.67376  1.0000
  S   S168      1.0  0.25145  0.81048  0.69078  1.0000
  Fe  Fe85      1.0  0.11316  0.85019  0.61590  1.0000
  S   S169      1.0  0.13016  0.88085  0.61590  1.0000
  S   S170      1.0  0.12892  0.83112  0.62281  1.0000
  Fe  Fe86      1.0  0.07563  0.85501  0.60900  1.0000
  S   S171      1.0  0.09099  0.88647  0.60947  1.0000
  S   S172      1.0  0.04359  0.84685  0.60315  1.0000
  Fe  Fe87      1.0  0.11115  0.88152  0.58230  1.0000
  S   S173      1.0  0.12420  0.90134  0.54891  1.0000
  Fe  Fe88      1.0  0.10861  0.88287  0.64304  1.0000
  S   S174      1.0  0.11997  0.90393  0.67693  1.0000
  S   S175      1.0  0.09532  0.85040  0.58016  1.0000
  S   S176      1.0  0.09213  0.85193  0.64471  1.0000
  Fe  Fe89      1.0  0.20671  0.78106  0.89923  1.0000
  S   S177      1.0  0.17546  0.76593  0.89466  1.0000
  S   S178      1.0  0.22729  0.79132  0.86587  1.0000
  Fe  Fe90      1.0  0.20496  0.78249  0.96044  1.0000
  S   S179      1.0  0.17349  0.76766  0.95911  1.0000
  H   H745      1.0  0.20780  0.85558  0.77829  1.0000
  H   H746      1.0  0.19319  0.87935  0.62385  1.0000
  Fe  Fe91      1.0  0.17442  0.78657  0.92521  1.0000
  S   S180      1.0  0.15660  0.80386  0.91994  1.0000
  S   S181      1.0  0.20956  0.76262  0.93154  1.0000
  S   S182      1.0  0.20539  0.80216  0.92832  1.0000
  Fe  Fe92      1.0  0.14315  0.90606  0.83265  1.0000
  S   S183      1.0  0.17449  0.92179  0.83562  1.0000
  S   S184      1.0  0.12720  0.88751  0.79781  1.0000
  Fe  Fe93      1.0  0.13932  0.90935  0.89355  1.0000
  S   S185      1.0  0.17034  0.92565  0.89946  1.0000
  S   S186      1.0  0.11866  0.89474  0.92553  1.0000
  Fe  Fe94      1.0  0.16821  0.94157  0.86324  1.0000
  S   S187      1.0  0.17753  0.97372  0.86051  1.0000
  Fe  Fe95      1.0  0.17346  0.90449  0.87137  1.0000
  S   S188      1.0  0.19168  0.88784  0.88000  1.0000
  S   S189      1.0  0.13650  0.92609  0.85891  1.0000
  S   S190      1.0  0.14282  0.88804  0.86674  1.0000
  C   C618      1.0  0.19892  0.88179  0.97469  1.0000
  C   C619      1.0  0.18159  0.86429  0.89032  1.0000
  C   C620      1.0  0.16217  0.85465  0.89222  1.0000
  C   C621      1.0  0.15472  0.83607  0.90073  1.0000
  C   C622      1.0  0.16656  0.82680  0.90744  1.0000
  C   C623      1.0  0.18597  0.83635  0.90526  1.0000
  C   C624      1.0  0.19343  0.85500  0.89706  1.0000
  H   H747      1.0  0.15276  0.86141  0.88732  1.0000
  H   H748      1.0  0.13968  0.82891  0.90226  1.0000
  H   H749      1.0  0.19539  0.82967  0.91046  1.0000
  H   H750      1.0  0.20849  0.86231  0.89617  1.0000
  C   C625      1.0  0.02297  0.82652  0.59547  1.0000
  C   C626      1.0  0.00560  0.82846  0.59211  1.0000
  H   H751      1.0  0.19169  0.82091  0.48504  1.0000
  C   C627      1.0  0.17508  0.88046  0.50229  1.0000
  C   C628      1.0  0.00638  0.79294  0.58825  1.0000
  C   C629      1.0  0.02326  0.80863  0.59322  1.0000
  H   H752      1.0  0.00514  0.84219  0.59392  1.0000
  H   H753      1.0  0.16126  0.79808  0.97713  1.0000
  H   H754      1.0  0.00680  0.77917  0.58693  1.0000
  H   H755      1.0  0.03641  0.80682  0.59577  1.0000
  C   C630      1.0  0.12210  0.89874  0.51436  1.0000
  C   C631      1.0  0.23519  0.75797  0.81982  1.0000
  H   H756      1.0  0.17725  0.81611  0.74285  1.0000
  C   C632      1.0  0.12142  0.89753  0.96002  1.0000
  H   H757      1.0  0.19321  0.81885  0.82851  1.0000
  C   C633      1.0  0.11116  0.88184  0.50177  1.0000
  H   H758      1.0  0.14054  0.92739  0.50866  1.0000
  H   H759      1.0  0.06247  0.85020  0.95139  1.0000
  C   C634      1.0  0.18073  0.86361  0.80386  1.0000
  H   H760      1.0  0.10373  0.86974  0.51321  1.0000
  C   C635      1.0  0.12110  0.89922  0.71068  1.0000
  C   C636      1.0  0.11259  0.88119  0.72038  1.0000
  C   C637      1.0  0.11429  0.87800  0.74721  1.0000
  C   C638      1.0  0.12459  0.89273  0.76462  1.0000
  C   C639      1.0  0.13303  0.91078  0.75496  1.0000
  C   C640      1.0  0.13119  0.91400  0.72814  1.0000
  H   H761      1.0  0.10462  0.86973  0.70724  1.0000
  H   H762      1.0  0.10764  0.86399  0.75452  1.0000
  H   H763      1.0  0.14095  0.92225  0.76811  1.0000
  H   H764      1.0  0.13774  0.92802  0.72084  1.0000
  C   C641      1.0  0.22552  0.79853  0.53117  1.0000
  C   C642      1.0  0.21769  0.78055  0.54130  1.0000
  C   C643      1.0  0.21850  0.77793  0.56852  1.0000
  C   C644      1.0  0.22671  0.79323  0.58595  1.0000
  C   C645      1.0  0.23429  0.81122  0.57582  1.0000
  C   C646      1.0  0.23393  0.81380  0.54861  1.0000
  H   H765      1.0  0.21131  0.76866  0.52816  1.0000
  H   H766      1.0  0.21269  0.76394  0.57610  1.0000
  H   H767      1.0  0.24085  0.82311  0.58891  1.0000
  H   H768      1.0  0.24016  0.82775  0.54100  1.0000
  C   C647      1.0  0.21602  0.80166  0.77945  1.0000
  C   C648      1.0  0.23422  0.80897  0.79048  1.0000
  C   C649      1.0  0.23736  0.80591  0.81702  1.0000
  C   C650      1.0  0.22239  0.79563  0.83292  1.0000
  C   C651      1.0  0.20414  0.78862  0.82200  1.0000
  C   C652      1.0  0.20101  0.79163  0.79546  1.0000
  H   H769      1.0  0.24592  0.81675  0.77849  1.0000
  H   H770      1.0  0.25155  0.81139  0.82521  1.0000
  H   H771      1.0  0.19244  0.78074  0.83390  1.0000
  H   H772      1.0  0.18686  0.78596  0.78718  1.0000
  C   C653      1.0  0.19186  0.85526  0.64569  1.0000
  C   C654      1.0  0.17995  0.83773  0.65432  1.0000
  C   C655      1.0  0.16062  0.83075  0.64786  1.0000
  C   C656      1.0  0.15293  0.84120  0.63272  1.0000
  C   C657      1.0  0.16479  0.85878  0.62419  1.0000
  C   C658      1.0  0.18415  0.86575  0.63060  1.0000
  H   H773      1.0  0.18545  0.82966  0.66648  1.0000
  H   H774      1.0  0.15158  0.81715  0.65462  1.0000
  H   H775      1.0  0.15918  0.86685  0.61208  1.0000
  C   C659      1.0  0.18826  0.87231  0.50886  1.0000
  H   H776      1.0  0.04891  0.83933  0.51806  1.0000
  H   H777      1.0  0.02559  0.85350  0.51846  1.0000
  H   H778      1.0  0.28245  0.81817  0.54859  1.0000
  C   C660      1.0  0.13203  0.91424  0.49911  1.0000
  H   H779      1.0  0.22141  0.84347  0.79180  1.0000
  H   H780      1.0  0.19704  0.83093  0.78386  1.0000
  C   C661      1.0  0.15602  0.81843  0.53847  1.0000
  C   C662      1.0  0.17666  0.86615  0.55276  1.0000
  C   C663      1.0  0.27524  0.80808  0.58726  1.0000
  H   H781      1.0  0.19105  0.79297  0.56078  1.0000
  H   H782      1.0  0.14543  0.81789  0.55222  1.0000
  H   H783      1.0  0.17123  0.88551  0.92794  1.0000
  C   C664      1.0  0.05813  0.85065  0.97130  1.0000
  N   N43       1.0  0.16616  0.87736  0.71041  1.0000
  C   C665      1.0  0.16362  0.88824  0.73291  1.0000
  C   C666      1.0  0.18151  0.89036  0.69473  1.0000
  C   C667      1.0  0.14877  0.87079  0.69367  1.0000
  C   C668      1.0  0.16984  0.86106  0.71997  1.0000
  C   C669      1.0  0.15637  0.84735  0.73514  1.0000
  C   C670      1.0  0.18649  0.85811  0.71442  1.0000
  C   C671      1.0  0.15913  0.83144  0.74351  1.0000
  C   C672      1.0  0.18904  0.84209  0.72277  1.0000
  C   C673      1.0  0.17531  0.82868  0.73698  1.0000
  H   H784      1.0  0.17622  0.89316  0.74627  1.0000
  H   H785      1.0  0.16101  0.90074  0.72642  1.0000
  H   H786      1.0  0.15139  0.87999  0.74465  1.0000
  H   H787      1.0  0.19495  0.89639  0.70629  1.0000
  H   H788      1.0  0.17815  0.90233  0.68769  1.0000
  H   H789      1.0  0.18383  0.88325  0.67700  1.0000
  H   H790      1.0  0.13611  0.86241  0.70455  1.0000
  H   H791      1.0  0.14584  0.88265  0.68524  1.0000
  H   H792      1.0  0.14983  0.86192  0.67708  1.0000
  H   H793      1.0  0.14344  0.84873  0.74034  1.0000
  H   H794      1.0  0.19758  0.86771  0.70308  1.0000
  H   H795      1.0  0.14852  0.82107  0.75478  1.0000
  H   H796      1.0  0.20161  0.83984  0.71768  1.0000
  H   H797      1.0  0.21777  0.98134  0.85408  1.0000
  H   H798      1.0  0.06220  0.87606  0.56838  1.0000
  C   C674      1.0  0.20735  0.84442  0.79203  1.0000
  H   H799      1.0  0.15369  0.87431  0.56153  1.0000
  H   H800      1.0  0.06423  0.89515  0.54810  1.0000
  H   H801      1.0  0.23157  0.77079  0.75714  1.0000
  C   C675      1.0  0.17236  0.81505  0.54577  1.0000
  C   C676      1.0  0.07388  0.89368  0.49617  1.0000
  H   H802      1.0  0.14198  0.92571  0.96030  1.0000
  N   N44       1.0  0.17606  0.81009  0.57266  1.0000
  H   H803      1.0  0.16169  0.87715  0.79386  1.0000
  H   H804      1.0  0.23011  0.75648  0.87412  1.0000
  C   C677      1.0  0.21000  0.85650  0.97357  1.0000
  H   H805      1.0  0.23074  0.86497  0.83196  1.0000
  C   C678      1.0  0.98490  0.80404  0.65171  1.0000
  H   H806      1.0  0.21750  0.83206  0.83548  1.0000
  N   N45       1.0  0.20236  0.84796  0.81878  1.0000
  C   C679      1.0  0.20334  0.83277  0.83548  1.0000
  C   C680      1.0  0.19336  0.82485  0.58392  1.0000
  H   H807      1.0  0.07304  0.85292  0.52684  1.0000
  H   H808      1.0  0.15821  0.82104  0.59283  1.0000
  C   C681      1.0  0.30468  0.87162  0.62847  1.0000
  H   H809      1.0  0.18130  0.78781  0.59209  1.0000
  C   C682      1.0  0.21673  0.86582  0.82909  1.0000
  H   H810      1.0  0.21877  0.87767  0.81586  1.0000
  H   H811      1.0  0.05556  0.84561  0.55128  1.0000
  C   C683      1.0  0.16803  0.83668  0.83151  1.0000
  S   S191      1.0  0.22556  0.80287  0.49709  1.0000
  C   C684      1.0  0.18529  0.81652  0.52581  1.0000
  H   H812      1.0  0.14716  0.79663  0.58377  1.0000
  C   C685      1.0  0.30171  0.84339  0.60505  1.0000
  C   C686      1.0  0.22753  0.76332  0.77525  1.0000
  H   H813      1.0  0.19823  0.75523  0.85951  1.0000
  H   H814      1.0  0.21260  0.86973  0.84827  1.0000
  H   H815      1.0  0.01286  0.80422  0.64967  1.0000
  C   C687      1.0  0.15280  0.82256  0.51269  1.0000
  C   C688      1.0  0.17873  0.79213  0.57212  1.0000
  C   C689      1.0  0.18183  0.82045  0.50008  1.0000
  H   H816      1.0  0.20587  0.82683  0.57215  1.0000
  C   C690      1.0  0.29828  0.83880  0.57793  1.0000
  C   C691      1.0  0.28519  0.82137  0.56931  1.0000
  H   H817      1.0  0.13918  0.82929  0.84197  1.0000
  C   C692      1.0  0.29104  0.82960  0.62272  1.0000
  H   H818      1.0  0.16375  0.80412  0.61067  1.0000
  C   C693      1.0  0.18365  0.84922  0.81804  1.0000
  C   C694      1.0  0.03509  0.86459  0.53195  1.0000
  H   H819      1.0  0.16626  0.78072  0.56311  1.0000
  H   H820      1.0  0.08172  0.90327  0.51163  1.0000
  H   H821      1.0  0.14142  0.85079  0.97557  1.0000
  C   C695      1.0  0.14853  0.85321  0.81738  1.0000
  N   N46       1.0  0.16482  0.87638  0.96736  1.0000
  H   H822      1.0  0.19185  0.83852  0.58535  1.0000
  C   C696      1.0  0.98318  0.83337  0.66513  1.0000
  C   C697      1.0  0.00449  0.81225  0.65438  1.0000
  H   H823      1.0  0.19812  0.81437  0.52979  1.0000
  H   H824      1.0  0.20047  0.83485  0.85616  1.0000
  C   C698      1.0  0.16899  0.89094  0.94717  1.0000
  H   H825      1.0  0.14019  0.82491  0.50745  1.0000
  H   H826      1.0  0.13512  0.86754  0.95826  1.0000
  H   H827      1.0  0.19676  0.82141  0.60404  1.0000
  H   H828      1.0  0.30886  0.89096  0.68722  1.0000
  C   C699      1.0  0.13367  0.91411  0.97212  1.0000
  C   C700      1.0  0.16255  0.88075  0.52200  1.0000
  H   H829      1.0  0.02865  0.83739  0.66300  1.0000
  H   H830      1.0  0.10118  0.86975  0.96655  1.0000
  C   C701      1.0  0.98875  0.81278  0.58696  1.0000
  H   H831      1.0  0.18997  0.91662  0.48939  1.0000
  C   C702      1.0  0.20913  0.75077  0.77820  1.0000
  Fe  Fe96      1.0  0.17779  0.74832  0.92869  1.0000
  H   H832      1.0  0.26985  0.80203  0.62776  1.0000
  C   C703      1.0  0.18903  0.86540  0.53383  1.0000
  H   H833      1.0  0.03204  0.87737  0.52910  1.0000
  C   C704      1.0  0.21649  0.74509  0.82352  1.0000
  H   H834      1.0  0.25470  0.77703  0.79376  1.0000
  H   H835      1.0  0.13530  0.85510  0.81773  1.0000
  C   C705      1.0  0.01342  0.83096  0.66191  1.0000
  H   H836      1.0  0.19811  0.87108  0.49508  1.0000
  C   C706      1.0  0.00279  0.84147  0.66745  1.0000
  C   C707      1.0  0.98898  0.79483  0.58524  1.0000
  H   H837      1.0  0.19192  0.87370  0.79325  1.0000
  C   C708      1.0  0.16347  0.86563  0.80383  1.0000
  H   H838      1.0  0.15727  0.89584  0.94429  1.0000
  H   H839      1.0  0.15200  0.88652  0.51846  1.0000
  H   H840      1.0  0.17729  0.86081  0.57205  1.0000
  H   H841      1.0  0.19899  0.74847  0.76217  1.0000
  H   H842      1.0  0.03102  0.85962  0.55215  1.0000
  C   C709      1.0  0.05831  0.85085  0.53100  1.0000
  C   C710      1.0  0.14616  0.86167  0.96040  1.0000
  H   H843      1.0  0.08166  0.88480  0.54726  1.0000
  C   C711      1.0  0.16058  0.80786  0.59066  1.0000
  C   C712      1.0  0.06637  0.88176  0.54863  1.0000
  H   H844      1.0  0.00986  0.85604  0.67331  1.0000
  C   C713      1.0  0.15075  0.83868  0.83098  1.0000
  C   C714      1.0  0.27808  0.81223  0.61389  1.0000
  H   H845      1.0  0.26490  0.79469  0.58054  1.0000
  C   C715      1.0  0.24054  0.76681  0.79594  1.0000
  C   C716      1.0  0.06018  0.87558  0.50104  1.0000
  N   N47       1.0  0.05519  0.86847  0.52772  1.0000
  H   H846      1.0  0.30534  0.84847  0.56296  1.0000
  H   H847      1.0  0.18170  0.90358  0.95206  1.0000
  H   H848      1.0  0.16887  0.82552  0.84328  1.0000
  H   H849      1.0  0.19924  0.85933  0.53846  1.0000
  C   C717      1.0  0.16338  0.87373  0.54681  1.0000
  H   H850      1.0  0.24582  0.76199  0.83528  1.0000
  H   H851      1.0  0.04444  0.82076  0.97372  1.0000
  H   H852      1.0  0.20241  0.89660  0.97726  1.0000
  H   H853      1.0  0.22140  0.85159  0.97480  1.0000
  C   C718      1.0  0.21359  0.87544  0.97677  1.0000
  H   H854      1.0  0.29722  0.86385  0.64560  1.0000
  H   H855      1.0  0.29236  0.83222  0.64360  1.0000
  H   H856      1.0  0.16506  0.90979  0.49078  1.0000
  C   C719      1.0  0.11061  0.88267  0.97574  1.0000
  C   C720      1.0  0.16559  0.82342  0.49351  1.0000
  H   H857      1.0  0.29385  0.87338  0.61522  1.0000
  H   H858      1.0  0.14631  0.85493  0.94124  1.0000
  C   C721      1.0  0.17694  0.85005  0.96620  1.0000
  H   H859      1.0  0.07080  0.88012  0.97340  1.0000
  C   C722      1.0  0.18012  0.86930  0.96918  1.0000
  H   H860      1.0  0.18905  0.82919  0.96521  1.0000
  H   H861      1.0  0.16324  0.83948  0.96150  1.0000
  C   C723      1.0  0.19172  0.84386  0.96837  1.0000
  H   H862      1.0  0.13274  0.80504  0.97470  1.0000
  H   H863      1.0  0.31419  0.88568  0.63602  1.0000
  C   C724      1.0  0.20366  0.74166  0.80186  1.0000
  H   H864      1.0  0.04065  0.85038  0.48101  1.0000
  H   H865      1.0  0.36027  0.17665  0.39920  1.0000
  S   S192      1.0  0.51322  0.09219  0.46497  1.0000
  S   S193      1.0  0.56281  0.09844  0.43539  1.0000
  Fe  Fe97      1.0  0.54469  0.10790  0.02739  1.0000
  S   S194      1.0  0.51329  0.09837  0.02884  1.0000
  S   S195      1.0  0.56547  0.11472  0.06209  1.0000
  H   H866      1.0  0.52479  0.04564  0.47858  1.0000
  N   N48       1.0  0.54626  0.16109  0.06210  1.0000
  H   H867      1.0  0.47268  0.14809  0.47088  1.0000
  C   C725      1.0  0.51974  0.03392  0.98103  1.0000
  C   C726      1.0  0.49682  0.99500  0.22621  1.0000
  H   H868      1.0  0.47653  0.21515  0.43539  1.0000
  Fe  Fe98      1.0  0.56865  0.10370  0.27872  1.0000
  S   S196      1.0  0.58315  0.08364  0.27995  1.0000
  S   S197      1.0  0.55833  0.11474  0.31399  1.0000
  Fe  Fe99      1.0  0.56747  0.10347  0.21823  1.0000
  S   S198      1.0  0.58225  0.08351  0.21593  1.0000
  S   S199      1.0  0.55222  0.11147  0.18459  1.0000
  Fe  Fe100     1.0  0.56274  0.06795  0.24745  1.0000
  S   S200      1.0  0.54636  0.03640  0.24913  1.0000
  Fe  Fe101     1.0  0.60140  0.10146  0.24859  1.0000
  S   S201      1.0  0.63317  0.10801  0.25260  1.0000
  S   S202      1.0  0.54720  0.08697  0.24830  1.0000
  S   S203      1.0  0.58765  0.12242  0.24892  1.0000
  Fe  Fe102     1.0  0.40279  0.19104  0.03947  1.0000
  S   S204      1.0  0.41052  0.22185  0.03939  1.0000
  S   S205      1.0  0.37249  0.17106  0.03807  1.0000
  Fe  Fe103     1.0  0.44360  0.19463  0.04441  1.0000
  S   S206      1.0  0.45420  0.22620  0.04467  1.0000
  S   S207      1.0  0.46196  0.17851  0.05643  1.0000
  Fe  Fe104     1.0  0.43077  0.22300  0.07213  1.0000
  H   H869      1.0  0.52860  0.00041  0.32166  1.0000
  Fe  Fe105     1.0  0.43286  0.22231  0.01171  1.0000
  H   H870      1.0  0.51943  0.13840  0.06644  1.0000
  S   S208      1.0  0.42150  0.19195  0.07405  1.0000
  S   S209      1.0  0.42374  0.19094  0.00966  1.0000
  S   S210      1.0  0.41809  0.22122  0.22636  1.0000
  S   S211      1.0  0.35699  0.22392  0.31011  1.0000
  S   S212      1.0  0.40477  0.22061  0.29556  1.0000
  H   H871      1.0  0.59385  0.15252  0.35141  1.0000
  H   H872      1.0  0.52428  0.17152  0.06874  1.0000
  C   C727      1.0  0.32695  0.19260  0.32438  1.0000
  C   C728      1.0  0.34568  0.19967  0.31643  1.0000
  C   C729      1.0  0.35497  0.18739  0.31429  1.0000
  C   C730      1.0  0.34581  0.16844  0.32055  1.0000
  H   H873      1.0  0.38277  0.19489  0.13189  1.0000
  H   H874      1.0  0.36926  0.19245  0.30790  1.0000
  H   H875      1.0  0.35324  0.15915  0.31900  1.0000
  C   C731      1.0  0.52957  0.00207  0.36296  1.0000
  C   C732      1.0  0.42229  0.21775  0.14768  1.0000
  C   C733      1.0  0.41923  0.21341  0.17426  1.0000
  H   H876      1.0  0.52969  0.05936  0.40947  1.0000
  H   H877      1.0  0.42049  0.20687  0.13336  1.0000
  H   H878      1.0  0.41534  0.19912  0.18033  1.0000
  H   H879      1.0  0.55734  0.16693  0.02331  1.0000
  C   C734      1.0  0.43358  0.21647  0.43216  1.0000
  C   C735      1.0  0.43349  0.21435  0.40477  1.0000
  H   H880      1.0  0.43177  0.20471  0.44452  1.0000
  H   H881      1.0  0.43171  0.20094  0.39625  1.0000
  C   C736      1.0  0.35664  0.17877  0.05371  1.0000
  C   C737      1.0  0.34105  0.16561  0.06547  1.0000
  C   C738      1.0  0.59709  0.14360  0.38939  1.0000
  C   C739      1.0  0.32845  0.18934  0.07413  1.0000
  C   C740      1.0  0.34446  0.20274  0.06331  1.0000
  C   C741      1.0  0.35855  0.19748  0.05312  1.0000
  H   H882      1.0  0.33961  0.15117  0.06636  1.0000
  H   H883      1.0  0.34567  0.21708  0.06196  1.0000
  H   H884      1.0  0.37039  0.20774  0.04382  1.0000
  H   H885      1.0  0.31570  0.16073  0.08565  1.0000
  C   C742      1.0  0.52340  0.02459  0.23535  1.0000
  C   C743      1.0  0.51548  0.00495  0.23522  1.0000
  H   H886      1.0  0.46650  0.18945  0.17998  1.0000
  C   C744      1.0  0.48588  0.00463  0.21709  1.0000
  C   C745      1.0  0.49396  0.02426  0.21659  1.0000
  C   C746      1.0  0.51261  0.03421  0.22565  1.0000
  C   C747      1.0  0.61144  0.15377  0.30974  1.0000
  H   H887      1.0  0.48565  0.03185  0.20945  1.0000
  H   H888      1.0  0.51850  0.04931  0.22553  1.0000
  C   C748      1.0  0.49066  0.14819  0.00570  1.0000
  C   C749      1.0  0.48752  0.14409  0.03214  1.0000
  C   C750      1.0  0.47866  0.15344  0.04732  1.0000
  C   C751      1.0  0.47232  0.16658  0.03611  1.0000
  C   C752      1.0  0.47509  0.17038  0.00956  1.0000
  H   H889      1.0  0.53791  0.13167  0.05604  1.0000
  H   H890      1.0  0.49165  0.13355  0.04077  1.0000
  H   H891      1.0  0.47639  0.15023  0.06776  1.0000
  C   C753      1.0  0.36457  0.18873  0.23534  1.0000
  C   C754      1.0  0.51665  0.19365  0.45530  1.0000
  C   C755      1.0  0.56084  0.11192  0.09593  1.0000
  C   C756      1.0  0.57544  0.11269  0.11349  1.0000
  C   C757      1.0  0.57279  0.11170  0.14066  1.0000
  C   C758      1.0  0.55554  0.11018  0.15057  1.0000
  C   C759      1.0  0.54084  0.10909  0.13298  1.0000
  C   C760      1.0  0.54341  0.10984  0.10580  1.0000
  H   H892      1.0  0.58900  0.11439  0.10607  1.0000
  H   H893      1.0  0.58428  0.11274  0.15396  1.0000
  H   H894      1.0  0.52751  0.10808  0.14048  1.0000
  H   H895      1.0  0.53207  0.10939  0.09266  1.0000
  C   C761      1.0  0.56051  0.10212  0.40155  1.0000
  C   C762      1.0  0.54892  0.11090  0.39200  1.0000
  C   C763      1.0  0.54847  0.11464  0.36515  1.0000
  C   C764      1.0  0.55935  0.10940  0.34750  1.0000
  C   C765      1.0  0.57065  0.10026  0.35695  1.0000
  C   C766      1.0  0.57127  0.09671  0.38385  1.0000
  H   H896      1.0  0.54065  0.11521  0.40539  1.0000
  H   H897      1.0  0.53970  0.12175  0.35805  1.0000
  H   H898      1.0  0.57916  0.09619  0.34371  1.0000
  H   H899      1.0  0.58037  0.09001  0.39110  1.0000
  C   C767      1.0  0.46823  0.21371  0.15716  1.0000
  C   C768      1.0  0.32712  0.16137  0.32854  1.0000
  H   H900      1.0  0.45795  0.10570  0.45649  1.0000
  H   H901      1.0  0.64584  0.16946  0.33483  1.0000
  C   C769      1.0  0.36821  0.18512  0.41563  1.0000
  H   H902      1.0  0.49568  0.00670  0.14127  1.0000
  C   C770      1.0  0.49776  0.20851  0.47713  1.0000
  H   H903      1.0  0.50264  0.20841  0.43502  1.0000
  C   C771      1.0  0.48305  0.22626  0.45062  1.0000
  H   H904      1.0  0.50536  0.02812  0.41786  1.0000
  H   H905      1.0  0.54762  0.18922  0.06656  1.0000
  H   H906      1.0  0.46071  0.19278  0.46920  1.0000
  H   H907      1.0  0.39696  0.21336  0.47577  1.0000
  C   C772      1.0  0.54386  0.15600  0.13598  1.0000
  C   C773      1.0  0.48433  0.16134  0.99454  1.0000
  H   H908      1.0  0.62701  0.12340  0.40910  1.0000
  H   H909      1.0  0.39819  0.20980  0.37217  1.0000
  N   N49       1.0  0.36230  0.20578  0.14481  1.0000
  H   H910      1.0  0.40002  0.23937  0.39407  1.0000
  H   H911      1.0  0.62113  0.12746  0.29121  1.0000
  H   H912      1.0  0.59604  0.14523  0.30875  1.0000
  C   C774      1.0  0.52168  0.99351  0.33894  1.0000
  N   N50       1.0  0.46858  0.20494  0.13146  1.0000
  Fe  Fe106     1.0  0.38816  0.23821  0.30104  1.0000
  H   H913      1.0  0.34715  0.19467  0.37778  1.0000
  H   H914      1.0  0.61598  0.15578  0.28911  1.0000
  H   H915      1.0  0.31961  0.20195  0.32617  1.0000
  H   H916      1.0  0.64652  0.15942  0.30331  1.0000
  C   C775      1.0  0.32722  0.17094  0.07601  1.0000
  H   H917      1.0  0.46815  0.20976  0.08999  1.0000
  H   H918      1.0  0.51591  0.00117  0.13551  1.0000
  N   N51       1.0  0.51943  0.05264  0.31900  1.0000
  C   C776      1.0  0.53947  0.05675  0.31391  1.0000
  C   C777      1.0  0.50802  0.03926  0.29831  1.0000
  C   C778      1.0  0.51595  0.07009  0.31614  1.0000
  C   C779      1.0  0.51515  0.04563  0.34588  1.0000
  C   C780      1.0  0.52517  0.05679  0.36764  1.0000
  H   H919      1.0  0.45996  0.08788  0.43572  1.0000
  H   H920      1.0  0.54301  0.04430  0.31723  1.0000
  H   H921      1.0  0.54293  0.06100  0.29338  1.0000
  H   H922      1.0  0.54916  0.06842  0.32637  1.0000
  H   H923      1.0  0.51164  0.04513  0.27845  1.0000
  H   H924      1.0  0.52490  0.08140  0.32977  1.0000
  H   H925      1.0  0.51917  0.07589  0.29619  1.0000
  H   H926      1.0  0.50108  0.06770  0.31998  1.0000
  H   H927      1.0  0.53584  0.07052  0.36504  1.0000
  C   C781      1.0  0.52168  0.05052  0.39323  1.0000
  N   N52       1.0  0.37506  0.21420  0.38948  1.0000
  Fe  Fe107     1.0  0.51603  0.11644  0.99368  1.0000
  C   C782      1.0  0.62528  0.13320  0.37018  1.0000
  C   C783      1.0  0.56142  0.15587  0.14258  1.0000
  C   C784      1.0  0.35070  0.17171  0.15591  1.0000
  C   C785      1.0  0.35650  0.19980  0.24757  1.0000
  H   H928      1.0  0.56474  0.15349  0.16260  1.0000
  H   H929      1.0  0.32990  0.18922  0.98393  1.0000
  Fe  Fe108     1.0  0.54440  0.10066  0.46857  1.0000
  S   S213      1.0  0.54394  0.08465  0.00065  1.0000
  C   C786      1.0  0.57436  0.15784  0.12322  1.0000
  H   H930      1.0  0.32686  0.14547  0.41151  1.0000
  C   C787      1.0  0.38746  0.21479  0.43624  1.0000
  C   C788      1.0  0.31767  0.17354  0.33028  1.0000
  H   H931      1.0  0.34793  0.21649  0.11657  1.0000
  H   H932      1.0  0.32911  0.15218  0.45871  1.0000
  H   H933      1.0  0.36543  0.21352  0.25532  1.0000
  C   C789      1.0  0.48590  0.20106  0.12987  1.0000
  H   H934      1.0  0.38465  0.22630  0.16795  1.0000
  H   H935      1.0  0.32298  0.19563  0.13903  1.0000
  H   H936      1.0  0.52510  0.15733  0.10575  1.0000
  H   H937      1.0  0.32792  0.18417  0.01801  1.0000
  N   N53       1.0  0.62177  0.14439  0.32516  1.0000
  C   C790      1.0  0.50798  0.03298  0.39797  1.0000
  H   H938      1.0  0.47612  0.00587  0.99960  1.0000
  H   H939      1.0  0.61386  0.16783  0.31806  1.0000
  C   C791      1.0  0.33707  0.19312  0.25071  1.0000
  C   C792      1.0  0.60616  0.13532  0.40586  1.0000
  C   C793      1.0  0.46578  0.21122  0.20486  1.0000
  H   H940      1.0  0.60184  0.13240  0.42590  1.0000
  C   C794      1.0  0.56198  0.16566  0.04375  1.0000
  H   H941      1.0  0.46414  0.20302  0.22235  1.0000
  N   N54       1.0  0.48466  0.21834  0.47649  1.0000
  C   C795      1.0  0.61631  0.14158  0.35280  1.0000
  H   H942      1.0  0.47738  0.09890  0.46083  1.0000
  H   H943      1.0  0.58574  0.14706  0.39679  1.0000
  H   H944      1.0  0.57362  0.17911  0.04930  1.0000
  H   H945      1.0  0.53364  0.15383  0.15105  1.0000
  C   C796      1.0  0.38457  0.23489  0.39097  1.0000
  C   C797      1.0  0.53201  0.14263  0.05415  1.0000
  H   H946      1.0  0.34779  0.21299  0.40009  1.0000
  C   C798      1.0  0.50746  0.99845  0.46861  1.0000
  S   S214      1.0  0.43876  0.23801  0.47770  1.0000
  H   H947      1.0  0.51066  0.02613  0.29836  1.0000
  H   H948      1.0  0.49285  0.01830  0.33621  1.0000
  H   H949      1.0  0.42852  0.06413  0.44797  1.0000
  H   H950      1.0  0.45249  0.17622  0.14197  1.0000
  C   C799      1.0  0.51483  0.03138  0.47846  1.0000
  C   C800      1.0  0.33375  0.16416  0.22883  1.0000
  C   C801      1.0  0.61794  0.12603  0.31235  1.0000
  C   C802      1.0  0.37529  0.20381  0.12515  1.0000
  H   H951      1.0  0.48667  0.19121  0.14506  1.0000
  C   C803      1.0  0.60194  0.14664  0.36320  1.0000
  C   C804      1.0  0.37983  0.18612  0.46020  1.0000
  C   C805      1.0  0.37700  0.20485  0.41383  1.0000
  C   C806      1.0  0.52174  0.99402  0.38630  1.0000
  H   H952      1.0  0.49865  0.21416  0.13242  1.0000
  H   H953      1.0  0.33970  0.14218  0.16370  1.0000
  C   C807      1.0  0.32748  0.18461  0.14487  1.0000
  H   H954      1.0  0.38304  0.21499  0.34925  1.0000
  H   H955      1.0  0.53432  0.02054  0.46250  1.0000
  H   H956      1.0  0.33987  0.17377  0.99802  1.0000
  H   H957      1.0  0.54193  0.01498  0.36357  1.0000
  C   C808      1.0  0.45814  0.06333  0.47236  1.0000
  C   C809      1.0  0.32758  0.17794  0.99832  1.0000
  H   H958      1.0  0.52387  0.99741  0.24217  1.0000
  C   C810      1.0  0.35587  0.22053  0.13560  1.0000
  S   S215      1.0  0.49447  0.04571  0.00524  1.0000
  H   H959      1.0  0.36755  0.19745  0.10663  1.0000
  H   H960      1.0  0.36499  0.17285  0.15922  1.0000
  C   C811      1.0  0.35487  0.20964  0.38324  1.0000
  H   H961      1.0  0.45112  0.18076  0.10828  1.0000
  H   H962      1.0  0.37970  0.19390  0.23355  1.0000
  H   H963      1.0  0.56765  0.15442  0.04286  1.0000
  H   H964      1.0  0.52205  0.19014  0.43755  1.0000
  C   C812      1.0  0.36968  0.17594  0.43848  1.0000
  C   C813      1.0  0.53916  0.15810  0.10997  1.0000
  H   H965      1.0  0.37568  0.19239  0.36320  1.0000
  C   C814      1.0  0.46913  0.23232  0.15995  1.0000
  C   C815      1.0  0.42143  0.22747  0.19311  1.0000
  C   C816      1.0  0.37289  0.21245  0.16992  1.0000
  S   S216      1.0  0.46219  0.99277  0.20610  1.0000
  H   H966      1.0  0.33195  0.20237  0.26096  1.0000
  H   H967      1.0  0.48664  0.19463  0.11054  1.0000
  C   C817      1.0  0.42801  0.23627  0.13975  1.0000
  C   C818      1.0  0.46204  0.09343  0.45616  1.0000
  S   S217      1.0  0.50270  0.13771  0.98583  1.0000
  C   C819      1.0  0.49770  0.02170  0.37711  1.0000
  N   N55       1.0  0.53291  0.05275  0.07536  1.0000
  C   C820      1.0  0.52282  0.03308  0.06628  1.0000
  C   C821      1.0  0.52263  0.06406  0.06512  1.0000
  C   C822      1.0  0.55169  0.05975  0.06346  1.0000
  C   C823      1.0  0.53373  0.05398  0.10428  1.0000
  C   C824      1.0  0.55084  0.06261  0.11902  1.0000
  C   C825      1.0  0.51693  0.04710  0.11857  1.0000
  C   C826      1.0  0.55101  0.06409  0.14627  1.0000
  C   C827      1.0  0.51728  0.04876  0.14584  1.0000
  C   C828      1.0  0.53430  0.05727  0.15963  1.0000
  H   H968      1.0  0.50781  0.02742  0.07148  1.0000
  H   H969      1.0  0.52269  0.03173  0.04455  1.0000
  H   H970      1.0  0.52950  0.02384  0.07460  1.0000
  H   H971      1.0  0.50780  0.05886  0.07123  1.0000
  H   H972      1.0  0.52208  0.06384  0.04345  1.0000
  H   H973      1.0  0.52959  0.07889  0.07169  1.0000
  H   H974      1.0  0.56030  0.05191  0.07040  1.0000
  H   H975      1.0  0.55058  0.05828  0.04175  1.0000
  H   H976      1.0  0.55957  0.07495  0.06772  1.0000
  H   H977      1.0  0.56430  0.06880  0.11000  1.0000
  H   H978      1.0  0.50337  0.04088  0.10865  1.0000
  H   H979      1.0  0.56417  0.07113  0.15711  1.0000
  C   C829      1.0  0.38329  0.20752  0.36765  1.0000
  H   H980      1.0  0.53457  0.05897  0.18071  1.0000
  H   H981      1.0  0.49274  0.03592  0.30024  1.0000
  H   H982      1.0  0.32553  0.15024  0.22139  1.0000
  H   H983      1.0  0.62656  0.11871  0.32090  1.0000
  H   H984      1.0  0.46478  0.23505  0.22566  1.0000
  H   H985      1.0  0.35958  0.16234  0.21657  1.0000
  C   C830      1.0  0.38873  0.20547  0.45903  1.0000
  C   C831      1.0  0.46693  0.20354  0.18047  1.0000
  H   H986      1.0  0.50429  0.04382  0.15638  1.0000
  C   C832      1.0  0.34675  0.18747  0.14852  1.0000
  C   C833      1.0  0.50120  0.02781  0.35138  1.0000
  C   C834      1.0  0.45207  0.18702  0.12819  1.0000
  C   C835      1.0  0.33633  0.15412  0.15870  1.0000
  H   H987      1.0  0.35291  0.21771  0.36631  1.0000
  C   C836      1.0  0.46630  0.22933  0.20684  1.0000
  H   H988      1.0  0.47038  0.18048  0.00065  1.0000
  C   C837      1.0  0.56981  0.15990  0.09713  1.0000
  H   H989      1.0  0.48713  0.00802  0.38097  1.0000
  H   H990      1.0  0.60291  0.11668  0.31396  1.0000
  H   H991      1.0  0.50434  0.99619  0.16628  1.0000
  H   H992      1.0  0.53448  0.17688  0.03793  1.0000
  C   C838      1.0  0.31763  0.15175  0.15450  1.0000
  Fe  Fe109     1.0  0.51283  0.07617  0.99980  1.0000
  C   C839      1.0  0.50541  0.20417  0.45416  1.0000
  C   C840      1.0  0.43573  0.22946  0.38830  1.0000
  H   H993      1.0  0.58771  0.15695  0.12832  1.0000
  C   C841      1.0  0.62022  0.13012  0.39628  1.0000
  S   S218      1.0  0.43665  0.22638  0.35404  1.0000
  H   H994      1.0  0.58022  0.16048  0.08309  1.0000
  H   H995      1.0  0.37936  0.20280  0.17735  1.0000
  C   C842      1.0  0.55205  0.16024  0.08971  1.0000
  H   H996      1.0  0.43877  0.18910  0.13111  1.0000
  C   C843      1.0  0.35321  0.17097  0.22588  1.0000
  C   C844      1.0  0.53788  0.17532  0.05887  1.0000
  H   H997      1.0  0.52705  0.14249  0.03349  1.0000
  S   S219      1.0  0.54773  0.12727  0.99366  1.0000
  H   H998      1.0  0.39509  0.22975  0.43663  1.0000
  H   H999      1.0  0.64182  0.14861  0.25195  1.0000
  C   C845      1.0  0.52018  0.01710  0.46914  1.0000
  H   H1000     1.0  0.45534  0.22005  0.10884  1.0000
  H   H1001     1.0  0.48073  0.23015  0.10917  1.0000
  C   C846      1.0  0.50195  0.99617  0.14470  1.0000
  H   H1002     1.0  0.38566  0.19593  0.99297  1.0000
  H   H1003     1.0  0.45574  0.05721  0.45221  1.0000
  C   C847      1.0  0.43130  0.07151  0.46731  1.0000
  C   C848      1.0  0.64214  0.15603  0.32380  1.0000
  C   C849      1.0  0.43646  0.23392  0.44338  1.0000
  S   S220      1.0  0.31641  0.13742  0.33664  1.0000
  H   H1004     1.0  0.47103  0.99892  0.05792  1.0000
  H   H1005     1.0  0.36308  0.16085  0.43931  1.0000
  H   H1006     1.0  0.36789  0.23400  0.13246  1.0000
  C   C850      1.0  0.31765  0.15351  0.44752  1.0000
  H   H1007     1.0  0.63612  0.12873  0.36358  1.0000
  C   C851      1.0  0.46819  0.21681  0.10902  1.0000
  H   H1008     1.0  0.47352  0.06816  0.47649  1.0000
  H   H1009     1.0  0.47550  0.99891  0.10546  1.0000
  C   C852      1.0  0.32508  0.17495  0.24157  1.0000
  C   C853      1.0  0.48919  0.99427  0.47702  1.0000
  H   H1010     1.0  0.47382  0.23436  0.45123  1.0000
  N   N56       1.0  0.45157  0.07894  0.47493  1.0000
  Fe  Fe110     1.0  0.41813  0.23917  0.26217  1.0000
  H   H1011     1.0  0.49697  0.23604  0.44405  1.0000
  H   H1012     1.0  0.32070  0.14276  0.00989  1.0000
  C   C854      1.0  0.50195  0.02885  0.99157  1.0000
  H   H1013     1.0  0.52794  0.00055  0.40493  1.0000
  H   H1014     1.0  0.36360  0.21390  0.18536  1.0000
  H   H1015     1.0  0.34678  0.22353  0.15002  1.0000
  H   H1016     1.0  0.38101  0.17900  0.47789  1.0000
  H   H1017     1.0  0.38644  0.21753  0.12034  1.0000
  H   H1018     1.0  0.42573  0.08273  0.46560  1.0000
  C   C855      1.0  0.48987  0.00996  0.99134  1.0000
  C   C856      1.0  0.31648  0.14963  0.42064  1.0000
  H   H1019     1.0  0.52926  0.04833  0.98128  1.0000
  C   C857      1.0  0.46823  0.23993  0.18449  1.0000
  H   H1020     1.0  0.37895  0.24098  0.40682  1.0000
  Fe  Fe111     1.0  0.42663  0.24118  0.32215  1.0000
  H   H1021     1.0  0.38253  0.24145  0.37246  1.0000
  H   H1022     1.0  0.46988  0.24116  0.14346  1.0000
  C   C858      1.0  0.52062  0.18723  0.47912  1.0000
  H   H1023     1.0  0.52883  0.17857  0.47984  1.0000
  Fe  Fe112     1.0  0.54370  0.10278  0.96673  1.0000
  N   N57       1.0  0.62683  0.12974  0.67003  1.0000
  S   S221      1.0  0.56190  0.10013  0.93363  1.0000
  Fe  Fe113     1.0  0.54409  0.10426  0.52915  1.0000
  S   S222      1.0  0.51273  0.09605  0.52932  1.0000
  S   S223      1.0  0.56386  0.10579  0.56386  1.0000
  H   H1024     1.0  0.48994  0.22920  0.51639  1.0000
  C   C859      1.0  0.52792  0.14454  0.71020  1.0000
  H   H1025     1.0  0.54911  0.03928  0.91483  1.0000
  C   C860      1.0  0.35706  0.20407  0.67670  1.0000
  H   H1026     1.0  0.50865  0.99516  0.52744  1.0000
  H   H1027     1.0  0.47286  0.00196  0.57176  1.0000
  Fe  Fe114     1.0  0.56935  0.10146  0.77844  1.0000
  S   S224      1.0  0.58463  0.08184  0.77860  1.0000
  S   S225      1.0  0.55523  0.11110  0.81087  1.0000
  Fe  Fe115     1.0  0.56896  0.10338  0.71839  1.0000
  S   S226      1.0  0.58422  0.08415  0.71447  1.0000
  S   S227      1.0  0.55594  0.11474  0.68600  1.0000
  Fe  Fe116     1.0  0.56478  0.06711  0.74499  1.0000
  S   S228      1.0  0.54950  0.03557  0.74046  1.0000
  Fe  Fe117     1.0  0.60299  0.10091  0.74817  1.0000
  S   S229      1.0  0.63471  0.10801  0.74354  1.0000
  S   S230      1.0  0.54856  0.08541  0.74686  1.0000
  S   S231      1.0  0.58865  0.12139  0.74994  1.0000
  Fe  Fe118     1.0  0.39923  0.18545  0.53575  1.0000
  S   S232      1.0  0.40748  0.21633  0.53608  1.0000
  S   S233      1.0  0.36865  0.16622  0.53172  1.0000
  Fe  Fe119     1.0  0.43969  0.18874  0.54380  1.0000
  S   S234      1.0  0.45056  0.22029  0.54548  1.0000
  S   S235      1.0  0.46017  0.17458  0.55314  1.0000
  Fe  Fe120     1.0  0.42595  0.21664  0.57090  1.0000
  H   H1028     1.0  0.55377  0.06337  0.90873  1.0000
  Fe  Fe121     1.0  0.43094  0.21699  0.51066  1.0000
  H   H1029     1.0  0.51485  0.00268  0.56091  1.0000
  S   S236      1.0  0.41640  0.18545  0.57173  1.0000
  S   S237      1.0  0.42136  0.18568  0.50763  1.0000
  C   C861      1.0  0.38587  0.18859  0.87503  1.0000
  S   S238      1.0  0.35856  0.21861  0.79197  1.0000
  S   S239      1.0  0.40968  0.21977  0.79098  1.0000
  C   C862      1.0  0.33025  0.15896  0.82337  1.0000
  H   H1030     1.0  0.46980  0.00508  0.49346  1.0000
  C   C863      1.0  0.32887  0.18845  0.80976  1.0000
  C   C864      1.0  0.34814  0.19573  0.80449  1.0000
  C   C865      1.0  0.35840  0.18447  0.80857  1.0000
  C   C866      1.0  0.34950  0.16620  0.81800  1.0000
  C   C867      1.0  0.49527  0.99635  0.97977  1.0000
  H   H1031     1.0  0.37316  0.18974  0.80430  1.0000
  H   H1032     1.0  0.35758  0.15762  0.82110  1.0000
  H   H1033     1.0  0.50186  0.17637  0.72993  1.0000
  C   C868      1.0  0.43665  0.22199  0.64810  1.0000
  C   C869      1.0  0.43983  0.22118  0.67520  1.0000
  H   H1034     1.0  0.38185  0.17368  0.88007  1.0000
  H   H1035     1.0  0.44242  0.21500  0.63450  1.0000
  H   H1036     1.0  0.44812  0.21357  0.68229  1.0000
  H   H1037     1.0  0.49623  0.00685  0.54384  1.0000
  H   H1038     1.0  0.39707  0.20161  0.72191  1.0000
  C   C870      1.0  0.43465  0.23792  0.94458  1.0000
  C   C871      1.0  0.61618  0.13307  0.69197  1.0000
  H   H1039     1.0  0.33014  0.18184  0.75324  1.0000
  C   C872      1.0  0.35271  0.17322  0.54856  1.0000
  C   C873      1.0  0.33557  0.15965  0.55586  1.0000
  H   H1040     1.0  0.54875  0.02126  0.82927  1.0000
  H   H1041     1.0  0.32505  0.18213  0.51604  1.0000
  C   C874      1.0  0.34302  0.19726  0.56627  1.0000
  C   C875      1.0  0.35641  0.19207  0.55385  1.0000
  H   H1042     1.0  0.33258  0.14503  0.55194  1.0000
  H   H1043     1.0  0.34595  0.21189  0.57007  1.0000
  H   H1044     1.0  0.36940  0.20273  0.54795  1.0000
  S   S240      1.0  0.51228  0.09301  0.96452  1.0000
  C   C876      1.0  0.52530  0.02427  0.73183  1.0000
  C   C877      1.0  0.51791  0.00499  0.72610  1.0000
  C   C878      1.0  0.32780  0.16715  0.74806  1.0000
  C   C879      1.0  0.48690  0.00531  0.71696  1.0000
  C   C880      1.0  0.49428  0.02458  0.72277  1.0000
  C   C881      1.0  0.51335  0.03401  0.73026  1.0000
  H   H1045     1.0  0.39025  0.22778  0.92445  1.0000
  H   H1046     1.0  0.48514  0.03224  0.72166  1.0000
  H   H1047     1.0  0.51875  0.04878  0.73488  1.0000
  C   C882      1.0  0.48845  0.14340  0.50348  1.0000
  C   C883      1.0  0.49207  0.14601  0.53041  1.0000
  C   C884      1.0  0.48314  0.15543  0.54526  1.0000
  C   C885      1.0  0.47035  0.16217  0.53348  1.0000
  C   C886      1.0  0.46635  0.15912  0.50665  1.0000
  C   C887      1.0  0.60009  0.14403  0.61599  1.0000
  H   H1048     1.0  0.50201  0.14108  0.53970  1.0000
  H   H1049     1.0  0.48628  0.15766  0.56601  1.0000
  H   H1050     1.0  0.64517  0.14451  0.77104  1.0000
  H   H1051     1.0  0.56029  0.13784  0.76957  1.0000
  C   C888      1.0  0.55943  0.10598  0.59764  1.0000
  C   C889      1.0  0.57017  0.10015  0.61545  1.0000
  C   C890      1.0  0.56859  0.10192  0.64260  1.0000
  C   C891      1.0  0.55664  0.11006  0.65218  1.0000
  C   C892      1.0  0.54553  0.11544  0.63443  1.0000
  C   C893      1.0  0.54676  0.11323  0.60727  1.0000
  H   H1052     1.0  0.58017  0.09474  0.60815  1.0000
  H   H1053     1.0  0.57720  0.09774  0.65602  1.0000
  H   H1054     1.0  0.53621  0.12172  0.64166  1.0000
  H   H1055     1.0  0.53853  0.11790  0.59378  1.0000
  C   C894      1.0  0.55991  0.10356  0.89962  1.0000
  C   C895      1.0  0.54700  0.11050  0.88918  1.0000
  C   C896      1.0  0.54577  0.11272  0.86198  1.0000
  C   C897      1.0  0.55728  0.10788  0.84492  1.0000
  C   C898      1.0  0.57000  0.10071  0.85531  1.0000
  C   C899      1.0  0.57137  0.09868  0.88252  1.0000
  H   H1056     1.0  0.53810  0.11432  0.90209  1.0000
  H   H1057     1.0  0.53588  0.11829  0.85417  1.0000
  H   H1058     1.0  0.57894  0.09692  0.84246  1.0000
  H   H1059     1.0  0.58141  0.09331  0.89038  1.0000
  H   H1060     1.0  0.60937  0.10054  0.66516  1.0000
  H   H1061     1.0  0.51894  0.01541  0.90720  1.0000
  H   H1062     1.0  0.50957  0.00518  0.79616  1.0000
  C   C900      1.0  0.37050  0.19798  0.66565  1.0000
  S   S241      1.0  0.43593  0.22871  0.85585  1.0000
  N   N58       1.0  0.52550  0.04468  0.89866  1.0000
  H   H1063     1.0  0.37305  0.21180  0.74002  1.0000
  H   H1064     1.0  0.34780  0.21387  0.71120  1.0000
  H   H1065     1.0  0.50637  0.02586  0.92563  1.0000
  H   H1066     1.0  0.48803  0.00767  0.80396  1.0000
  C   C901      1.0  0.49885  0.99557  0.71859  1.0000
  H   H1067     1.0  0.44554  0.12104  0.53640  1.0000
  H   H1068     1.0  0.52269  0.15072  0.67055  1.0000
  H   H1069     1.0  0.50011  0.02027  0.89181  1.0000
  C   C902      1.0  0.53056  0.04460  0.87095  1.0000
  C   C903      1.0  0.53756  0.03128  0.86166  1.0000
  C   C904      1.0  0.52977  0.05816  0.85292  1.0000
  C   C905      1.0  0.54308  0.03131  0.83582  1.0000
  C   C906      1.0  0.53534  0.05806  0.82713  1.0000
  C   C907      1.0  0.54192  0.04465  0.81856  1.0000
  H   H1070     1.0  0.59870  0.14357  0.65706  1.0000
  C   C908      1.0  0.52584  0.14727  0.73721  1.0000
  H   H1071     1.0  0.39618  0.19331  0.67613  1.0000
  H   H1072     1.0  0.55749  0.13903  0.73513  1.0000
  C   C909      1.0  0.60827  0.14038  0.59379  1.0000
  H   H1073     1.0  0.39836  0.19715  0.63205  1.0000
  C   C910      1.0  0.32225  0.16485  0.56834  1.0000
  S   S242      1.0  0.54245  0.08105  0.50148  1.0000
  H   H1074     1.0  0.46555  0.19933  0.50310  1.0000
  H   H1075     1.0  0.33848  0.16750  0.73362  1.0000
  S   S243      1.0  0.31981  0.13608  0.83583  1.0000
  H   H1076     1.0  0.49226  0.00241  0.77119  1.0000
  H   H1077     1.0  0.53504  0.06882  0.81390  1.0000
  H   H1078     1.0  0.54653  0.04486  0.79866  1.0000
  H   H1079     1.0  0.52893  0.10992  0.76860  1.0000
  H   H1080     1.0  0.34594  0.20543  0.66469  1.0000
  H   H1081     1.0  0.62766  0.10553  0.68980  1.0000
  C   C911      1.0  0.51152  0.16449  0.69817  1.0000
  C   C912      1.0  0.45921  0.10386  0.55235  1.0000
  C   C913      1.0  0.37223  0.20782  0.71952  1.0000
  H   H1082     1.0  0.53928  0.02106  0.87458  1.0000
  H   H1083     1.0  0.51508  0.13762  0.78845  1.0000
  H   H1084     1.0  0.58840  0.14847  0.61381  1.0000
  H   H1085     1.0  0.42284  0.06143  0.48196  1.0000
  C   C914      1.0  0.46575  0.08977  0.54729  1.0000
  C   C915      1.0  0.35080  0.17876  0.63023  1.0000
  C   C916      1.0  0.53031  0.14242  0.78439  1.0000
  H   H1086     1.0  0.51219  0.05726  0.92536  1.0000
  C   C917      1.0  0.42183  0.24004  0.68377  1.0000
  C   C918      1.0  0.52521  0.02028  0.96971  1.0000
  C   C919      1.0  0.38568  0.20197  0.70931  1.0000
  H   H1087     1.0  0.53731  0.15765  0.78894  1.0000
  S   S244      1.0  0.43783  0.22971  0.72688  1.0000
  C   C920      1.0  0.43726  0.21955  0.90729  1.0000
  C   C921      1.0  0.52430  0.11742  0.75319  1.0000
  C   C922      1.0  0.47458  0.99325  0.58714  1.0000
  H   H1088     1.0  0.37383  0.20843  0.60117  1.0000
  H   H1089     1.0  0.50604  0.17106  0.68325  1.0000
  H   H1090     1.0  0.38432  0.18902  0.85341  1.0000
  C   C923      1.0  0.35429  0.18671  0.88222  1.0000
  C   C924      1.0  0.43465  0.23233  0.88986  1.0000
  H   H1091     1.0  0.40112  0.19596  0.88016  1.0000
  H   H1092     1.0  0.64050  0.12624  0.62208  1.0000
  S   S245      1.0  0.42247  0.23428  0.60483  1.0000
  H   H1093     1.0  0.52775  0.11265  0.73418  1.0000
  C   C925      1.0  0.31998  0.17020  0.81921  1.0000
  C   C926      1.0  0.42646  0.23227  0.63870  1.0000
  H   H1094     1.0  0.62919  0.13131  0.57897  1.0000
  H   H1095     1.0  0.52540  0.06933  0.85840  1.0000
  Fe  Fe122     1.0  0.39024  0.23489  0.79084  1.0000
  H   H1096     1.0  0.48659  0.16456  0.97408  1.0000
  C   C927      1.0  0.50281  0.99650  0.54673  1.0000
  H   H1097     1.0  0.56124  0.15928  0.75537  1.0000
  C   C928      1.0  0.43252  0.23027  0.69314  1.0000
  H   H1098     1.0  0.50874  0.11256  0.75387  1.0000
  C   C929      1.0  0.50919  0.16746  0.72448  1.0000
  H   H1099     1.0  0.35996  0.21483  0.62380  1.0000
  H   H1100     1.0  0.33094  0.16102  0.76628  1.0000
  N   N59       1.0  0.53341  0.13798  0.75703  1.0000
  C   C930      1.0  0.51644  0.05802  0.90460  1.0000
  C   C931      1.0  0.44794  0.10175  0.50749  1.0000
  H   H1101     1.0  0.54029  0.05236  0.93600  1.0000
  H   H1102     1.0  0.33914  0.18378  0.63187  1.0000
  H   H1103     1.0  0.33604  0.17318  0.49251  1.0000
  H   H1104     1.0  0.38285  0.17355  0.63967  1.0000
  H   H1105     1.0  0.35015  0.17390  0.60959  1.0000
  H   H1106     1.0  0.34760  0.16634  0.64278  1.0000
  C   C932      1.0  0.51620  0.15903  0.74384  1.0000
  C   C933      1.0  0.62922  0.13124  0.62113  1.0000
  H   H1107     1.0  0.38250  0.18272  0.60779  1.0000
  H   H1108     1.0  0.49022  0.04172  0.57138  1.0000
  C   C934      1.0  0.38393  0.18637  0.62907  1.0000
  C   C935      1.0  0.38332  0.19630  0.97207  1.0000
  H   H1109     1.0  0.31636  0.14165  0.49989  1.0000
  H   H1110     1.0  0.37135  0.22392  0.88675  1.0000
  Fe  Fe123     1.0  0.51698  0.11509  0.49486  1.0000
  H   H1111     1.0  0.52623  0.07274  0.90211  1.0000
  H   H1112     1.0  0.34525  0.19150  0.89455  1.0000
  H   H1113     1.0  0.52703  0.99732  0.72718  1.0000
  H   H1114     1.0  0.35005  0.17143  0.88493  1.0000
  H   H1115     1.0  0.44145  0.10729  0.49264  1.0000
  C   C936      1.0  0.51354  0.19143  0.50197  1.0000
  H   H1116     1.0  0.53501  0.13574  0.70367  1.0000
  C   C937      1.0  0.37204  0.21044  0.62230  1.0000
  H   H1117     1.0  0.45638  0.16398  0.49737  1.0000
  C   C938      1.0  0.49070  0.23402  0.49593  1.0000
  C   C939      1.0  0.41908  0.24128  0.65667  1.0000
  C   C940      1.0  0.49676  0.02711  0.48771  1.0000
  C   C941      1.0  0.54286  0.05004  0.91525  1.0000
  C   C942      1.0  0.51222  0.02578  0.90599  1.0000
  Fe  Fe124     1.0  0.51163  0.07417  0.49947  1.0000
  H   H1118     1.0  0.32078  0.19703  0.80666  1.0000
  H   H1119     1.0  0.46138  0.11049  0.57153  1.0000
  C   C943      1.0  0.35798  0.20891  0.70323  1.0000
  H   H1120     1.0  0.49614  0.20366  0.51920  1.0000
  H   H1121     1.0  0.53628  0.13531  0.79879  1.0000
  N   N60       1.0  0.52450  0.04408  0.64894  1.0000
  C   C944      1.0  0.54384  0.04747  0.65886  1.0000
  C   C945      1.0  0.51808  0.05723  0.66305  1.0000
  C   C946      1.0  0.51233  0.02461  0.65555  1.0000
  C   C947      1.0  0.52323  0.04679  0.62045  1.0000
  C   C948      1.0  0.50545  0.04235  0.60765  1.0000
  C   C949      1.0  0.53932  0.05435  0.60482  1.0000
  C   C950      1.0  0.50388  0.04502  0.58083  1.0000
  C   C951      1.0  0.53758  0.05707  0.57806  1.0000
  C   C952      1.0  0.51993  0.05236  0.56609  1.0000
  H   H1122     1.0  0.54421  0.04471  0.68020  1.0000
  H   H1123     1.0  0.54966  0.03817  0.64881  1.0000
  H   H1124     1.0  0.55351  0.06229  0.65657  1.0000
  H   H1125     1.0  0.52661  0.07199  0.65801  1.0000
  H   H1126     1.0  0.51933  0.05609  0.68461  1.0000
  H   H1127     1.0  0.50313  0.05462  0.65834  1.0000
  H   H1128     1.0  0.49710  0.02181  0.65359  1.0000
  H   H1129     1.0  0.51520  0.01427  0.64300  1.0000
  H   H1130     1.0  0.51462  0.02141  0.67615  1.0000
  H   H1131     1.0  0.49265  0.03705  0.61842  1.0000
  H   H1132     1.0  0.55346  0.05862  0.61279  1.0000
  C   C953      1.0  0.32261  0.14950  0.95612  1.0000
  H   H1133     1.0  0.55005  0.06335  0.56659  1.0000
  H   H1134     1.0  0.51872  0.05471  0.54539  1.0000
  C   C954      1.0  0.38496  0.19717  0.68278  1.0000
  C   C955      1.0  0.37787  0.19739  0.91717  1.0000
  N   N61       1.0  0.36946  0.19341  0.63736  1.0000
  C   C956      1.0  0.62417  0.10972  0.67026  1.0000
  H   H1135     1.0  0.50358  0.05516  0.89215  1.0000
  C   C957      1.0  0.47550  0.14996  0.49172  1.0000
  H   H1136     1.0  0.51386  0.16194  0.76380  1.0000
  H   H1137     1.0  0.38489  0.22237  0.62913  1.0000
  C   C958      1.0  0.32584  0.18367  0.57350  1.0000
  C   C959      1.0  0.52087  0.15305  0.69104  1.0000
  C   C960      1.0  0.55396  0.14381  0.75408  1.0000
  H   H1138     1.0  0.35061  0.18841  0.86157  1.0000
  C   C961      1.0  0.46337  0.08150  0.52236  1.0000
  C   C962      1.0  0.37957  0.21646  0.87780  1.0000
  H   H1139     1.0  0.33370  0.14905  0.96910  1.0000
  H   H1140     1.0  0.43925  0.21235  0.94770  1.0000
  H   H1141     1.0  0.39484  0.22500  0.88071  1.0000
  C   C963      1.0  0.62079  0.13423  0.64417  1.0000
  H   H1142     1.0  0.60295  0.14201  0.57455  1.0000
  S   S246      1.0  0.54872  0.12486  0.49633  1.0000
  H   H1143     1.0  0.36737  0.16702  0.91979  1.0000
  H   H1144     1.0  0.39459  0.22624  0.97119  1.0000
  H   H1145     1.0  0.33292  0.13867  0.92362  1.0000
  C   C964      1.0  0.60617  0.14104  0.64087  1.0000
  H   H1146     1.0  0.37671  0.21596  0.85628  1.0000
  C   C965      1.0  0.37308  0.18020  0.93039  1.0000
  C   C966      1.0  0.38567  0.21404  0.93269  1.0000
  C   C967      1.0  0.38824  0.21338  0.95974  1.0000
  N   N62       1.0  0.37452  0.19745  0.88857  1.0000
  C   C968      1.0  0.45023  0.10976  0.53253  1.0000
  H   H1147     1.0  0.60091  0.12428  0.68981  1.0000
  H   H1148     1.0  0.62106  0.12959  0.71111  1.0000
  C   C969      1.0  0.32235  0.14362  0.93015  1.0000
  C   C970      1.0  0.50214  0.20174  0.50106  1.0000
  C   C971      1.0  0.45436  0.08729  0.50162  1.0000
  H   H1149     1.0  0.47301  0.08543  0.56267  1.0000
  H   H1150     1.0  0.43970  0.20763  0.89972  1.0000
  H   H1151     1.0  0.46901  0.07083  0.51980  1.0000
  H   H1152     1.0  0.51626  0.18601  0.52039  1.0000
  C   C972      1.0  0.43702  0.22219  0.93451  1.0000
  Fe  Fe125     1.0  0.42562  0.24010  0.76074  1.0000
  C   C973      1.0  0.51281  0.00152  0.96841  1.0000
  H   H1153     1.0  0.63332  0.10639  0.65637  1.0000
  C   C974      1.0  0.62293  0.13418  0.59636  1.0000
  S   S247      1.0  0.49003  0.04457  0.50120  1.0000
  H   H1154     1.0  0.61808  0.14801  0.69358  1.0000
  C   C975      1.0  0.32410  0.17764  0.49520  1.0000
  H   H1155     1.0  0.37245  0.16652  0.96721  1.0000
  C   C976      1.0  0.37582  0.17973  0.95744  1.0000
  H   H1156     1.0  0.53897  0.02429  0.96151  1.0000
  C   C977      1.0  0.49417  0.99948  0.79203  1.0000
  H   H1157     1.0  0.32657  0.19021  0.48319  1.0000
  H   H1158     1.0  0.45534  0.21159  0.48245  1.0000
  C   C978      1.0  0.46758  0.99477  0.61164  1.0000
  C   C979      1.0  0.46576  0.20492  0.48311  1.0000
  H   H1159     1.0  0.31612  0.13434  0.72207  1.0000
  S   S248      1.0  0.46284  0.99409  0.70754  1.0000
  H   H1160     1.0  0.46074  0.00446  0.61479  1.0000
  H   H1161     1.0  0.45081  0.05176  0.48582  1.0000
  C   C980      1.0  0.48390  0.00851  0.48671  1.0000
  S   S249      1.0  0.50028  0.13288  0.48346  1.0000
  Fe  Fe126     1.0  0.42656  0.24135  0.82104  1.0000
  C   C981      1.0  0.64700  0.14130  0.67531  1.0000
  Fe  Fe127     1.0  0.49972  0.45431  0.25155  1.0000
  S   S250      1.0  0.52992  0.47023  0.26234  1.0000
  S   S251      1.0  0.48167  0.47112  0.24393  1.0000
  Fe  Fe128     1.0  0.50321  0.41587  0.25740  1.0000
  S   S252      1.0  0.53412  0.43037  0.26816  1.0000
  S   S253      1.0  0.49330  0.38375  0.25309  1.0000
  Fe  Fe129     1.0  0.52561  0.44928  0.29428  1.0000
  S   S254      1.0  0.52958  0.45972  0.33698  1.0000
  Fe  Fe130     1.0  0.53501  0.44989  0.23494  1.0000
  S   S255      1.0  0.55776  0.46026  0.20419  1.0000
  S   S256      1.0  0.49477  0.43406  0.28457  1.0000
  S   S257      1.0  0.50477  0.43461  0.22299  1.0000
  C   C982      1.0  0.53640  0.40345  0.40858  1.0000
  S   S258      1.0  0.57209  0.46073  0.44663  1.0000
  H   H1162     1.0  0.51190  0.37038  0.19947  1.0000
  Fe  Fe131     1.0  0.56686  0.48306  0.04461  1.0000
  H   H1163     1.0  0.48663  0.48774  0.11399  1.0000
  S   S259      1.0  0.58569  0.47551  0.01738  1.0000
  H   H1164     1.0  0.50322  0.48477  0.37045  1.0000
  S   S260      1.0  0.40014  0.25601  0.26612  1.0000
  Fe  Fe132     1.0  0.56706  0.47730  0.98357  1.0000
  S   S261      1.0  0.40941  0.25829  0.32912  1.0000
  H   H1165     1.0  0.49351  0.38918  0.16397  1.0000
  H   H1166     1.0  0.55732  0.44378  0.35332  1.0000
  Fe  Fe133     1.0  0.42347  0.27475  0.29366  1.0000
  S   S262      1.0  0.43248  0.30695  0.29676  1.0000
  S   S263      1.0  0.44207  0.25839  0.28820  1.0000
  H   H1167     1.0  0.46827  0.25391  0.18610  1.0000
  C   C983      1.0  0.51912  0.42316  0.41511  1.0000
  H   H1168     1.0  0.42819  0.25685  0.19934  1.0000
  H   H1169     1.0  0.43422  0.26465  0.15254  1.0000
  C   C984      1.0  0.53292  0.40614  0.20261  1.0000
  C   C985      1.0  0.51002  0.41754  0.39071  1.0000
  H   H1170     1.0  0.49869  0.47290  0.32928  1.0000
  H   H1171     1.0  0.43996  0.25852  0.38710  1.0000
  H   H1172     1.0  0.44091  0.26254  0.43537  1.0000
  C   C986      1.0  0.35374  0.47102  0.43162  1.0000
  C   C987      1.0  0.33625  0.45603  0.42691  1.0000
  C   C988      1.0  0.53162  0.40381  0.15421  1.0000
  C   C989      1.0  0.43857  0.24896  0.42690  1.0000
  H   H1173     1.0  0.36649  0.46836  0.43340  1.0000
  H   H1174     1.0  0.33581  0.44194  0.42509  1.0000
  C   C990      1.0  0.47625  0.36263  0.26570  1.0000
  C   C991      1.0  0.47669  0.34529  0.25798  1.0000
  C   C992      1.0  0.46355  0.32819  0.26720  1.0000
  C   C993      1.0  0.44965  0.32810  0.28438  1.0000
  C   C994      1.0  0.44928  0.34547  0.29218  1.0000
  C   C995      1.0  0.46239  0.36256  0.28292  1.0000
  H   H1175     1.0  0.48726  0.34501  0.24469  1.0000
  H   H1176     1.0  0.46413  0.31507  0.26096  1.0000
  H   H1177     1.0  0.43859  0.34566  0.30533  1.0000
  H   H1178     1.0  0.46158  0.37563  0.28887  1.0000
  C   C996      1.0  0.55509  0.46329  0.16994  1.0000
  C   C997      1.0  0.57111  0.47306  0.15544  1.0000
  C   C998      1.0  0.56979  0.47504  0.12810  1.0000
  C   C999      1.0  0.55242  0.46694  0.11474  1.0000
  C   C1000     1.0  0.53638  0.45731  0.12928  1.0000
  C   C1001     1.0  0.53765  0.45561  0.15665  1.0000
  H   H1179     1.0  0.50530  0.41291  0.17524  1.0000
  H   H1180     1.0  0.54626  0.47826  0.42927  1.0000
  H   H1181     1.0  0.52286  0.45094  0.11922  1.0000
  H   H1182     1.0  0.52519  0.44804  0.16737  1.0000
  C   C1002     1.0  0.54237  0.46040  0.36680  1.0000
  C   C1003     1.0  0.53947  0.47016  0.38850  1.0000
  C   C1004     1.0  0.54882  0.47084  0.41277  1.0000
  C   C1005     1.0  0.56112  0.46159  0.41582  1.0000
  C   C1006     1.0  0.56412  0.45190  0.39407  1.0000
  C   C1007     1.0  0.55486  0.45133  0.36970  1.0000
  H   H1183     1.0  0.52342  0.39896  0.08770  1.0000
  C   C1008     1.0  0.53227  0.41616  0.42401  1.0000
  H   H1184     1.0  0.57354  0.44463  0.39621  1.0000
  H   H1185     1.0  0.52981  0.39832  0.33053  1.0000
  H   H1186     1.0  0.53545  0.42127  0.20257  1.0000
  H   H1187     1.0  0.51265  0.40036  0.30810  1.0000
  H   H1188     1.0  0.49108  0.48000  0.46268  1.0000
  C   C1009     1.0  0.42647  0.24591  0.18506  1.0000
  C   C1010     1.0  0.32030  0.47738  0.42695  1.0000
  H   H1189     1.0  0.50049  0.42405  0.38480  1.0000
  N   N63       1.0  0.50465  0.39831  0.34840  1.0000
  H   H1190     1.0  0.54699  0.39841  0.41541  1.0000
  C   C1011     1.0  0.35465  0.48934  0.43413  1.0000
  C   C1012     1.0  0.49018  0.40596  0.34177  1.0000
  C   C1013     1.0  0.43801  0.24672  0.39952  1.0000
  H   H1191     1.0  0.49666  0.39417  0.19804  1.0000
  H   H1192     1.0  0.52532  0.40041  0.22077  1.0000
  S   S264      1.0  0.54976  0.46821  0.08009  1.0000
  H   H1193     1.0  0.51650  0.43357  0.42688  1.0000
  C   C1014     1.0  0.55801  0.42555  0.13002  1.0000
  H   H1194     1.0  0.47925  0.48976  0.15581  1.0000
  H   H1195     1.0  0.38214  0.48581  0.35688  1.0000
  H   H1196     1.0  0.49647  0.42151  0.34084  1.0000
  C   C1015     1.0  0.51379  0.40445  0.37451  1.0000
  C   C1016     1.0  0.53080  0.40422  0.10619  1.0000
  H   H1197     1.0  0.50881  0.38555  0.12853  1.0000
  H   H1198     1.0  0.57164  0.43701  0.13006  1.0000
  H   H1199     1.0  0.52984  0.47720  0.38669  1.0000
  C   C1017     1.0  0.51904  0.40448  0.32811  1.0000
  H   H1200     1.0  0.55461  0.42491  0.08819  1.0000
  H   H1201     1.0  0.48493  0.37232  0.36272  1.0000
  H   H1202     1.0  0.50540  0.37061  0.34892  1.0000
  H   H1203     1.0  0.48283  0.48076  0.31128  1.0000
  C   C1018     1.0  0.52734  0.39764  0.38420  1.0000
  C   C1019     1.0  0.49790  0.48323  0.31487  1.0000
  H   H1204     1.0  0.52658  0.41998  0.32883  1.0000
  H   H1205     1.0  0.47881  0.40177  0.35621  1.0000
  C   C1020     1.0  0.52254  0.39673  0.12969  1.0000
  H   H1206     1.0  0.54669  0.40469  0.20452  1.0000
  S   S265      1.0  0.54695  0.48183  0.01108  1.0000
  H   H1207     1.0  0.53239  0.37427  0.18047  1.0000
  N   N64       1.0  0.52207  0.39636  0.17882  1.0000
  H   H1208     1.0  0.53128  0.38802  0.37278  1.0000
  C   C1021     1.0  0.54843  0.41872  0.10638  1.0000
  C   C1022     1.0  0.50363  0.39824  0.17896  1.0000
  H   H1209     1.0  0.58469  0.47906  0.16542  1.0000
  C   C1023     1.0  0.54982  0.41831  0.15365  1.0000
  H   H1210     1.0  0.48335  0.40081  0.32225  1.0000
  C   C1024     1.0  0.51887  0.37631  0.18089  1.0000
  H   H1211     1.0  0.53976  0.42113  0.44255  1.0000
  H   H1212     1.0  0.50965  0.36769  0.16473  1.0000
  H   H1213     1.0  0.55785  0.42480  0.17117  1.0000
  C   C1025     1.0  0.42987  0.25028  0.15851  1.0000
  H   H1214     1.0  0.48766  0.37259  0.32793  1.0000
  C   C1026     1.0  0.49530  0.37761  0.34702  1.0000
  H   H1215     1.0  0.48426  0.48240  0.06703  1.0000
  C   C1027     1.0  0.31939  0.45904  0.42450  1.0000
  H   H1216     1.0  0.58227  0.48252  0.11734  1.0000
  H   H1217     1.0  0.50315  0.47968  0.29634  1.0000
  S   S266      1.0  0.43367  0.24263  0.10694  1.0000
  Fe  Fe134     1.0  0.50574  0.45311  0.76044  1.0000
  S   S267      1.0  0.53674  0.46823  0.76112  1.0000
  S   S268      1.0  0.48850  0.47126  0.75724  1.0000
  Fe  Fe135     1.0  0.50872  0.41476  0.76565  1.0000
  S   S269      1.0  0.54053  0.42861  0.76597  1.0000
  S   S270      1.0  0.49943  0.38274  0.77002  1.0000
  Fe  Fe136     1.0  0.53740  0.44962  0.79405  1.0000
  S   S271      1.0  0.55823  0.46564  0.82673  1.0000
  Fe  Fe137     1.0  0.53697  0.44610  0.73285  1.0000
  S   S272      1.0  0.55812  0.45763  0.70029  1.0000
  S   S273      1.0  0.50600  0.43542  0.79535  1.0000
  S   S274      1.0  0.50552  0.43128  0.73059  1.0000
  H   H1218     1.0  0.57895  0.48025  0.61218  1.0000
  S   S275      1.0  0.55313  0.45576  0.95072  1.0000
  H   H1219     1.0  0.43711  0.29681  0.73138  1.0000
  C   C1028     1.0  0.50998  0.48036  0.58935  1.0000
  C   C1029     1.0  0.31711  0.46619  0.92111  1.0000
  C   C1030     1.0  0.43153  0.24768  0.89988  1.0000
  H   H1220     1.0  0.46507  0.36635  0.83470  1.0000
  S   S276      1.0  0.40490  0.25396  0.75820  1.0000
  H   H1221     1.0  0.59641  0.47541  0.71811  1.0000
  S   S277      1.0  0.40637  0.25580  0.82230  1.0000
  H   H1222     1.0  0.51426  0.35409  0.84563  1.0000
  H   H1223     1.0  0.53259  0.43642  0.85954  1.0000
  Fe  Fe138     1.0  0.42331  0.27360  0.78973  1.0000
  S   S278      1.0  0.42961  0.30512  0.78783  1.0000
  S   S279      1.0  0.44476  0.26045  0.79075  1.0000
  C   C1031     1.0  0.46292  0.48732  0.52662  1.0000
  H   H1224     1.0  0.49517  0.32252  0.85941  1.0000
  C   C1032     1.0  0.47021  0.31620  0.70712  1.0000
  C   C1033     1.0  0.44697  0.28970  0.72799  1.0000
  H   H1225     1.0  0.47765  0.30377  0.89080  1.0000
  H   H1226     1.0  0.43055  0.30348  0.84451  1.0000
  H   H1227     1.0  0.47409  0.29369  0.84481  1.0000
  H   H1228     1.0  0.42817  0.28766  0.87044  1.0000
  H   H1229     1.0  0.45541  0.29524  0.82469  1.0000
  H   H1230     1.0  0.58276  0.47841  0.66033  1.0000
  C   C1034     1.0  0.33424  0.46578  0.91270  1.0000
  H   H1231     1.0  0.31824  0.46896  0.49058  1.0000
  H   H1232     1.0  0.57639  0.48452  0.74481  1.0000
  H   H1233     1.0  0.41114  0.24923  0.64958  1.0000
  H   H1234     1.0  0.33393  0.45485  0.89918  1.0000
  C   C1035     1.0  0.47973  0.36134  0.77490  1.0000
  C   C1036     1.0  0.48276  0.34459  0.77736  1.0000
  C   C1037     1.0  0.46772  0.32729  0.78113  1.0000
  C   C1038     1.0  0.44930  0.32644  0.78247  1.0000
  C   C1039     1.0  0.44625  0.34316  0.77995  1.0000
  C   C1040     1.0  0.46129  0.36046  0.77615  1.0000
  H   H1235     1.0  0.49692  0.34504  0.77640  1.0000
  H   H1236     1.0  0.47048  0.31472  0.78324  1.0000
  H   H1237     1.0  0.43211  0.34277  0.78099  1.0000
  H   H1238     1.0  0.45862  0.37311  0.77424  1.0000
  C   C1041     1.0  0.55449  0.45864  0.66582  1.0000
  C   C1042     1.0  0.56942  0.47025  0.65078  1.0000
  C   C1043     1.0  0.56730  0.47134  0.62341  1.0000
  C   C1044     1.0  0.55025  0.46064  0.61058  1.0000
  C   C1045     1.0  0.53532  0.44908  0.62564  1.0000
  C   C1046     1.0  0.53738  0.44809  0.65302  1.0000
  N   N65       1.0  0.45680  0.30627  0.86357  1.0000
  H   H1239     1.0  0.47815  0.28458  0.71663  1.0000
  S   S280      1.0  0.54668  0.46108  0.57601  1.0000
  H   H1240     1.0  0.52582  0.43894  0.66414  1.0000
  C   C1047     1.0  0.55636  0.46263  0.86114  1.0000
  C   C1048     1.0  0.56936  0.47623  0.87789  1.0000
  C   C1049     1.0  0.56860  0.47434  0.90528  1.0000
  C   C1050     1.0  0.55487  0.45874  0.91628  1.0000
  C   C1051     1.0  0.54191  0.44514  0.89952  1.0000
  C   C1052     1.0  0.54260  0.44707  0.87213  1.0000
  H   H1241     1.0  0.45886  0.26885  0.69767  1.0000
  C   C1053     1.0  0.49276  0.35495  0.71188  1.0000
  H   H1242     1.0  0.53127  0.43299  0.90780  1.0000
  H   H1243     1.0  0.45636  0.29240  0.74568  1.0000
  H   H1244     1.0  0.59913  0.45154  0.76518  1.0000
  H   H1245     1.0  0.50889  0.45704  0.85690  1.0000
  H   H1246     1.0  0.51990  0.47531  0.59857  1.0000
  H   H1247     1.0  0.50136  0.36973  0.71431  1.0000
  H   H1248     1.0  0.58015  0.48826  0.86963  1.0000
  H   H1249     1.0  0.51934  0.48707  0.93799  1.0000
  H   H1250     1.0  0.36467  0.47840  0.91529  1.0000
  H   H1251     1.0  0.47657  0.28737  0.68156  1.0000
  H   H1252     1.0  0.51860  0.47041  0.90029  1.0000
  C   C1054     1.0  0.46020  0.33865  0.84830  1.0000
  C   C1055     1.0  0.52165  0.48002  0.88429  1.0000
  C   C1056     1.0  0.61016  0.48553  0.80750  1.0000
  H   H1253     1.0  0.47439  0.48824  0.51339  1.0000
  C   C1057     1.0  0.51365  0.48847  0.56492  1.0000
  H   H1254     1.0  0.54148  0.48499  0.93231  1.0000
  Fe  Fe139     1.0  0.57363  0.47836  0.48361  1.0000
  S   S281      1.0  0.54844  0.47797  0.50519  1.0000
  H   H1255     1.0  0.52641  0.48959  0.55521  1.0000
  C   C1058     1.0  0.58963  0.45928  0.76401  1.0000
  H   H1256     1.0  0.49065  0.47187  0.62056  1.0000
  C   C1059     1.0  0.58718  0.48929  0.76102  1.0000
  Fe  Fe140     1.0  0.56456  0.47826  0.54281  1.0000
  S   S282      1.0  0.43580  0.24275  0.97862  1.0000
  H   H1257     1.0  0.49344  0.47643  0.69636  1.0000
  H   H1258     1.0  0.58144  0.45654  0.78218  1.0000
  H   H1259     1.0  0.44720  0.32558  0.71291  1.0000
  H   H1260     1.0  0.44524  0.33520  0.84764  1.0000
  H   H1261     1.0  0.49757  0.31387  0.70316  1.0000
  C   C1060     1.0  0.46298  0.30303  0.89012  1.0000
  C   C1061     1.0  0.46217  0.32968  0.71107  1.0000
  H   H1262     1.0  0.43833  0.27443  0.72694  1.0000
  C   C1062     1.0  0.49086  0.36223  0.83984  1.0000
  C   C1063     1.0  0.48807  0.33171  0.85451  1.0000
  C   C1064     1.0  0.43180  0.25059  0.92713  1.0000
  C   C1065     1.0  0.50286  0.48534  0.68219  1.0000
  H   H1263     1.0  0.45418  0.28892  0.89730  1.0000
  C   C1066     1.0  0.45935  0.29273  0.84496  1.0000
  H   H1264     1.0  0.46694  0.35880  0.71669  1.0000
  C   C1067     1.0  0.49916  0.34976  0.84671  1.0000
  H   H1265     1.0  0.45056  0.27800  0.84981  1.0000
  H   H1266     1.0  0.42985  0.26275  0.93482  1.0000
  H   H1267     1.0  0.61761  0.47426  0.73096  1.0000
  H   H1268     1.0  0.57918  0.45286  0.74774  1.0000
  C   C1068     1.0  0.46822  0.32557  0.85556  1.0000
  H   H1269     1.0  0.52209  0.44066  0.61599  1.0000
  H   H1270     1.0  0.45262  0.29898  0.66330  1.0000
  H   H1271     1.0  0.49942  0.37607  0.83310  1.0000
  C   C1069     1.0  0.49013  0.32300  0.70588  1.0000
  H   H1272     1.0  0.43499  0.30065  0.68430  1.0000
  C   C1070     1.0  0.46847  0.28383  0.69979  1.0000
  H   H1273     1.0  0.43334  0.31171  0.87817  1.0000
  C   C1071     1.0  0.47146  0.35671  0.84076  1.0000
  C   C1072     1.0  0.50115  0.34211  0.70833  1.0000
  H   H1274     1.0  0.43597  0.27851  0.67770  1.0000
  H   H1275     1.0  0.51632  0.34707  0.70768  1.0000
  C   C1073     1.0  0.44484  0.29349  0.68142  1.0000
  N   N66       1.0  0.45798  0.29614  0.70413  1.0000
  H   H1276     1.0  0.46216  0.31356  0.90445  1.0000
  S   S283      1.0  0.58868  0.47568  0.52113  1.0000
  C   C1074     1.0  0.43635  0.30220  0.86422  1.0000
  C   C1075     1.0  0.47332  0.34875  0.71316  1.0000
  H   H1277     1.0  0.42927  0.25744  0.88667  1.0000
  H   H1278     1.0  0.45563  0.47229  0.53127  1.0000
  H   H1279     1.0  0.41589  0.24685  0.69737  1.0000
  C   C1076     1.0  0.60784  0.48159  0.73325  1.0000
  H   H1280     1.0  0.31767  0.45980  0.52268  1.0000
  H   H1281     1.0  0.57882  0.48478  0.91789  1.0000
  H   H1282     1.0  0.46773  0.48219  0.59990  1.0000
  C   C1077     1.0  0.35176  0.47918  0.92180  1.0000
  H   H1283     1.0  0.50537  0.24386  0.49267  1.0000
  H   H1284     1.0  0.51931  0.46844  0.68002  1.0000
  C   C1078     1.0  0.51591  0.47207  0.85933  1.0000
  C   C1079     1.0  0.51989  0.48324  0.83737  1.0000
  H   H1285     1.0  0.51587  0.47691  0.81803  1.0000
  C   C1080     1.0  0.48037  0.48444  0.58945  1.0000
  C   C1081     1.0  0.31783  0.48040  0.93869  1.0000
  H   H1286     1.0  0.54099  0.48858  0.64790  1.0000
  N   N67       1.0  0.60034  0.47952  0.76001  1.0000
  C   C1082     1.0  0.49343  0.47839  0.60162  1.0000
  H   H1287     1.0  0.48019  0.48054  0.86733  1.0000
  H   H1288     1.0  0.44495  0.48251  0.57088  1.0000
  C   C1083     1.0  0.51743  0.48079  0.67300  1.0000
  H   H1289     1.0  0.48599  0.48177  0.97724  1.0000
  H   H1290     1.0  0.59573  0.47866  0.81304  1.0000
  H   H1291     1.0  0.57937  0.48670  0.77953  1.0000
  C   C1084     1.0  0.61507  0.48717  0.78085  1.0000
  H   H1292     1.0  0.48147  0.24213  0.49488  1.0000
  H   H1293     1.0  0.61948  0.49120  0.84779  1.0000
  Fe  Fe141     1.0  0.50041  0.57398  0.20558  1.0000
  S   S284      1.0  0.46930  0.55877  0.20266  1.0000
  S   S285      1.0  0.51830  0.55696  0.21304  1.0000
  Fe  Fe142     1.0  0.49814  0.61243  0.19595  1.0000
  S   S286      1.0  0.46639  0.59856  0.19229  1.0000
  S   S287      1.0  0.50791  0.64473  0.19514  1.0000
  Fe  Fe143     1.0  0.46822  0.58215  0.22769  1.0000
  S   S288      1.0  0.44772  0.57797  0.26094  1.0000
  Fe  Fe144     1.0  0.47066  0.57642  0.16751  1.0000
  S   S289      1.0  0.45357  0.55803  0.13322  1.0000
  S   S290      1.0  0.49952  0.59673  0.23253  1.0000
  S   S291      1.0  0.50217  0.59083  0.16914  1.0000
  C   C1085     1.0  0.51472  0.53494  0.98523  1.0000
  S   S292      1.0  0.58305  0.51416  0.04126  1.0000
  Fe  Fe145     1.0  0.56364  0.51217  0.00650  1.0000
  H   H1294     1.0  0.56618  0.71838  0.08445  1.0000
  Fe  Fe146     1.0  0.60112  0.50682  0.01251  1.0000
  S   S293      1.0  0.63340  0.51754  0.00917  1.0000
  Fe  Fe147     1.0  0.40857  0.51852  0.44543  1.0000
  S   S294      1.0  0.42337  0.55001  0.44261  1.0000
  S   S295      1.0  0.37629  0.50901  0.43985  1.0000
  Fe  Fe148     1.0  0.44675  0.51470  0.45367  1.0000
  S   S296      1.0  0.46292  0.54534  0.45071  1.0000
  C   C1086     1.0  0.39044  0.53981  0.05708  1.0000
  H   H1295     1.0  0.53409  0.52958  0.22201  1.0000
  S   S297      1.0  0.44813  0.57305  0.01149  1.0000
  Fe  Fe149     1.0  0.44363  0.54414  0.41644  1.0000
  S   S298      1.0  0.45904  0.55717  0.37920  1.0000
  H   H1296     1.0  0.54191  0.49397  0.15722  1.0000
  S   S299      1.0  0.42842  0.51293  0.41794  1.0000
  S   S300      1.0  0.57774  0.72186  0.17362  1.0000
  H   H1297     1.0  0.50683  0.54055  0.14065  1.0000
  C   C1087     1.0  0.36936  0.51346  0.36194  1.0000
  H   H1298     1.0  0.47860  0.61310  0.26215  1.0000
  C   C1088     1.0  0.54329  0.54028  0.12753  1.0000
  H   H1299     1.0  0.37173  0.51486  0.07646  1.0000
  H   H1300     1.0  0.48282  0.63121  0.23909  1.0000
  H   H1301     1.0  0.49486  0.51350  0.29473  1.0000
  C   C1089     1.0  0.54420  0.53847  0.15466  1.0000
  H   H1302     1.0  0.42410  0.51891  0.34348  1.0000
  H   H1303     1.0  0.52232  0.72841  0.08447  1.0000
  C   C1090     1.0  0.49154  0.50061  0.39290  1.0000
  N   N68       1.0  0.38446  0.53229  0.03021  1.0000
  H   H1304     1.0  0.53594  0.71910  0.06507  1.0000
  C   C1091     1.0  0.50068  0.50726  0.34724  1.0000
  C   C1092     1.0  0.52777  0.66601  0.18990  1.0000
  C   C1093     1.0  0.52543  0.68318  0.19129  1.0000
  C   C1094     1.0  0.54047  0.70036  0.18668  1.0000
  C   C1095     1.0  0.55820  0.70070  0.18059  1.0000
  C   C1096     1.0  0.56057  0.68354  0.17940  1.0000
  C   C1097     1.0  0.54554  0.66636  0.18406  1.0000
  H   H1305     1.0  0.51179  0.68319  0.19570  1.0000
  H   H1306     1.0  0.53829  0.71332  0.18778  1.0000
  H   H1307     1.0  0.57417  0.68352  0.17477  1.0000
  H   H1308     1.0  0.54771  0.65340  0.18292  1.0000
  C   C1098     1.0  0.45354  0.56254  0.09924  1.0000
  C   C1099     1.0  0.44446  0.54748  0.08171  1.0000
  C   C1100     1.0  0.44347  0.55036  0.05467  1.0000
  C   C1101     1.0  0.45102  0.56846  0.04491  1.0000
  C   C1102     1.0  0.46012  0.58352  0.06242  1.0000
  C   C1103     1.0  0.46161  0.58057  0.08940  1.0000
  H   H1309     1.0  0.43797  0.53349  0.08912  1.0000
  H   H1310     1.0  0.43638  0.53866  0.04150  1.0000
  H   H1311     1.0  0.46596  0.59758  0.05507  1.0000
  H   H1312     1.0  0.46855  0.59230  0.10262  1.0000
  C   C1104     1.0  0.45102  0.57201  0.29368  1.0000
  C   C1105     1.0  0.43722  0.57047  0.31202  1.0000
  C   C1106     1.0  0.43928  0.56576  0.33817  1.0000
  C   C1107     1.0  0.45523  0.56259  0.34635  1.0000
  C   C1108     1.0  0.46918  0.56451  0.32811  1.0000
  C   C1109     1.0  0.46708  0.56908  0.30192  1.0000
  H   H1313     1.0  0.42482  0.57288  0.30594  1.0000
  H   H1314     1.0  0.42872  0.56496  0.35206  1.0000
  H   H1315     1.0  0.48174  0.56242  0.33426  1.0000
  H   H1316     1.0  0.47790  0.57038  0.28816  1.0000
  C   C1110     1.0  0.50798  0.53340  0.22309  1.0000
  C   C1111     1.0  0.48886  0.52478  0.22833  1.0000
  C   C1112     1.0  0.48099  0.50572  0.23465  1.0000
  H   H1317     1.0  0.48957  0.50846  0.17853  1.0000
  C   C1113     1.0  0.51129  0.50371  0.23079  1.0000
  C   C1114     1.0  0.51919  0.52285  0.22499  1.0000
  H   H1318     1.0  0.48009  0.53274  0.22776  1.0000
  H   H1319     1.0  0.48864  0.67594  0.12809  1.0000
  H   H1320     1.0  0.51557  0.64065  0.24911  1.0000
  C   C1115     1.0  0.38868  0.53506  0.10450  1.0000
  H   H1321     1.0  0.46627  0.62862  0.26412  1.0000
  N   N69       1.0  0.38923  0.51546  0.35993  1.0000
  C   C1116     1.0  0.52900  0.53685  0.07287  1.0000
  H   H1322     1.0  0.42140  0.57783  0.09162  1.0000
  C   C1117     1.0  0.48845  0.50487  0.15731  1.0000
  C   C1118     1.0  0.40436  0.55796  0.06243  1.0000
  H   H1323     1.0  0.52560  0.64945  0.28052  1.0000
  H   H1324     1.0  0.48624  0.62464  0.38014  1.0000
  C   C1119     1.0  0.49886  0.49646  0.37005  1.0000
  S   S301      1.0  0.54779  0.53135  0.99958  1.0000
  H   H1325     1.0  0.56576  0.55414  0.08368  1.0000
  C   C1120     1.0  0.52343  0.52243  0.99094  1.0000
  H   H1326     1.0  0.54527  0.52057  0.18608  1.0000
  N   N70       1.0  0.54192  0.52778  0.08158  1.0000
  H   H1327     1.0  0.53738  0.51961  0.33578  1.0000
  C   C1121     1.0  0.49624  0.52460  0.47687  1.0000
  C   C1122     1.0  0.51176  0.66709  0.12725  1.0000
  H   H1328     1.0  0.39021  0.53926  0.98969  1.0000
  H   H1329     1.0  0.54465  0.55377  0.12029  1.0000
  H   H1330     1.0  0.51290  0.62482  0.27557  1.0000
  H   H1331     1.0  0.39278  0.55867  0.01044  1.0000
  C   C1123     1.0  0.39041  0.49797  0.36976  1.0000
  H   H1332     1.0  0.57156  0.53395  0.08169  1.0000
  H   H1333     1.0  0.36749  0.52653  0.35657  1.0000
  H   H1334     1.0  0.51335  0.65214  0.36587  1.0000
  N   N71       1.0  0.48073  0.51658  0.14184  1.0000
  C   C1124     1.0  0.51652  0.50143  0.47843  1.0000
  H   H1335     1.0  0.48306  0.53817  0.37263  1.0000
  C   C1125     1.0  0.53669  0.72881  0.08159  1.0000
  C   C1126     1.0  0.48020  0.51305  0.11327  1.0000
  C   C1127     1.0  0.47558  0.52474  0.09558  1.0000
  H   H1336     1.0  0.39603  0.52926  0.39775  1.0000
  H   H1337     1.0  0.46620  0.49922  0.23870  1.0000
  C   C1128     1.0  0.56129  0.53993  0.07471  1.0000
  C   C1129     1.0  0.48741  0.52646  0.37174  1.0000
  C   C1130     1.0  0.39643  0.51899  0.33313  1.0000
  H   H1338     1.0  0.38437  0.50922  0.00607  1.0000
  H   H1339     1.0  0.54703  0.50343  0.06921  1.0000
  H   H1340     1.0  0.55019  0.73286  0.14564  1.0000
  C   C1131     1.0  0.48742  0.50597  0.46838  1.0000
  H   H1341     1.0  0.51789  0.52994  0.30574  1.0000
  H   H1342     1.0  0.57228  0.72534  0.11836  1.0000
  N   N72       1.0  0.50891  0.50282  0.32353  1.0000
  N   N73       1.0  0.54484  0.72380  0.10551  1.0000
  H   H1343     1.0  0.47253  0.53643  0.10256  1.0000
  H   H1344     1.0  0.36445  0.51049  0.38238  1.0000
  C   C1132     1.0  0.56483  0.72749  0.10052  1.0000
  H   H1345     1.0  0.37830  0.50321  0.03891  1.0000
  C   C1133     1.0  0.46140  0.51260  0.15049  1.0000
  C   C1134     1.0  0.42241  0.52452  0.30323  1.0000
  H   H1346     1.0  0.45198  0.49784  0.14602  1.0000
  H   H1347     1.0  0.41799  0.53166  0.26387  1.0000
  H   H1348     1.0  0.46283  0.60472  0.34764  1.0000
  C   C1135     1.0  0.38749  0.51463  0.02661  1.0000
  H   H1349     1.0  0.45508  0.52167  0.14073  1.0000
  C   C1136     1.0  0.47458  0.61686  0.34125  1.0000
  C   C1137     1.0  0.49461  0.52240  0.34873  1.0000
  C   C1138     1.0  0.54193  0.50679  0.14885  1.0000
  H   H1350     1.0  0.53735  0.66236  0.12617  1.0000
  H   H1351     1.0  0.50920  0.67065  0.28260  1.0000
  C   C1139     1.0  0.50343  0.68004  0.12423  1.0000
  H   H1352     1.0  0.33824  0.50645  0.43357  1.0000
  H   H1353     1.0  0.53012  0.73566  0.13104  1.0000
  H   H1354     1.0  0.40788  0.55745  0.12873  1.0000
  C   C1140     1.0  0.41183  0.52769  0.28282  1.0000
  H   H1355     1.0  0.41143  0.56743  0.04720  1.0000
  C   C1141     1.0  0.40081  0.53131  0.37730  1.0000
  H   H1356     1.0  0.48408  0.66202  0.27830  1.0000
  H   H1357     1.0  0.55660  0.69390  0.11412  1.0000
  H   H1358     1.0  0.51466  0.52924  0.08003  1.0000
  H   H1359     1.0  0.35940  0.52290  0.00548  1.0000
  H   H1360     1.0  0.52258  0.49960  0.07227  1.0000
  C   C1142     1.0  0.54071  0.50834  0.12179  1.0000
  H   H1361     1.0  0.40231  0.51674  0.03155  1.0000
  H   H1362     1.0  0.47658  0.50365  0.03735  1.0000
  C   C1143     1.0  0.53084  0.67236  0.12297  1.0000
  H   H1363     1.0  0.49877  0.66306  0.25104  1.0000
  S   S302      1.0  0.42475  0.52047  0.98315  1.0000
  S   S303      1.0  0.46326  0.49612  0.45879  1.0000
  C   C1144     1.0  0.53369  0.70421  0.11250  1.0000
  C   C1145     1.0  0.41029  0.56421  0.08804  1.0000
  C   C1146     1.0  0.54378  0.52182  0.16521  1.0000
  C   C1147     1.0  0.51278  0.50323  0.98854  1.0000
  H   H1364     1.0  0.36127  0.54118  0.02869  1.0000
  H   H1365     1.0  0.53558  0.51179  0.04519  1.0000
  H   H1366     1.0  0.47084  0.53060  0.05550  1.0000
  H   H1367     1.0  0.50355  0.65308  0.13370  1.0000
  C   C1148     1.0  0.48779  0.62807  0.35961  1.0000
  C   C1149     1.0  0.51417  0.69832  0.11692  1.0000
  C   C1150     1.0  0.47764  0.50625  0.05833  1.0000
  C   C1151     1.0  0.54143  0.52521  0.11022  1.0000
  H   H1368     1.0  0.54570  0.55016  0.16764  1.0000
  H   H1369     1.0  0.51750  0.65957  0.31960  1.0000
  H   H1370     1.0  0.48631  0.54629  0.14085  1.0000
  H   H1371     1.0  0.40004  0.54464  0.37073  1.0000
  H   H1372     1.0  0.35520  0.51758  0.03913  1.0000
  C   C1152     1.0  0.54177  0.69064  0.11592  1.0000
  H   H1373     1.0  0.52955  0.49584  0.34560  1.0000
  C   C1153     1.0  0.38587  0.52200  0.31175  1.0000
  H   H1374     1.0  0.48029  0.51886  0.41155  1.0000
  C   C1154     1.0  0.38253  0.52870  0.07897  1.0000
  C   C1155     1.0  0.39489  0.54526  0.00965  1.0000
  H   H1375     1.0  0.52274  0.54983  0.98708  1.0000
  C   C1156     1.0  0.40268  0.55272  0.10900  1.0000
  C   C1157     1.0  0.50304  0.64351  0.35150  1.0000
  C   C1158     1.0  0.53649  0.50988  0.06656  1.0000
  H   H1376     1.0  0.46581  0.61153  0.30163  1.0000
  H   H1377     1.0  0.50713  0.70794  0.11535  1.0000
  H   H1378     1.0  0.52793  0.53725  0.05111  1.0000
  C   C1159     1.0  0.54450  0.73643  0.12718  1.0000
  N   N74       1.0  0.49532  0.64059  0.27760  1.0000
  C   C1160     1.0  0.49691  0.65992  0.27227  1.0000
  C   C1161     1.0  0.51310  0.63882  0.27044  1.0000
  C   C1162     1.0  0.48007  0.62784  0.26008  1.0000
  C   C1163     1.0  0.49209  0.63647  0.30567  1.0000
  C   C1164     1.0  0.47655  0.62095  0.31468  1.0000
  C   C1165     1.0  0.50523  0.64768  0.32496  1.0000
  C   C1166     1.0  0.39358  0.52633  0.28702  1.0000
  H   H1379     1.0  0.41589  0.53335  0.37794  1.0000
  Fe  Fe150     1.0  0.44129  0.54797  0.47722  1.0000
  H   H1380     1.0  0.41019  0.54834  0.01134  1.0000
  C   C1167     1.0  0.49250  0.53644  0.14837  1.0000
  H   H1381     1.0  0.53377  0.55165  0.07956  1.0000
  H   H1382     1.0  0.64199  0.55088  0.04347  1.0000
  C   C1168     1.0  0.50928  0.51498  0.30111  1.0000
  H   H1383     1.0  0.46115  0.51510  0.17192  1.0000
  H   H1384     1.0  0.50283  0.50686  0.15124  1.0000
  C   C1169     1.0  0.36421  0.52833  0.02576  1.0000
  H   H1385     1.0  0.56267  0.54168  0.05318  1.0000
  H   H1386     1.0  0.49532  0.53140  0.33249  1.0000
  H   H1387     1.0  0.53512  0.50124  0.31244  1.0000
  H   H1388     1.0  0.43680  0.52612  0.30009  1.0000
  H   H1389     1.0  0.53977  0.49624  0.11036  1.0000
  C   C1170     1.0  0.48586  0.51561  0.39375  1.0000
  C   C1171     1.0  0.52856  0.50501  0.32957  1.0000
  C   C1172     1.0  0.47444  0.52143  0.06857  1.0000
  H   H1390     1.0  0.49404  0.53909  0.16985  1.0000
  H   H1391     1.0  0.38279  0.52617  0.12091  1.0000
  C   C1173     1.0  0.41494  0.52035  0.32805  1.0000
  H   H1392     1.0  0.38490  0.49484  0.38985  1.0000
  C   C1174     1.0  0.49213  0.49504  0.23580  1.0000
  H   H1393     1.0  0.38549  0.52899  0.27107  1.0000
  H   H1394     1.0  0.37174  0.52137  0.31367  1.0000
  C   C1175     1.0  0.49772  0.49446  0.46910  1.0000
  H   H1395     1.0  0.40503  0.49866  0.37102  1.0000
  H   H1396     1.0  0.51906  0.49334  0.99301  1.0000
  C   C1176     1.0  0.48202  0.49434  0.07511  1.0000
  H   H1397     1.0  0.35976  0.50165  0.34949  1.0000
  C   C1177     1.0  0.48333  0.49761  0.10218  1.0000
  H   H1398     1.0  0.52008  0.49573  0.23145  1.0000
  H   H1399     1.0  0.51570  0.51127  0.28382  1.0000
  H   H1400     1.0  0.48850  0.53358  0.47699  1.0000
  H   H1401     1.0  0.52421  0.49238  0.47876  1.0000
  C   C1178     1.0  0.33778  0.49236  0.43173  1.0000
  H   H1402     1.0  0.49032  0.49225  0.41017  1.0000
  Fe  Fe151     1.0  0.50378  0.57242  0.71216  1.0000
  S   S304      1.0  0.47373  0.55478  0.70389  1.0000
  S   S305      1.0  0.52243  0.55705  0.72480  1.0000
  Fe  Fe152     1.0  0.49777  0.60857  0.69969  1.0000
  S   S306      1.0  0.46655  0.59197  0.69164  1.0000
  S   S307      1.0  0.50661  0.64058  0.69510  1.0000
  Fe  Fe153     1.0  0.46770  0.57593  0.72801  1.0000
  S   S308      1.0  0.44535  0.56179  0.75823  1.0000
  Fe  Fe154     1.0  0.47573  0.57221  0.66842  1.0000
  S   S309      1.0  0.46352  0.55347  0.63196  1.0000
  S   S310      1.0  0.49803  0.59346  0.73748  1.0000
  S   S311      1.0  0.50666  0.58903  0.67525  1.0000
  C   C1179     1.0  0.60963  0.55585  0.50524  1.0000
  S   S312      1.0  0.57803  0.50949  0.54535  1.0000
  Fe  Fe155     1.0  0.56342  0.50905  0.50669  1.0000
  H   H1403     1.0  0.38628  0.51307  0.89732  1.0000
  Fe  Fe156     1.0  0.60163  0.50732  0.52195  1.0000
  S   S313      1.0  0.63176  0.52304  0.53901  1.0000
  Fe  Fe157     1.0  0.40627  0.52068  0.94819  1.0000
  S   S314      1.0  0.41988  0.55206  0.94498  1.0000
  S   S315      1.0  0.37407  0.51103  0.95133  1.0000
  Fe  Fe158     1.0  0.44533  0.51850  0.95395  1.0000
  S   S316      1.0  0.46066  0.54933  0.95067  1.0000
  H   H1404     1.0  0.41052  0.57195  0.78775  1.0000
  H   H1405     1.0  0.48391  0.53034  0.73286  1.0000
  S   S317      1.0  0.45169  0.56908  0.51136  1.0000
  Fe  Fe159     1.0  0.43999  0.54703  0.91772  1.0000
  S   S318      1.0  0.45160  0.56598  0.88297  1.0000
  H   H1406     1.0  0.48458  0.52819  0.56068  1.0000
  S   S319      1.0  0.42566  0.51568  0.91908  1.0000
  S   S320      1.0  0.57787  0.71710  0.67697  1.0000
  H   H1407     1.0  0.60914  0.59311  0.53998  1.0000
  C   C1180     1.0  0.49043  0.55221  0.81785  1.0000
  H   H1408     1.0  0.52709  0.49770  0.74786  1.0000
  H   H1409     1.0  0.36804  0.52260  0.81579  1.0000
  H   H1410     1.0  0.46924  0.52375  0.53230  1.0000
  C   C1181     1.0  0.50484  0.53156  0.80369  1.0000
  S   S321      1.0  0.54849  0.52895  0.50082  1.0000
  H   H1411     1.0  0.53665  0.73862  0.58415  1.0000
  C   C1182     1.0  0.55560  0.72684  0.61855  1.0000
  N   N75       1.0  0.54308  0.71521  0.59728  1.0000
  C   C1183     1.0  0.37310  0.54017  0.89022  1.0000
  H   H1412     1.0  0.51188  0.64429  0.63118  1.0000
  H   H1413     1.0  0.51996  0.71628  0.57359  1.0000
  C   C1184     1.0  0.52140  0.67321  0.75286  1.0000
  C   C1185     1.0  0.52666  0.66154  0.68937  1.0000
  C   C1186     1.0  0.52401  0.67837  0.68533  1.0000
  C   C1187     1.0  0.53936  0.69540  0.68129  1.0000
  C   C1188     1.0  0.55773  0.69595  0.68140  1.0000
  C   C1189     1.0  0.56037  0.67912  0.68529  1.0000
  C   C1190     1.0  0.54501  0.66206  0.68919  1.0000
  H   H1414     1.0  0.50993  0.67820  0.68539  1.0000
  H   H1415     1.0  0.53695  0.70805  0.67820  1.0000
  H   H1416     1.0  0.57446  0.67927  0.68540  1.0000
  H   H1417     1.0  0.54738  0.64935  0.69229  1.0000
  C   C1191     1.0  0.46044  0.55839  0.59859  1.0000
  C   C1192     1.0  0.45089  0.54337  0.58121  1.0000
  C   C1193     1.0  0.44833  0.54634  0.55447  1.0000
  C   C1194     1.0  0.45514  0.56448  0.54476  1.0000
  C   C1195     1.0  0.46462  0.57953  0.56217  1.0000
  C   C1196     1.0  0.46734  0.57653  0.58888  1.0000
  H   H1418     1.0  0.44503  0.52938  0.58867  1.0000
  H   H1419     1.0  0.44068  0.53468  0.54148  1.0000
  H   H1420     1.0  0.46985  0.59362  0.55493  1.0000
  H   H1421     1.0  0.47465  0.58825  0.60195  1.0000
  C   C1197     1.0  0.44858  0.56241  0.79280  1.0000
  C   C1198     1.0  0.46064  0.57851  0.80616  1.0000
  C   C1199     1.0  0.46136  0.57923  0.83372  1.0000
  C   C1200     1.0  0.45039  0.56375  0.84832  1.0000
  C   C1201     1.0  0.43877  0.54739  0.83499  1.0000
  C   C1202     1.0  0.43766  0.54687  0.80738  1.0000
  H   H1422     1.0  0.46894  0.59066  0.79527  1.0000
  H   H1423     1.0  0.47039  0.59195  0.84380  1.0000
  H   H1424     1.0  0.43023  0.53538  0.84588  1.0000
  H   H1425     1.0  0.42807  0.53444  0.79724  1.0000
  C   C1203     1.0  0.51272  0.53303  0.73297  1.0000
  C   C1204     1.0  0.52475  0.52356  0.73746  1.0000
  C   C1205     1.0  0.51758  0.50465  0.74461  1.0000
  H   H1426     1.0  0.51716  0.53693  0.81751  1.0000
  H   H1427     1.0  0.49557  0.51982  0.61305  1.0000
  C   C1206     1.0  0.49339  0.52330  0.73573  1.0000
  H   H1428     1.0  0.53972  0.53087  0.73540  1.0000
  H   H1429     1.0  0.64077  0.56767  0.56652  1.0000
  C   C1207     1.0  0.52941  0.50249  0.84026  1.0000
  H   H1430     1.0  0.48073  0.54466  0.86506  1.0000
  C   C1208     1.0  0.63444  0.49666  0.77557  1.0000
  C   C1209     1.0  0.51690  0.70244  0.75307  1.0000
  H   H1431     1.0  0.56257  0.70867  0.74209  1.0000
  H   H1432     1.0  0.50787  0.54466  0.61252  1.0000
  H   H1433     1.0  0.54943  0.67512  0.74634  1.0000
  C   C1210     1.0  0.48622  0.50440  0.74287  1.0000
  C   C1211     1.0  0.39178  0.52229  0.88036  1.0000
  C   C1212     1.0  0.53684  0.73442  0.91964  1.0000
  C   C1213     1.0  0.64467  0.59146  0.50948  1.0000
  H   H1434     1.0  0.56792  0.73680  0.94495  1.0000
  H   H1435     1.0  0.56640  0.51030  0.90786  1.0000
  C   C1214     1.0  0.51436  0.68587  0.60673  1.0000
  H   H1436     1.0  0.49618  0.54897  0.65379  1.0000
  H   H1437     1.0  0.53343  0.54700  0.67634  1.0000
  H   H1438     1.0  0.36376  0.54694  0.88229  1.0000
  H   H1439     1.0  0.36301  0.50275  0.84938  1.0000
  H   H1440     1.0  0.40490  0.53394  0.88723  1.0000
  C   C1215     1.0  0.51802  0.65833  0.62362  1.0000
  H   H1441     1.0  0.49107  0.52135  0.53008  1.0000
  H   H1442     1.0  0.53760  0.51692  0.63281  1.0000
  H   H1443     1.0  0.49316  0.55916  0.79853  1.0000
  C   C1216     1.0  0.40141  0.55843  0.85066  1.0000
  C   C1217     1.0  0.36031  0.51273  0.86283  1.0000
  H   H1444     1.0  0.50413  0.50043  0.53337  1.0000
  H   H1445     1.0  0.51707  0.73481  0.73108  1.0000
  H   H1446     1.0  0.59475  0.50466  0.75940  1.0000
  C   C1218     1.0  0.63518  0.57932  0.52970  1.0000
  H   H1447     1.0  0.54242  0.52561  0.86637  1.0000
  C   C1219     1.0  0.47916  0.51887  0.54319  1.0000
  C   C1220     1.0  0.37949  0.53563  0.82070  1.0000
  C   C1221     1.0  0.40985  0.56956  0.82955  1.0000
  S   S322      1.0  0.46185  0.50010  0.96070  1.0000
  N   N76       1.0  0.47001  0.49898  0.55062  1.0000
  C   C1222     1.0  0.55447  0.71609  0.57405  1.0000
  H   H1448     1.0  0.46945  0.50798  0.79348  1.0000
  C   C1223     1.0  0.50891  0.53141  0.61914  1.0000
  H   H1449     1.0  0.36581  0.53118  0.90667  1.0000
  H   H1450     1.0  0.39584  0.51413  0.86541  1.0000
  C   C1224     1.0  0.52942  0.72383  0.59027  1.0000
  H   H1451     1.0  0.56462  0.73468  0.71738  1.0000
  H   H1452     1.0  0.52793  0.73737  0.77723  1.0000
  H   H1453     1.0  0.54194  0.54706  0.64408  1.0000
  C   C1225     1.0  0.47780  0.52123  0.88798  1.0000
  H   H1454     1.0  0.52902  0.56118  0.65165  1.0000
  C   C1226     1.0  0.51321  0.51379  0.65603  1.0000
  H   H1455     1.0  0.49483  0.67534  0.75831  1.0000
  H   H1456     1.0  0.56786  0.72301  0.62279  1.0000
  H   H1457     1.0  0.53128  0.53246  0.90531  1.0000
  H   H1458     1.0  0.64693  0.54505  0.49189  1.0000
  H   H1459     1.0  0.58943  0.57499  0.52376  1.0000
  H   H1460     1.0  0.54448  0.72592  0.91195  1.0000
  C   C1227     1.0  0.47130  0.52266  0.79804  1.0000
  H   H1461     1.0  0.40773  0.56318  0.86983  1.0000
  H   H1462     1.0  0.54793  0.72539  0.63702  1.0000
  H   H1463     1.0  0.61508  0.49654  0.72817  1.0000
  C   C1228     1.0  0.53417  0.69562  0.60586  1.0000
  C   C1229     1.0  0.52987  0.54736  0.65518  1.0000
  H   H1464     1.0  0.53413  0.52890  0.93922  1.0000
  H   H1465     1.0  0.35411  0.50455  0.88046  1.0000
  C   C1230     1.0  0.53612  0.71266  0.74782  1.0000
  C   C1231     1.0  0.55891  0.51936  0.91389  1.0000
  H   H1466     1.0  0.52041  0.52966  0.60820  1.0000
  H   H1467     1.0  0.47124  0.49707  0.74490  1.0000
  H   H1468     1.0  0.51565  0.65806  0.75360  1.0000
  H   H1469     1.0  0.50300  0.51723  0.79717  1.0000
  H   H1470     1.0  0.49139  0.66038  0.61660  1.0000
  H   H1471     1.0  0.55067  0.73525  0.96867  1.0000
  C   C1232     1.0  0.48461  0.52267  0.84118  1.0000
  C   C1233     1.0  0.40337  0.56368  0.80412  1.0000
  C   C1234     1.0  0.64648  0.57727  0.55088  1.0000
  H   H1472     1.0  0.47256  0.52993  0.77907  1.0000
  C   C1235     1.0  0.54044  0.68286  0.74871  1.0000
  C   C1236     1.0  0.53503  0.51063  0.86514  1.0000
  N   N77       1.0  0.54328  0.73319  0.74466  1.0000
  C   C1237     1.0  0.60503  0.58232  0.52405  1.0000
  H   H1473     1.0  0.45812  0.52226  0.80690  1.0000
  C   C1238     1.0  0.52762  0.50845  0.64658  1.0000
  H   H1474     1.0  0.53276  0.51104  0.82304  1.0000
  C   C1239     1.0  0.56300  0.74130  0.73604  1.0000
  N   N78       1.0  0.53830  0.50856  0.91394  1.0000
  H   H1475     1.0  0.63959  0.49873  0.75597  1.0000
  H   H1476     1.0  0.56292  0.53138  0.90055  1.0000
  H   H1477     1.0  0.53093  0.73061  0.70599  1.0000
  H   H1478     1.0  0.63714  0.59323  0.49234  1.0000
  C   C1240     1.0  0.52887  0.52148  0.92014  1.0000
  H   H1479     1.0  0.61002  0.56714  0.56932  1.0000
  H   H1480     1.0  0.42208  0.58239  0.83285  1.0000
  C   C1241     1.0  0.53463  0.49504  0.93551  1.0000
  C   C1242     1.0  0.47756  0.50320  0.88902  1.0000
  C   C1243     1.0  0.48399  0.50417  0.84290  1.0000
  C   C1244     1.0  0.54780  0.70228  0.74618  1.0000
  H   H1481     1.0  0.53020  0.73818  0.90228  1.0000
  N   N79       1.0  0.61453  0.56906  0.52785  1.0000
  H   H1482     1.0  0.50458  0.69214  0.60097  1.0000
  H   H1483     1.0  0.50724  0.70937  0.75523  1.0000
  C   C1245     1.0  0.50967  0.68299  0.75523  1.0000
  H   H1484     1.0  0.50859  0.54021  0.78586  1.0000
  H   H1485     1.0  0.45292  0.49168  0.51500  1.0000
  H   H1486     1.0  0.33557  0.50476  0.96117  1.0000
  H   H1487     1.0  0.47502  0.52763  0.90549  1.0000
  C   C1246     1.0  0.38823  0.54678  0.79971  1.0000
  C   C1247     1.0  0.38586  0.54117  0.84693  1.0000
  H   H1488     1.0  0.34931  0.51700  0.85388  1.0000
  H   H1489     1.0  0.48251  0.52458  0.65465  1.0000
  H   H1490     1.0  0.50242  0.56021  0.83132  1.0000
  C   C1248     1.0  0.49656  0.53540  0.66007  1.0000
  H   H1491     1.0  0.45785  0.50566  0.58478  1.0000
  C   C1249     1.0  0.48119  0.53090  0.86447  1.0000
  H   H1492     1.0  0.56063  0.69231  0.61440  1.0000
  H   H1493     1.0  0.38578  0.55121  0.89931  1.0000
  N   N80       1.0  0.51202  0.53161  0.64785  1.0000
  N   N81       1.0  0.37775  0.52923  0.86952  1.0000
  C   C1250     1.0  0.49825  0.49494  0.74747  1.0000
  C   C1251     1.0  0.54547  0.68576  0.61403  1.0000
  H   H1494     1.0  0.48574  0.49674  0.82584  1.0000
  C   C1252     1.0  0.50651  0.66752  0.61559  1.0000
  N   N82       1.0  0.48778  0.53223  0.81576  1.0000
  H   H1495     1.0  0.49828  0.53635  0.68169  1.0000
  S   S323      1.0  0.58307  0.50786  0.97736  1.0000
  C   C1253     1.0  0.53745  0.66739  0.62270  1.0000
  H   H1496     1.0  0.56614  0.71138  0.57832  1.0000
  H   H1497     1.0  0.54636  0.66032  0.62955  1.0000
  H   H1498     1.0  0.59106  0.55099  0.54974  1.0000
  H   H1499     1.0  0.54566  0.70710  0.55778  1.0000
  C   C1254     1.0  0.53165  0.73813  0.72484  1.0000
  H   H1500     1.0  0.38352  0.54214  0.77980  1.0000
  H   H1501     1.0  0.52083  0.72426  0.60723  1.0000
  C   C1255     1.0  0.50069  0.50158  0.67394  1.0000
  C   C1256     1.0  0.48372  0.49290  0.56451  1.0000
  H   H1502     1.0  0.47759  0.55374  0.82475  1.0000
  H   H1503     1.0  0.61203  0.54677  0.55437  1.0000
  C   C1257     1.0  0.45349  0.49731  0.56625  1.0000
  H   H1504     1.0  0.61652  0.54565  0.50738  1.0000
  H   H1505     1.0  0.56109  0.73065  0.56682  1.0000
  H   H1506     1.0  0.56462  0.52532  0.93365  1.0000
  C   C1258     1.0  0.60665  0.55809  0.55143  1.0000
  H   H1507     1.0  0.47464  0.49570  0.90726  1.0000
  H   H1508     1.0  0.48936  0.50442  0.68241  1.0000
  C   C1259     1.0  0.53157  0.49962  0.88793  1.0000
  C   C1260     1.0  0.52969  0.49223  0.65506  1.0000
  H   H1509     1.0  0.52540  0.72527  0.93206  1.0000
  H   H1510     1.0  0.59416  0.54776  0.50327  1.0000
  H   H1511     1.0  0.54043  0.50215  0.95459  1.0000
  H   H1512     1.0  0.48939  0.53818  0.97193  1.0000
  Fe  Fe160     1.0  0.43929  0.55135  0.97817  1.0000
  H   H1513     1.0  0.52161  0.54594  0.49300  1.0000
  C   C1261     1.0  0.48534  0.50914  0.97326  1.0000
  C   C1262     1.0  0.35244  0.49337  0.93938  1.0000
  C   C1263     1.0  0.49577  0.52835  0.97650  1.0000
  C   C1264     1.0  0.50076  0.49466  0.55262  1.0000
  H   H1514     1.0  0.61410  0.56300  0.48643  1.0000
  C   C1265     1.0  0.64254  0.50190  0.82180  1.0000
  C   C1266     1.0  0.52524  0.51998  0.48732  1.0000
  C   C1267     1.0  0.33534  0.49388  0.94765  1.0000
  C   C1268     1.0  0.48066  0.49469  0.86654  1.0000
  C   C1269     1.0  0.51504  0.53157  0.48622  1.0000
  H   H1515     1.0  0.44385  0.50258  0.55543  1.0000
  H   H1516     1.0  0.60838  0.58961  0.50516  1.0000
  H   H1517     1.0  0.51341  0.51380  0.92151  1.0000
  H   H1518     1.0  0.55145  0.73943  0.78521  1.0000
  H   H1519     1.0  0.57300  0.73976  0.75098  1.0000
  S   S324      1.0  0.58806  0.50973  0.48329  1.0000
  S   S325      1.0  0.42553  0.51709  0.48163  1.0000
  C   C1270     1.0  0.62369  0.49274  0.82760  1.0000
  C   C1271     1.0  0.49393  0.49665  0.97953  1.0000
  Fe  Fe161     1.0  0.49467  0.95060  0.45676  1.0000
  S   S326      1.0  0.46405  0.94452  0.45454  1.0000
  C   C1272     1.0  0.47695  0.96313  0.31096  1.0000
  Fe  Fe162     1.0  0.48828  0.90934  0.45617  1.0000
  S   S327      1.0  0.45674  0.90065  0.45399  1.0000
  H   H1520     1.0  0.63208  0.78177  0.28881  1.0000
  Fe  Fe163     1.0  0.46221  0.92301  0.42393  1.0000
  S   S328      1.0  0.44212  0.92308  0.39052  1.0000
  C   C1273     1.0  0.38513  0.88377  0.46041  1.0000
  S   S329      1.0  0.44884  0.93200  0.01848  1.0000
  S   S330      1.0  0.49341  0.93040  0.42399  1.0000
  H   H1521     1.0  0.49834  0.95594  0.09559  1.0000
  Fe  Fe164     1.0  0.44057  0.92500  0.23514  1.0000
  S   S331      1.0  0.42576  0.94495  0.23712  1.0000
  S   S332      1.0  0.45347  0.91465  0.26905  1.0000
  Fe  Fe165     1.0  0.44142  0.92610  0.17490  1.0000
  S   S333      1.0  0.42677  0.94602  0.17324  1.0000
  S   S334      1.0  0.45307  0.91612  0.13998  1.0000
  Fe  Fe166     1.0  0.44624  0.96112  0.20692  1.0000
  H   H1522     1.0  0.41914  0.89007  0.41621  1.0000
  Fe  Fe167     1.0  0.40755  0.92765  0.20329  1.0000
  S   S335      1.0  0.37589  0.92143  0.19802  1.0000
  S   S336      1.0  0.46190  0.94217  0.20677  1.0000
  S   S337      1.0  0.42136  0.90674  0.20312  1.0000
  Fe  Fe168     1.0  0.61740  0.84753  0.41083  1.0000
  S   S338      1.0  0.60705  0.81690  0.41812  1.0000
  C   C1274     1.0  0.64378  0.86098  0.03458  1.0000
  Fe  Fe169     1.0  0.57811  0.84842  0.41528  1.0000
  S   S339      1.0  0.56489  0.81756  0.42306  1.0000
  S   S340      1.0  0.56522  0.87011  0.40927  1.0000
  Fe  Fe170     1.0  0.59025  0.82258  0.45014  1.0000
  N   N83       1.0  0.64161  0.83229  0.05910  1.0000
  Fe  Fe171     1.0  0.58319  0.81488  0.39032  1.0000
  S   S341      1.0  0.57383  0.79332  0.35668  1.0000
  S   S342      1.0  0.60213  0.85363  0.44388  1.0000
  S   S343      1.0  0.59478  0.84531  0.38138  1.0000
  Fe  Fe172     1.0  0.58546  0.75381  0.17236  1.0000
  S   S344      1.0  0.56590  0.76920  0.17510  1.0000
  Fe  Fe173     1.0  0.61951  0.79085  0.16175  1.0000
  S   S345      1.0  0.60179  0.80776  0.16388  1.0000
  H   H1523     1.0  0.47197  0.97133  0.16777  1.0000
  Fe  Fe174     1.0  0.58926  0.79078  0.19934  1.0000
  S   S346      1.0  0.58773  0.80852  0.23473  1.0000
  Fe  Fe175     1.0  0.58067  0.78464  0.13945  1.0000
  S   S347      1.0  0.56575  0.79104  0.10383  1.0000
  S   S348      1.0  0.60822  0.77480  0.19832  1.0000
  S   S349      1.0  0.59898  0.76838  0.13562  1.0000
  H   H1524     1.0  0.46884  0.95391  0.32655  1.0000
  C   C1275     1.0  0.58093  0.79536  0.01663  1.0000
  C   C1276     1.0  0.57113  0.80560  0.02699  1.0000
  C   C1277     1.0  0.56684  0.80433  0.05376  1.0000
  C   C1278     1.0  0.57275  0.79329  0.07068  1.0000
  C   C1279     1.0  0.58291  0.78337  0.06040  1.0000
  C   C1280     1.0  0.58665  0.78415  0.03349  1.0000
  H   H1525     1.0  0.56651  0.81419  0.01431  1.0000
  H   H1526     1.0  0.55885  0.81197  0.06141  1.0000
  H   H1527     1.0  0.58746  0.77473  0.07305  1.0000
  H   H1528     1.0  0.59411  0.77605  0.02568  1.0000
  C   C1281     1.0  0.57901  0.79777  0.32306  1.0000
  C   C1282     1.0  0.57477  0.78265  0.30527  1.0000
  C   C1283     1.0  0.57783  0.78561  0.27827  1.0000
  C   C1284     1.0  0.58495  0.80379  0.26868  1.0000
  C   C1285     1.0  0.58927  0.81890  0.28650  1.0000
  C   C1286     1.0  0.58652  0.81594  0.31350  1.0000
  H   H1529     1.0  0.56887  0.76852  0.31237  1.0000
  H   H1530     1.0  0.57428  0.77383  0.26484  1.0000
  H   H1531     1.0  0.59459  0.83300  0.27930  1.0000
  H   H1532     1.0  0.58988  0.82771  0.32682  1.0000
  C   C1287     1.0  0.35461  0.90102  0.19442  1.0000
  C   C1288     1.0  0.35444  0.88290  0.19298  1.0000
  C   C1289     1.0  0.33728  0.86734  0.18893  1.0000
  H   H1533     1.0  0.40139  0.91102  0.40706  1.0000
  C   C1290     1.0  0.63834  0.83149  0.26160  1.0000
  C   C1291     1.0  0.33733  0.90322  0.19196  1.0000
  H   H1534     1.0  0.36749  0.88083  0.19504  1.0000
  H   H1535     1.0  0.33740  0.85345  0.18787  1.0000
  H   H1536     1.0  0.39748  0.87042  0.41872  1.0000
  H   H1537     1.0  0.33720  0.91712  0.19302  1.0000
  H   H1538     1.0  0.49088  0.97991  0.22640  1.0000
  C   C1292     1.0  0.54596  0.87357  0.42323  1.0000
  C   C1293     1.0  0.53264  0.85988  0.43783  1.0000
  C   C1294     1.0  0.51786  0.86354  0.44903  1.0000
  C   C1295     1.0  0.51610  0.88080  0.44551  1.0000
  C   C1296     1.0  0.52922  0.89434  0.43051  1.0000
  C   C1297     1.0  0.54406  0.89072  0.41944  1.0000
  H   H1539     1.0  0.53364  0.84646  0.44041  1.0000
  H   H1540     1.0  0.47915  0.98008  0.47631  1.0000
  H   H1541     1.0  0.52805  0.90767  0.42766  1.0000
  H   H1542     1.0  0.55425  0.90138  0.40808  1.0000
  C   C1298     1.0  0.45154  0.92880  0.05239  1.0000
  C   C1299     1.0  0.44216  0.93578  0.07026  1.0000
  C   C1300     1.0  0.44287  0.93248  0.09721  1.0000
  C   C1301     1.0  0.45282  0.92194  0.10654  1.0000
  C   C1302     1.0  0.46252  0.91528  0.08875  1.0000
  C   C1303     1.0  0.46198  0.91876  0.06183  1.0000
  H   H1543     1.0  0.43402  0.94352  0.06310  1.0000
  H   H1544     1.0  0.43533  0.93766  0.11058  1.0000
  H   H1545     1.0  0.47027  0.90712  0.09576  1.0000
  H   H1546     1.0  0.46923  0.91326  0.04830  1.0000
  C   C1304     1.0  0.44490  0.91987  0.35684  1.0000
  C   C1305     1.0  0.45774  0.91257  0.34807  1.0000
  C   C1306     1.0  0.45952  0.91027  0.32108  1.0000
  C   C1307     1.0  0.44895  0.91577  0.30263  1.0000
  C   C1308     1.0  0.43594  0.92289  0.31141  1.0000
  C   C1309     1.0  0.43383  0.92476  0.33842  1.0000
  H   H1547     1.0  0.46616  0.90851  0.36204  1.0000
  H   H1548     1.0  0.46943  0.90452  0.31444  1.0000
  H   H1549     1.0  0.42761  0.92705  0.29741  1.0000
  H   H1550     1.0  0.42373  0.93028  0.34504  1.0000
  H   H1551     1.0  0.50473  0.99066  0.28832  1.0000
  C   C1310     1.0  0.31998  0.86954  0.18665  1.0000
  H   H1552     1.0  0.57271  0.74222  0.09481  1.0000
  N   N84       1.0  0.38556  0.90415  0.11997  1.0000
  C   C1311     1.0  0.36512  0.89291  0.12109  1.0000
  C   C1312     1.0  0.39493  0.89894  0.14248  1.0000
  C   C1313     1.0  0.38876  0.92419  0.12350  1.0000
  C   C1314     1.0  0.39250  0.90102  0.09435  1.0000
  C   C1315     1.0  0.40575  0.89247  0.09169  1.0000
  C   C1316     1.0  0.38603  0.90665  0.07100  1.0000
  C   C1317     1.0  0.41241  0.89028  0.06724  1.0000
  C   C1318     1.0  0.39294  0.90455  0.04669  1.0000
  C   C1319     1.0  0.40619  0.89649  0.04484  1.0000
  H   H1553     1.0  0.36206  0.87773  0.11876  1.0000
  H   H1554     1.0  0.35942  0.89502  0.14011  1.0000
  H   H1555     1.0  0.35693  0.89673  0.10567  1.0000
  H   H1556     1.0  0.39211  0.88375  0.14226  1.0000
  H   H1557     1.0  0.38980  0.90191  0.16145  1.0000
  H   H1558     1.0  0.41041  0.90696  0.14279  1.0000
  H   H1559     1.0  0.38025  0.92881  0.10955  1.0000
  H   H1560     1.0  0.38487  0.92725  0.14334  1.0000
  H   H1561     1.0  0.40378  0.93325  0.12098  1.0000
  H   H1562     1.0  0.41178  0.88794  0.10823  1.0000
  H   H1563     1.0  0.37580  0.91302  0.07139  1.0000
  H   H1564     1.0  0.42312  0.88450  0.06575  1.0000
  H   H1565     1.0  0.38835  0.90955  0.02918  1.0000
  H   H1566     1.0  0.41207  0.89554  0.02611  1.0000
  H   H1567     1.0  0.47987  0.97783  0.02962  1.0000
  H   H1568     1.0  0.54521  0.74335  0.07549  1.0000
  H   H1569     1.0  0.48880  0.94925  0.13764  1.0000
  H   H1570     1.0  0.63624  0.84450  0.46715  1.0000
  H   H1571     1.0  0.63955  0.80569  0.07446  1.0000
  H   H1572     1.0  0.63301  0.84621  0.22882  1.0000
  C   C1320     1.0  0.64255  0.87014  0.01162  1.0000
  H   H1573     1.0  0.62309  0.80414  0.04870  1.0000
  H   H1574     1.0  0.61351  0.82799  0.07021  1.0000
  C   C1321     1.0  0.63972  0.84149  0.03458  1.0000
  H   H1575     1.0  0.62856  0.82642  0.09663  1.0000
  H   H1576     1.0  0.63901  0.83623  0.14677  1.0000
  H   H1577     1.0  0.41445  0.87648  0.44533  1.0000
  C   C1322     1.0  0.47099  0.97198  0.14615  1.0000
  N   N85       1.0  0.64338  0.81143  0.29790  1.0000
  H   H1578     1.0  0.51444  0.95026  0.31250  1.0000
  H   H1579     1.0  0.64341  0.82893  0.19604  1.0000
  H   H1580     1.0  0.50765  0.85294  0.46044  1.0000
  H   H1581     1.0  0.40912  0.92053  0.46412  1.0000
  S   S350      1.0  0.51504  0.98082  0.45800  1.0000
  H   H1582     1.0  0.49286  0.93952  0.32887  1.0000
  C   C1323     1.0  0.63283  0.84100  0.98740  1.0000
  C   C1324     1.0  0.50602  0.97687  0.28922  1.0000
  C   C1325     1.0  0.48764  0.97767  0.10563  1.0000
  H   H1583     1.0  0.64556  0.88501  0.01209  1.0000
  H   H1584     1.0  0.42323  0.90674  0.46827  1.0000
  C   C1326     1.0  0.63826  0.83574  0.23512  1.0000
  C   C1327     1.0  0.54267  0.81084  0.26047  1.0000
  H   H1585     1.0  0.54282  0.80400  0.24196  1.0000
  N   N86       1.0  0.54639  0.83949  0.33440  1.0000
  C   C1328     1.0  0.54595  0.82794  0.35758  1.0000
  C   C1329     1.0  0.56457  0.85585  0.33559  1.0000
  C   C1330     1.0  0.53093  0.84627  0.33665  1.0000
  C   C1331     1.0  0.54438  0.82923  0.30924  1.0000
  C   C1332     1.0  0.54596  0.83870  0.28525  1.0000
  C   C1333     1.0  0.54116  0.80989  0.30764  1.0000
  C   C1334     1.0  0.54529  0.82964  0.26129  1.0000
  H   H1586     1.0  0.46128  0.95798  0.13881  1.0000
  C   C1335     1.0  0.49794  0.96872  0.36196  1.0000
  H   H1587     1.0  0.54802  0.83616  0.37617  1.0000
  H   H1588     1.0  0.53222  0.81597  0.35892  1.0000
  H   H1589     1.0  0.55728  0.82239  0.35713  1.0000
  H   H1590     1.0  0.57648  0.85152  0.33183  1.0000
  H   H1591     1.0  0.56731  0.86310  0.35503  1.0000
  H   H1592     1.0  0.56513  0.86665  0.32118  1.0000
  H   H1593     1.0  0.51699  0.83443  0.33545  1.0000
  H   H1594     1.0  0.53194  0.85386  0.35562  1.0000
  H   H1595     1.0  0.53107  0.85614  0.32097  1.0000
  H   H1596     1.0  0.54808  0.85330  0.28485  1.0000
  C   C1336     1.0  0.32016  0.88765  0.18825  1.0000
  H   H1597     1.0  0.54716  0.83727  0.24324  1.0000
  C   C1337     1.0  0.49937  0.94833  0.31201  1.0000
  H   H1598     1.0  0.64290  0.82780  0.39487  1.0000
  Fe  Fe176     1.0  0.46712  0.92918  0.98552  1.0000
  C   C1338     1.0  0.54033  0.80094  0.28355  1.0000
  H   H1599     1.0  0.55305  0.75132  0.12289  1.0000
  H   H1600     1.0  0.62452  0.82380  0.31189  1.0000
  C   C1339     1.0  0.63720  0.86018  0.98805  1.0000
  H   H1601     1.0  0.49903  0.96386  0.16545  1.0000
  H   H1602     1.0  0.48590  0.95563  0.36278  1.0000
  N   N87       1.0  0.39937  0.89466  0.44167  1.0000
  H   H1603     1.0  0.49254  0.93998  0.29405  1.0000
  C   C1340     1.0  0.35498  0.85818  0.46872  1.0000
  H   H1604     1.0  0.63855  0.81946  0.33674  1.0000
  H   H1605     1.0  0.34231  0.84697  0.46132  1.0000
  C   C1341     1.0  0.62822  0.83397  0.07832  1.0000
  H   H1606     1.0  0.53989  0.80144  0.32470  1.0000
  H   H1607     1.0  0.49913  0.96900  0.27097  1.0000
  S   S351      1.0  0.49759  0.88484  0.46081  1.0000
  C   C1342     1.0  0.63390  0.83167  0.01027  1.0000
  C   C1343     1.0  0.48244  0.97819  0.05057  1.0000
  N   N88       1.0  0.49724  0.96653  0.31285  1.0000
  C   C1344     1.0  0.50590  0.97745  0.38576  1.0000
  C   C1345     1.0  0.49784  0.96388  0.14372  1.0000
  C   C1346     1.0  0.40794  0.88236  0.42998  1.0000
  H   H1608     1.0  0.47466  0.97641  0.31235  1.0000
  H   H1609     1.0  0.53858  0.78638  0.28283  1.0000
  H   H1610     1.0  0.47030  0.95596  0.29217  1.0000
  C   C1347     1.0  0.50559  0.97646  0.33775  1.0000
  H   H1611     1.0  0.61491  0.79180  0.29282  1.0000
  C   C1348     1.0  0.41468  0.91106  0.45398  1.0000
  H   H1612     1.0  0.36573  0.86546  0.43081  1.0000
  S   S352      1.0  0.49834  0.93743  0.98901  1.0000
  C   C1349     1.0  0.36842  0.86898  0.45137  1.0000
  H   H1613     1.0  0.42468  0.91957  0.43936  1.0000
  C   C1350     1.0  0.39063  0.90183  0.42043  1.0000
  C   C1351     1.0  0.49031  0.96639  0.06149  1.0000
  H   H1614     1.0  0.38295  0.91013  0.42854  1.0000
  C   C1352     1.0  0.49281  0.96597  0.08858  1.0000
  H   H1615     1.0  0.51220  0.96730  0.13630  1.0000
  N   N89       1.0  0.48967  0.97734  0.13446  1.0000
  C   C1353     1.0  0.64411  0.81708  0.27026  1.0000
  H   H1616     1.0  0.62980  0.81673  0.00835  1.0000
  H   H1617     1.0  0.49991  0.97120  0.40401  1.0000
  H   H1618     1.0  0.38071  0.89053  0.40767  1.0000
  H   H1619     1.0  0.63324  0.83931  0.27474  1.0000
  C   C1354     1.0  0.63876  0.82396  0.31613  1.0000
  H   H1620     1.0  0.62712  0.78773  0.32087  1.0000
  H   H1621     1.0  0.46425  0.98206  0.14207  1.0000
  H   H1622     1.0  0.63137  0.84872  0.08423  1.0000
  S   S353      1.0  0.58559  0.79514  0.98273  1.0000
  C   C1355     1.0  0.62881  0.79235  0.30022  1.0000
  H   H1623     1.0  0.49379  0.95696  0.04881  1.0000
  C   C1356     1.0  0.63779  0.81210  0.05566  1.0000
  H   H1624     1.0  0.56421  0.85111  0.46362  1.0000
  C   C1357     1.0  0.64400  0.82597  0.21659  1.0000
  H   H1625     1.0  0.52112  0.97902  0.28829  1.0000
  H   H1626     1.0  0.56191  0.88034  0.47618  1.0000
  C   C1358     1.0  0.47736  0.98994  0.06664  1.0000
  C   C1359     1.0  0.47996  0.98979  0.09377  1.0000
  H   H1627     1.0  0.54901  0.76260  0.98714  1.0000
  H   H1628     1.0  0.53201  0.78047  0.00412  1.0000
  C   C1360     1.0  0.53025  0.77638  0.98359  1.0000
  H   H1629     1.0  0.64754  0.80978  0.04169  1.0000
  S   S354      1.0  0.64755  0.86624  0.40482  1.0000
  H   H1630     1.0  0.52116  0.86426  0.98040  1.0000
  C   C1361     1.0  0.32169  0.88876  0.69115  1.0000
  S   S355      1.0  0.46846  0.94800  0.95175  1.0000
  N   N90       1.0  0.31515  0.86180  0.61499  1.0000
  Fe  Fe177     1.0  0.49426  0.91418  0.95950  1.0000
  S   S356      1.0  0.46264  0.90466  0.95846  1.0000
  H   H1631     1.0  0.62977  0.82227  0.85223  1.0000
  Fe  Fe178     1.0  0.46699  0.92445  0.92500  1.0000
  S   S357      1.0  0.44605  0.91745  0.89048  1.0000
  C   C1362     1.0  0.44924  0.87460  0.85551  1.0000
  S   S358      1.0  0.44099  0.92230  0.51675  1.0000
  S   S359      1.0  0.49831  0.93272  0.92451  1.0000
  C   C1363     1.0  0.47062  0.96824  0.84156  1.0000
  Fe  Fe179     1.0  0.44329  0.92663  0.73359  1.0000
  S   S360      1.0  0.42744  0.94566  0.73504  1.0000
  S   S361      1.0  0.45901  0.91976  0.76793  1.0000
  Fe  Fe180     1.0  0.44411  0.92747  0.67297  1.0000
  S   S362      1.0  0.42871  0.94679  0.67104  1.0000
  S   S363      1.0  0.45822  0.91944  0.63884  1.0000
  Fe  Fe181     1.0  0.44760  0.96234  0.70493  1.0000
  H   H1632     1.0  0.52007  0.98347  0.87491  1.0000
  Fe  Fe182     1.0  0.40972  0.92796  0.70110  1.0000
  S   S364      1.0  0.37797  0.92157  0.69527  1.0000
  S   S365      1.0  0.46405  0.94423  0.70494  1.0000
  S   S366      1.0  0.42455  0.90777  0.70148  1.0000
  Fe  Fe183     1.0  0.61329  0.84270  0.91593  1.0000
  S   S367      1.0  0.60430  0.81191  0.91876  1.0000
  H   H1633     1.0  0.33696  0.85175  0.62449  1.0000
  Fe  Fe184     1.0  0.57282  0.84017  0.91417  1.0000
  S   S368      1.0  0.56116  0.80863  0.91693  1.0000
  S   S369      1.0  0.55578  0.85776  0.90334  1.0000
  Fe  Fe185     1.0  0.58388  0.81343  0.94840  1.0000
  H   H1634     1.0  0.59677  0.86383  0.50212  1.0000
  Fe  Fe186     1.0  0.58276  0.80974  0.88729  1.0000
  S   S370      1.0  0.58088  0.78841  0.85496  1.0000
  S   S371      1.0  0.59423  0.84487  0.94725  1.0000
  S   S372      1.0  0.59314  0.84071  0.88272  1.0000
  Fe  Fe187     1.0  0.46131  0.92297  0.48478  1.0000
  S   S373      1.0  0.56214  0.76075  0.67022  1.0000
  Fe  Fe188     1.0  0.61589  0.78773  0.66379  1.0000
  S   S374      1.0  0.59544  0.80192  0.66224  1.0000
  C   C1364     1.0  0.49483  0.96912  0.78280  1.0000
  Fe  Fe189     1.0  0.58217  0.78373  0.69639  1.0000
  S   S375      1.0  0.57223  0.79569  0.73140  1.0000
  Fe  Fe190     1.0  0.57787  0.77756  0.63623  1.0000
  S   S376      1.0  0.56129  0.77816  0.59875  1.0000
  S   S377      1.0  0.60357  0.77076  0.69937  1.0000
  S   S378      1.0  0.59897  0.76409  0.63620  1.0000
  C   C1365     1.0  0.54687  0.84957  0.57075  1.0000
  C   C1366     1.0  0.58664  0.80500  0.52100  1.0000
  C   C1367     1.0  0.56718  0.79607  0.52335  1.0000
  C   C1368     1.0  0.55965  0.78781  0.54718  1.0000
  C   C1369     1.0  0.57143  0.78837  0.56891  1.0000
  C   C1370     1.0  0.59087  0.79726  0.56650  1.0000
  C   C1371     1.0  0.59838  0.80554  0.54275  1.0000
  H   H1635     1.0  0.55794  0.79559  0.50691  1.0000
  H   H1636     1.0  0.54458  0.78107  0.54884  1.0000
  H   H1637     1.0  0.60013  0.79790  0.58302  1.0000
  H   H1638     1.0  0.61344  0.81250  0.54130  1.0000
  C   C1372     1.0  0.57953  0.79162  0.82068  1.0000
  C   C1373     1.0  0.57133  0.80338  0.81017  1.0000
  C   C1374     1.0  0.56954  0.80467  0.78284  1.0000
  C   C1375     1.0  0.57629  0.79460  0.76563  1.0000
  C   C1376     1.0  0.58520  0.78343  0.77617  1.0000
  C   C1377     1.0  0.58637  0.78159  0.80348  1.0000
  H   H1639     1.0  0.56592  0.81113  0.82307  1.0000
  H   H1640     1.0  0.56267  0.81341  0.77497  1.0000
  H   H1641     1.0  0.59098  0.77600  0.76334  1.0000
  H   H1642     1.0  0.59283  0.77252  0.81137  1.0000
  C   C1378     1.0  0.35623  0.90164  0.69614  1.0000
  C   C1379     1.0  0.33925  0.90401  0.69091  1.0000
  H   H1643     1.0  0.63610  0.86728  0.97028  1.0000
  H   H1644     1.0  0.57737  0.82764  0.57284  1.0000
  C   C1380     1.0  0.33777  0.86839  0.70186  1.0000
  C   C1381     1.0  0.35533  0.88365  0.70160  1.0000
  H   H1645     1.0  0.33969  0.91784  0.68681  1.0000
  H   H1646     1.0  0.33642  0.88770  0.60268  1.0000
  H   H1647     1.0  0.33736  0.85460  0.70612  1.0000
  H   H1648     1.0  0.36817  0.88150  0.70573  1.0000
  H   H1649     1.0  0.45641  0.96307  0.83356  1.0000
  C   C1382     1.0  0.54296  0.86783  0.92241  1.0000
  C   C1383     1.0  0.53707  0.86171  0.94750  1.0000
  C   C1384     1.0  0.52587  0.86928  0.96116  1.0000
  C   C1385     1.0  0.52066  0.88324  0.95015  1.0000
  C   C1386     1.0  0.52689  0.88965  0.92529  1.0000
  C   C1387     1.0  0.53778  0.88181  0.91141  1.0000
  H   H1650     1.0  0.54088  0.85095  0.95620  1.0000
  N   N91       1.0  0.56797  0.86189  0.50318  1.0000
  H   H1651     1.0  0.52323  0.90052  0.91667  1.0000
  H   H1652     1.0  0.54234  0.88670  0.89207  1.0000
  C   C1388     1.0  0.44574  0.92107  0.55063  1.0000
  C   C1389     1.0  0.43467  0.92551  0.56888  1.0000
  C   C1390     1.0  0.43835  0.92522  0.59595  1.0000
  C   C1391     1.0  0.45300  0.92022  0.60504  1.0000
  C   C1392     1.0  0.46403  0.91576  0.58676  1.0000
  C   C1393     1.0  0.46047  0.91622  0.55971  1.0000
  H   H1653     1.0  0.42326  0.92932  0.56208  1.0000
  H   H1654     1.0  0.42978  0.92871  0.60980  1.0000
  H   H1655     1.0  0.47534  0.91180  0.59362  1.0000
  H   H1656     1.0  0.46903  0.91266  0.54591  1.0000
  C   C1394     1.0  0.45064  0.92002  0.85665  1.0000
  C   C1395     1.0  0.46796  0.92171  0.84678  1.0000
  C   C1396     1.0  0.47032  0.92183  0.81957  1.0000
  C   C1397     1.0  0.45564  0.92081  0.80197  1.0000
  C   C1398     1.0  0.43860  0.91994  0.81188  1.0000
  C   C1399     1.0  0.43607  0.91931  0.83907  1.0000
  H   H1657     1.0  0.47930  0.92231  0.86004  1.0000
  H   H1658     1.0  0.48352  0.92240  0.81210  1.0000
  H   H1659     1.0  0.42715  0.91905  0.79859  1.0000
  H   H1660     1.0  0.42261  0.91798  0.84652  1.0000
  H   H1661     1.0  0.54736  0.75774  0.76813  1.0000
  C   C1400     1.0  0.54000  0.76601  0.97346  1.0000
  H   H1662     1.0  0.62823  0.83326  0.96908  1.0000
  H   H1663     1.0  0.61459  0.81934  0.72679  1.0000
  C   C1401     1.0  0.32080  0.87077  0.69657  1.0000
  H   H1664     1.0  0.48725  0.86411  0.84116  1.0000
  C   C1402     1.0  0.35791  0.86157  0.49554  1.0000
  H   H1665     1.0  0.44185  0.87822  0.87093  1.0000
  C   C1403     1.0  0.48658  0.97632  0.82581  1.0000
  H   H1666     1.0  0.57209  0.75685  0.90747  1.0000
  H   H1667     1.0  0.47640  0.86667  0.79704  1.0000
  H   H1668     1.0  0.63825  0.82727  0.50659  1.0000
  H   H1669     1.0  0.43130  0.87973  0.82626  1.0000
  C   C1404     1.0  0.63887  0.81315  0.73615  1.0000
  H   H1670     1.0  0.49021  0.86061  0.91182  1.0000
  H   H1671     1.0  0.45800  0.95722  0.78927  1.0000
  H   H1672     1.0  0.52550  0.76450  0.90958  1.0000
  C   C1405     1.0  0.55043  0.85718  0.54581  1.0000
  C   C1406     1.0  0.62405  0.82672  0.76684  1.0000
  H   H1673     1.0  0.56766  0.75652  0.73249  1.0000
  H   H1674     1.0  0.57322  0.77637  0.92744  1.0000
  C   C1407     1.0  0.62190  0.84197  0.81709  1.0000
  C   C1408     1.0  0.38779  0.88669  0.48795  1.0000
  S   S379      1.0  0.64413  0.86128  0.91520  1.0000
  C   C1409     1.0  0.48616  0.86144  0.89094  1.0000
  C   C1410     1.0  0.54244  0.74228  0.76990  1.0000
  H   H1675     1.0  0.48071  0.84700  0.88255  1.0000
  H   H1676     1.0  0.45733  0.97991  0.79628  1.0000
  C   C1411     1.0  0.46511  0.87003  0.86095  1.0000
  C   C1412     1.0  0.46866  0.86854  0.81348  1.0000
  H   H1677     1.0  0.53640  0.85177  0.58258  1.0000
  H   H1678     1.0  0.44801  0.84550  0.89757  1.0000
  C   C1413     1.0  0.49037  0.97168  0.88038  1.0000
  C   C1414     1.0  0.55817  0.87445  0.49601  1.0000
  C   C1415     1.0  0.58842  0.87274  0.50066  1.0000
  N   N92       1.0  0.47201  0.87007  0.88821  1.0000
  H   H1679     1.0  0.49179  0.96969  0.90116  1.0000
  H   H1680     1.0  0.51162  0.79046  0.97518  1.0000
  H   H1681     1.0  0.58375  0.84035  0.52917  1.0000
  H   H1682     1.0  0.51023  0.97487  0.78681  1.0000
  C   C1416     1.0  0.56994  0.83601  0.56531  1.0000
  C   C1417     1.0  0.63236  0.81832  0.83220  1.0000
  H   H1683     1.0  0.54665  0.83735  0.48567  1.0000
  H   H1684     1.0  0.46151  0.95884  0.54520  1.0000
  N   N93       1.0  0.48512  0.97923  0.79740  1.0000
  C   C1418     1.0  0.56188  0.84609  0.48404  1.0000
  H   H1685     1.0  0.59385  0.88388  0.51607  1.0000
  C   C1419     1.0  0.56341  0.76369  0.91674  1.0000
  H   H1686     1.0  0.51131  0.96891  0.56802  1.0000
  H   H1687     1.0  0.37674  0.87820  0.52603  1.0000
  H   H1688     1.0  0.47706  0.96101  0.64335  1.0000
  H   H1689     1.0  0.46147  0.85850  0.92562  1.0000
  H   H1690     1.0  0.34755  0.85305  0.50893  1.0000
  H   H1691     1.0  0.62206  0.84744  0.83735  1.0000
  H   H1692     1.0  0.63939  0.80766  0.71673  1.0000
  C   C1420     1.0  0.55660  0.83901  0.58046  1.0000
  C   C1421     1.0  0.44317  0.87574  0.82988  1.0000
  C   C1422     1.0  0.47474  0.86711  0.83906  1.0000
  C   C1423     1.0  0.52677  0.76710  0.93044  1.0000
  H   H1693     1.0  0.63441  0.83376  0.64852  1.0000
  C   C1424     1.0  0.56404  0.85442  0.52987  1.0000
  H   H1694     1.0  0.49278  0.89798  0.88549  1.0000
  H   H1695     1.0  0.46675  0.98200  0.53389  1.0000
  H   H1696     1.0  0.59166  0.87958  0.48132  1.0000
  N   N94       1.0  0.63650  0.83405  0.81396  1.0000
  H   H1697     1.0  0.32210  0.85102  0.65099  1.0000
  H   H1698     1.0  0.55372  0.83299  0.59969  1.0000
  C   C1425     1.0  0.45629  0.85980  0.90550  1.0000
  C   C1426     1.0  0.46546  0.97255  0.78684  1.0000
  H   H1699     1.0  0.55664  0.76852  0.90051  1.0000
  H   H1700     1.0  0.48928  0.95406  0.78782  1.0000
  H   H1701     1.0  0.48919  0.95035  0.55862  1.0000
  C   C1427     1.0  0.50449  0.98188  0.83865  1.0000
  C   C1428     1.0  0.48084  0.88964  0.89777  1.0000
  Fe  Fe191     1.0  0.49936  0.95497  0.95392  1.0000
  C   C1429     1.0  0.50629  0.97950  0.86551  1.0000
  C   C1430     1.0  0.57357  0.84347  0.54035  1.0000
  H   H1702     1.0  0.61262  0.83125  0.76989  1.0000
  H   H1703     1.0  0.48570  0.98192  0.97937  1.0000
  H   H1704     1.0  0.56965  0.83672  0.48696  1.0000
  H   H1705     1.0  0.61953  0.80624  0.82573  1.0000
  H   H1706     1.0  0.54225  0.86505  0.53947  1.0000
  H   H1707     1.0  0.47638  0.96712  0.51810  1.0000
  H   H1708     1.0  0.44863  0.87462  0.78910  1.0000
  C   C1431     1.0  0.48377  0.96863  0.60334  1.0000
  H   H1709     1.0  0.46488  0.97499  0.76545  1.0000
  C   C1432     1.0  0.47679  0.97034  0.62776  1.0000
  H   H1710     1.0  0.49348  0.98081  0.71388  1.0000
  H   H1711     1.0  0.56197  0.88657  0.50985  1.0000
  H   H1712     1.0  0.48634  0.89049  0.91825  1.0000
  C   C1433     1.0  0.49893  0.96481  0.55429  1.0000
  H   H1713     1.0  0.48916  0.95773  0.60141  1.0000
  C   C1434     1.0  0.32609  0.87425  0.59426  1.0000
  H   H1714     1.0  0.49276  0.96972  0.76129  1.0000
  C   C1435     1.0  0.45295  0.87290  0.80891  1.0000
  H   H1715     1.0  0.49957  0.86987  0.88154  1.0000
  H   H1716     1.0  0.54262  0.86691  0.49531  1.0000
  H   H1717     1.0  0.62407  0.85384  0.80376  1.0000
  C   C1436     1.0  0.53868  0.76118  0.94642  1.0000
  C   C1437     1.0  0.56019  0.74464  0.95428  1.0000
  C   C1438     1.0  0.37430  0.87575  0.50512  1.0000
  H   H1718     1.0  0.47069  0.89669  0.89744  1.0000
  H   H1719     1.0  0.44656  0.86711  0.90828  1.0000
  H   H1720     1.0  0.33429  0.86766  0.58325  1.0000
  C   C1439     1.0  0.48298  0.98017  0.58224  1.0000
  H   H1721     1.0  0.60752  0.83119  0.81349  1.0000
  S   S380      1.0  0.51922  0.98518  0.95113  1.0000
  C   C1440     1.0  0.62498  0.81983  0.74180  1.0000
  H   H1722     1.0  0.46024  0.95951  0.88001  1.0000
  C   C1441     1.0  0.46870  0.98334  0.63191  1.0000
  C   C1442     1.0  0.47286  0.97134  0.53744  1.0000
  S   S381      1.0  0.59721  0.81634  0.49195  1.0000
  H   H1723     1.0  0.33911  0.87283  0.64192  1.0000
  H   H1724     1.0  0.40029  0.89722  0.49686  1.0000
  S   S382      1.0  0.49236  0.93038  0.48904  1.0000
  C   C1443     1.0  0.63723  0.82722  0.78706  1.0000
  N   N95       1.0  0.54960  0.75111  0.93469  1.0000
  N   N96       1.0  0.48938  0.97818  0.55574  1.0000
  C   C1444     1.0  0.47260  0.96609  0.86844  1.0000
  H   H1725     1.0  0.50409  0.96403  0.53432  1.0000
  S   S383      1.0  0.50559  0.89138  0.96776  1.0000
  C   C1445     1.0  0.32889  0.85923  0.63379  1.0000
  H   H1726     1.0  0.51723  0.98794  0.82789  1.0000
  C   C1446     1.0  0.51700  0.77736  0.94081  1.0000
  H   H1727     1.0  0.64402  0.81328  0.83389  1.0000
  H   H1728     1.0  0.46289  0.98422  0.65075  1.0000
  H   H1729     1.0  0.31683  0.87801  0.58039  1.0000
  H   H1730     1.0  0.57110  0.75664  0.96502  1.0000
  Fe  Fe192     1.0  0.58416  0.74846  0.67151  1.0000
  H   H1731     1.0  0.64094  0.82374  0.90059  1.0000
  H   H1732     1.0  0.53749  0.75342  0.72090  1.0000
  H   H1733     1.0  0.50841  0.78220  0.92809  1.0000
  C   C1447     1.0  0.51881  0.78208  0.96731  1.0000
  H   H1734     1.0  0.56147  0.74191  0.61356  1.0000
  S   S384      1.0  0.64754  0.80361  0.66025  1.0000
  C   C1448     1.0  0.64736  0.85101  0.48174  1.0000
  Fe  Fe193     1.0  0.74246  0.18889  0.27346  1.0000
  S   S385      1.0  0.75762  0.22039  0.27312  1.0000
  S   S386      1.0  0.71027  0.18033  0.26793  1.0000
  Fe  Fe194     1.0  0.78043  0.18447  0.27864  1.0000
  S   S387      1.0  0.79708  0.21516  0.27738  1.0000
  S   S388      1.0  0.79602  0.16503  0.28441  1.0000
  Fe  Fe195     1.0  0.77625  0.21735  0.30578  1.0000
  H   H1735     1.0  0.85571  0.20192  0.45488  1.0000
  Fe  Fe196     1.0  0.77713  0.21536  0.24478  1.0000
  C   C1449     1.0  0.78805  0.22842  0.12084  1.0000
  S   S389      1.0  0.76002  0.18638  0.30840  1.0000
  S   S390      1.0  0.76158  0.18416  0.24378  1.0000
  Fe  Fe197     1.0  0.90399  0.14124  0.30663  1.0000
  S   S391      1.0  0.91943  0.17237  0.30592  1.0000
  S   S392      1.0  0.90097  0.12222  0.27068  1.0000
  Fe  Fe198     1.0  0.89802  0.14209  0.36705  1.0000
  S   S393      1.0  0.91328  0.17332  0.36940  1.0000
  S   S394      1.0  0.88075  0.12429  0.40023  1.0000
  Fe  Fe199     1.0  0.89665  0.17309  0.33223  1.0000
  S   S395      1.0  0.88126  0.19268  0.32637  1.0000
  Fe  Fe200     1.0  0.93472  0.16951  0.34282  1.0000
  C   C1450     1.0  0.72666  0.20504  0.11797  1.0000
  S   S396      1.0  0.88054  0.14218  0.33105  1.0000
  S   S397      1.0  0.92005  0.13799  0.34246  1.0000
  S   S398      1.0  0.80628  0.22078  0.02400  1.0000
  S   S399      1.0  0.85581  0.22109  0.02758  1.0000
  Fe  Fe201     1.0  0.84690  0.08184  0.08049  1.0000
  S   S400      1.0  0.87813  0.09760  0.08913  1.0000
  S   S401      1.0  0.83756  0.04986  0.08596  1.0000
  Fe  Fe202     1.0  0.84224  0.11899  0.06867  1.0000
  S   S402      1.0  0.87241  0.13591  0.07766  1.0000
  S   S403      1.0  0.82383  0.13443  0.05532  1.0000
  Fe  Fe203     1.0  0.87775  0.11440  0.05319  1.0000
  S   S404      1.0  0.89991  0.12751  0.02235  1.0000
  Fe  Fe204     1.0  0.86952  0.11765  0.11253  1.0000
  S   S405      1.0  0.87865  0.13305  0.15224  1.0000
  S   S406      1.0  0.84738  0.09763  0.04313  1.0000
  S   S407      1.0  0.83852  0.10165  0.10489  1.0000
  C   C1451     1.0  0.84669  0.19704  0.03550  1.0000
  C   C1452     1.0  0.82748  0.18594  0.03325  1.0000
  C   C1453     1.0  0.82071  0.16697  0.03994  1.0000
  C   C1454     1.0  0.83303  0.15873  0.04885  1.0000
  C   C1455     1.0  0.85225  0.16982  0.05114  1.0000
  C   C1456     1.0  0.85904  0.18879  0.04423  1.0000
  H   H1736     1.0  0.81775  0.19177  0.02601  1.0000
  H   H1737     1.0  0.80583  0.15855  0.03786  1.0000
  H   H1738     1.0  0.86199  0.16386  0.05800  1.0000
  H   H1739     1.0  0.87394  0.19716  0.04605  1.0000
  C   C1457     1.0  0.83268  0.21837  0.10229  1.0000
  C   C1458     1.0  0.89526  0.12577  0.23774  1.0000
  C   C1459     1.0  0.89049  0.14082  0.23068  1.0000
  C   C1460     1.0  0.88569  0.14286  0.20442  1.0000
  C   C1461     1.0  0.88552  0.12992  0.18484  1.0000
  C   C1462     1.0  0.89073  0.11512  0.19182  1.0000
  C   C1463     1.0  0.89549  0.11303  0.21810  1.0000
  H   H1740     1.0  0.89023  0.15076  0.24548  1.0000
  H   H1741     1.0  0.88182  0.15445  0.19930  1.0000
  H   H1742     1.0  0.89120  0.10536  0.17698  1.0000
  H   H1743     1.0  0.89923  0.10138  0.22328  1.0000
  C   C1464     1.0  0.88437  0.12419  0.43471  1.0000
  C   C1465     1.0  0.90186  0.13382  0.44714  1.0000
  N   N97       1.0  0.82482  0.19984  0.11485  1.0000
  H   H1744     1.0  0.65110  0.14888  0.33178  1.0000
  C   C1466     1.0  0.80689  0.18870  0.10078  1.0000
  C   C1467     1.0  0.86911  0.11376  0.45007  1.0000
  H   H1745     1.0  0.91377  0.14180  0.43564  1.0000
  C   C1468     1.0  0.82603  0.21812  0.15698  1.0000
  C   C1469     1.0  0.97729  0.17246  0.25883  1.0000
  H   H1746     1.0  0.85554  0.10615  0.44067  1.0000
  H   H1747     1.0  0.77673  0.15868  0.38015  1.0000
  C   C1470     1.0  0.77869  0.21456  0.16378  1.0000
  C   C1471     1.0  0.77823  0.21295  0.13628  1.0000
  H   H1748     1.0  0.77130  0.20251  0.17532  1.0000
  H   H1749     1.0  0.76996  0.19967  0.12690  1.0000
  H   H1750     1.0  0.80865  0.18848  0.07930  1.0000
  H   H1751     1.0  0.82708  0.23012  0.43321  1.0000
  C   C1472     1.0  0.85888  0.19466  0.43873  1.0000
  C   C1473     1.0  0.82313  0.21855  0.18380  1.0000
  C   C1474     1.0  0.80349  0.17701  0.41803  1.0000
  C   C1475     1.0  0.82023  0.17314  0.29394  1.0000
  C   C1476     1.0  0.83119  0.19214  0.29828  1.0000
  C   C1477     1.0  0.84983  0.19788  0.30805  1.0000
  C   C1478     1.0  0.85791  0.18477  0.31320  1.0000
  C   C1479     1.0  0.84707  0.16581  0.30844  1.0000
  C   C1480     1.0  0.82836  0.16005  0.29891  1.0000
  H   H1752     1.0  0.82533  0.20247  0.29437  1.0000
  H   H1753     1.0  0.85809  0.21259  0.31147  1.0000
  H   H1754     1.0  0.85301  0.15552  0.31218  1.0000
  H   H1755     1.0  0.82008  0.14532  0.29562  1.0000
  C   C1481     1.0  0.82087  0.21524  0.42885  1.0000
  C   C1482     1.0  0.82130  0.01219  0.09713  1.0000
  C   C1483     1.0  0.81811  0.02877  0.09342  1.0000
  C   C1484     1.0  0.79974  0.02794  0.09541  1.0000
  C   C1485     1.0  0.78482  0.01076  0.10045  1.0000
  H   H1756     1.0  0.83540  0.01257  0.09567  1.0000
  H   H1757     1.0  0.79691  0.04044  0.09259  1.0000
  H   H1758     1.0  0.77067  0.01033  0.10158  1.0000
  C   C1486     1.0  0.77546  0.21887  0.41265  1.0000
  C   C1487     1.0  0.67159  0.12617  0.26067  1.0000
  C   C1488     1.0  0.68877  0.14177  0.26410  1.0000
  C   C1489     1.0  0.68909  0.15993  0.26342  1.0000
  C   C1490     1.0  0.67195  0.16218  0.25906  1.0000
  H   H1759     1.0  0.83126  0.15606  0.46598  1.0000
  H   H1760     1.0  0.67160  0.11222  0.26134  1.0000
  H   H1761     1.0  0.70174  0.13970  0.26740  1.0000
  H   H1762     1.0  0.67196  0.17612  0.25837  1.0000
  C   C1491     1.0  0.88313  0.07729  0.43037  1.0000
  N   N98       1.0  0.86127  0.17039  0.46925  1.0000
  C   C1492     1.0  0.81623  0.20269  0.44927  1.0000
  H   H1763     1.0  0.79614  0.19472  0.10411  1.0000
  H   H1764     1.0  0.79664  0.16209  0.41485  1.0000
  H   H1765     1.0  0.82299  0.22589  0.10365  1.0000
  C   C1493     1.0  0.82374  0.01674  0.02872  1.0000
  H   H1766     1.0  0.83254  0.17576  0.11717  1.0000
  H   H1767     1.0  0.84190  0.19046  0.09038  1.0000
  H   H1768     1.0  0.83599  0.11854  0.99024  1.0000
  H   H1769     1.0  0.77343  0.18006  0.37411  1.0000
  C   C1494     1.0  0.89258  0.08407  0.45411  1.0000
  H   H1770     1.0  0.84971  0.01399  0.02064  1.0000
  H   H1771     1.0  0.80097  0.17389  0.10682  1.0000
  H   H1772     1.0  0.96362  0.14537  0.29236  1.0000
  H   H1773     1.0  0.81885  0.20785  0.46933  1.0000
  H   H1774     1.0  0.74768  0.21939  0.21376  1.0000
  H   H1775     1.0  0.94667  0.18026  0.26497  1.0000
  C   C1495     1.0  0.78846  0.23186  0.17619  1.0000
  C   C1496     1.0  0.85978  0.20231  0.41392  1.0000
  H   H1776     1.0  0.85159  0.19797  0.12262  1.0000
  C   C1497     1.0  0.83826  0.19060  0.11118  1.0000
  H   H1777     1.0  0.76542  0.20947  0.37311  1.0000
  C   C1498     1.0  0.78122  0.17130  0.36791  1.0000
  C   C1499     1.0  0.72656  0.18530  0.19592  1.0000
  H   H1778     1.0  0.82963  0.03186  0.02746  1.0000
  S   S408      1.0  0.78831  0.23520  0.21064  1.0000
  H   H1779     1.0  0.84884  0.11510  0.22599  1.0000
  C   C1500     1.0  0.65477  0.14657  0.25552  1.0000
  N   N99       1.0  0.83975  0.06568  0.16738  1.0000
  C   C1501     1.0  0.82257  0.06665  0.15494  1.0000
  C   C1502     1.0  0.85617  0.07648  0.15171  1.0000
  C   C1503     1.0  0.83760  0.04579  0.16624  1.0000
  C   C1504     1.0  0.84263  0.07381  0.19419  1.0000
  C   C1505     1.0  0.84513  0.06409  0.21649  1.0000
  C   C1506     1.0  0.84390  0.09240  0.19845  1.0000
  C   C1507     1.0  0.84887  0.07265  0.24132  1.0000
  C   C1508     1.0  0.74034  0.22285  0.11485  1.0000
  H   H1780     1.0  0.71023  0.18462  0.14437  1.0000
  H   H1781     1.0  0.82350  0.08121  0.15286  1.0000
  H   H1782     1.0  0.81993  0.06040  0.13481  1.0000
  H   H1783     1.0  0.80997  0.05904  0.16652  1.0000
  H   H1784     1.0  0.86933  0.07599  0.16036  1.0000
  H   H1785     1.0  0.85826  0.09145  0.15040  1.0000
  H   H1786     1.0  0.85467  0.07091  0.13135  1.0000
  H   H1787     1.0  0.82538  0.03679  0.17756  1.0000
  H   H1788     1.0  0.83511  0.04014  0.14577  1.0000
  H   H1789     1.0  0.85051  0.04404  0.17356  1.0000
  H   H1790     1.0  0.84456  0.04998  0.21526  1.0000
  H   H1791     1.0  0.84290  0.10099  0.18240  1.0000
  H   H1792     1.0  0.96262  0.13495  0.24409  1.0000
  C   C1509     1.0  0.81392  0.18431  0.15773  1.0000
  H   H1793     1.0  0.69360  0.18609  0.18033  1.0000
  Fe  Fe205     1.0  0.80407  0.23901  0.99148  1.0000
  N   N100      1.0  0.95760  0.15877  0.25856  1.0000
  H   H1794     1.0  0.85116  0.06521  0.25803  1.0000
  H   H1795     1.0  0.86887  0.15674  0.42104  1.0000
  C   C1510     1.0  0.95299  0.15072  0.28492  1.0000
  H   H1796     1.0  0.76493  0.20694  0.42152  1.0000
  H   H1797     1.0  0.69839  0.20974  0.19069  1.0000
  S   S409      1.0  0.96688  0.17804  0.34783  1.0000
  H   H1798     1.0  0.95555  0.14773  0.21921  1.0000
  H   H1799     1.0  0.85747  0.21513  0.41136  1.0000
  H   H1800     1.0  0.83487  0.21705  0.08103  1.0000
  C   C1511     1.0  0.83506  0.00665  0.02516  1.0000
  C   C1512     1.0  0.86529  0.06311  0.43003  1.0000
  C   C1513     1.0  0.90407  0.13266  0.47448  1.0000
  H   H1801     1.0  0.81301  0.20248  0.21820  1.0000
  H   H1802     1.0  0.87643  0.14931  0.99275  1.0000
  C   C1514     1.0  0.73224  0.21578  0.21348  1.0000
  C   C1515     1.0  0.78906  0.23576  0.37351  1.0000
  C   C1516     1.0  0.86381  0.19360  0.39236  1.0000
  C   C1517     1.0  0.74237  0.22801  0.16172  1.0000
  H   H1803     1.0  0.85489  0.14168  0.45802  1.0000
  H   H1804     1.0  0.77640  0.16623  0.34752  1.0000
  H   H1805     1.0  0.74172  0.18829  0.19350  1.0000
  C   C1518     1.0  0.86368  0.15203  0.99729  1.0000
  C   C1519     1.0  0.85009  0.09093  0.24472  1.0000
  H   H1806     1.0  0.82545  0.14234  0.99810  1.0000
  H   H1807     1.0  0.87014  0.17052  0.37854  1.0000
  H   H1808     1.0  0.69733  0.19221  0.21418  1.0000
  H   H1809     1.0  0.83766  0.16574  0.98856  1.0000
  C   C1520     1.0  0.86529  0.15315  0.47015  1.0000
  C   C1521     1.0  0.77576  0.22021  0.38520  1.0000
  H   H1810     1.0  0.95227  0.16104  0.29949  1.0000
  C   C1522     1.0  0.84224  0.16579  0.47953  1.0000
  H   H1811     1.0  0.80383  0.17388  0.45985  1.0000
  H   H1812     1.0  0.84662  0.22731  0.11108  1.0000
  H   H1813     1.0  0.92983  0.15870  0.25203  1.0000
  H   H1814     1.0  0.84282  0.04499  0.45217  1.0000
  H   H1815     1.0  0.74543  0.22760  0.09558  1.0000
  H   H1816     1.0  0.93872  0.13281  0.24059  1.0000
  C   C1523     1.0  0.85668  0.05594  0.45346  1.0000
  C   C1524     1.0  0.88405  0.07713  0.47767  1.0000
  H   H1817     1.0  0.85783  0.14420  0.01531  1.0000
  C   C1525     1.0  0.80769  0.18359  0.44388  1.0000
  S   S410      1.0  0.78728  0.23056  0.46320  1.0000
  H   H1818     1.0  0.72727  0.20990  0.23292  1.0000
  H   H1819     1.0  0.94748  0.17409  0.23144  1.0000
  H   H1820     1.0  0.80508  0.17209  0.19532  1.0000
  H   H1821     1.0  0.81985  0.21945  0.38821  1.0000
  C   C1526     1.0  0.86612  0.16941  0.42019  1.0000
  H   H1822     1.0  0.72960  0.22888  0.21209  1.0000
  N   N101      1.0  0.72256  0.20236  0.19191  1.0000
  C   C1527     1.0  0.89639  0.12617  0.98778  1.0000
  H   H1823     1.0  0.74960  0.23743  0.17769  1.0000
  C   C1528     1.0  0.81551  0.20201  0.19749  1.0000
  C   C1529     1.0  0.82153  0.20091  0.14309  1.0000
  C   C1530     1.0  0.72854  0.20982  0.16564  1.0000
  H   H1824     1.0  0.87587  0.09798  0.98638  1.0000
  H   H1825     1.0  0.88952  0.08329  0.41222  1.0000
  C   C1531     1.0  0.81094  0.18492  0.18450  1.0000
  H   H1826     1.0  0.85800  0.05790  0.41147  1.0000
  H   H1827     1.0  0.90634  0.09534  0.45428  1.0000
  C   C1532     1.0  0.87120  0.11306  0.47746  1.0000
  H   H1828     1.0  0.82160  0.20527  0.34896  1.0000
  N   N102      1.0  0.80181  0.18215  0.36971  1.0000
  S   S411      1.0  0.78982  0.23850  0.33908  1.0000
  C   C1533     1.0  0.80624  0.19697  0.34986  1.0000
  C   C1534     1.0  0.81154  0.16968  0.36245  1.0000
  C   C1535     1.0  0.80745  0.18946  0.39675  1.0000
  C   C1536     1.0  0.81652  0.20885  0.40294  1.0000
  H   H1829     1.0  0.72090  0.19608  0.10093  1.0000
  C   C1537     1.0  0.84742  0.10071  0.22337  1.0000
  C   C1538     1.0  0.86690  0.17717  0.39546  1.0000
  H   H1830     1.0  0.85356  0.09773  0.26384  1.0000
  H   H1831     1.0  0.97761  0.21901  0.34716  1.0000
  C   C1539     1.0  0.94487  0.16837  0.25147  1.0000
  C   C1540     1.0  0.86212  0.17802  0.44268  1.0000
  H   H1832     1.0  0.79897  0.20662  0.35361  1.0000
  H   H1833     1.0  0.80145  0.19100  0.32989  1.0000
  H   H1834     1.0  0.82703  0.17749  0.36201  1.0000
  H   H1835     1.0  0.80879  0.15790  0.37600  1.0000
  H   H1836     1.0  0.80682  0.16324  0.34269  1.0000
  C   C1541     1.0  0.70208  0.19740  0.19428  1.0000
  H   H1837     1.0  0.72290  0.17970  0.21589  1.0000
  H   H1838     1.0  0.86840  0.16715  0.00230  1.0000
  H   H1839     1.0  0.81027  0.17072  0.14855  1.0000
  H   H1840     1.0  0.86470  0.19964  0.37316  1.0000
  C   C1542     1.0  0.72073  0.19860  0.14294  1.0000
  C   C1543     1.0  0.86560  0.06306  0.47805  1.0000
  S   S412      1.0  0.78558  0.22592  0.08618  1.0000
  H   H1841     1.0  0.93903  0.13897  0.28508  1.0000
  C   C1544     1.0  0.65444  0.12839  0.25644  1.0000
  C   C1545     1.0  0.80639  0.99504  0.10229  1.0000
  C   C1546     1.0  0.95362  0.14292  0.23974  1.0000
  Fe  Fe206     1.0  0.83693  0.23756  0.02442  1.0000
  H   H1842     1.0  0.83151  0.23148  0.14757  1.0000
  H   H1843     1.0  0.82628  0.23180  0.19397  1.0000
  C   C1547     1.0  0.78794  0.99412  0.10372  1.0000
  H   H1844     1.0  0.71845  0.17375  0.18210  1.0000
  C   C1548     1.0  0.78856  0.23291  0.42872  1.0000
  H   H1845     1.0  0.87966  0.15571  0.46333  1.0000
  C   C1549     1.0  0.74803  0.23435  0.13665  1.0000
  H   H1846     1.0  0.79628  0.01543  0.03787  1.0000
  C   C1550     1.0  0.80493  0.00745  0.03461  1.0000
  H   H1847     1.0  0.97409  0.18922  0.29153  1.0000
  H   H1848     1.0  0.88957  0.18918  0.47888  1.0000
  H   H1849     1.0  0.97500  0.18642  0.40735  1.0000
  H   H1850     1.0  0.91678  0.15405  0.98223  1.0000
  C   C1551     1.0  0.83346  0.15099  0.98182  1.0000
  Fe  Fe207     1.0  0.74658  0.18099  0.77251  1.0000
  S   S413      1.0  0.76314  0.21197  0.76667  1.0000
  S   S414      1.0  0.71452  0.17355  0.77467  1.0000
  Fe  Fe208     1.0  0.78342  0.17488  0.78382  1.0000
  S   S415      1.0  0.80115  0.20501  0.77905  1.0000
  S   S416      1.0  0.79822  0.15596  0.79705  1.0000
  Fe  Fe209     1.0  0.77983  0.21054  0.80279  1.0000
  H   H1851     1.0  0.86558  0.03376  0.50564  1.0000
  Fe  Fe210     1.0  0.78297  0.20328  0.74321  1.0000
  S   S417      1.0  0.78507  0.22155  0.95797  1.0000
  S   S418      1.0  0.76283  0.18033  0.80967  1.0000
  S   S419      1.0  0.76575  0.17240  0.74698  1.0000
  Fe  Fe211     1.0  0.90644  0.14143  0.80398  1.0000
  S   S420      1.0  0.92196  0.17252  0.80299  1.0000
  S   S421      1.0  0.89928  0.12133  0.76864  1.0000
  Fe  Fe212     1.0  0.90471  0.14190  0.86490  1.0000
  S   S422      1.0  0.92028  0.17309  0.86774  1.0000
  S   S423      1.0  0.89137  0.12157  0.89764  1.0000
  Fe  Fe213     1.0  0.90140  0.17319  0.83322  1.0000
  S   S424      1.0  0.88520  0.19201  0.82911  1.0000
  Fe  Fe214     1.0  0.93957  0.16948  0.83726  1.0000
  S   S425      1.0  0.97171  0.17797  0.83628  1.0000
  S   S426      1.0  0.88492  0.14237  0.83205  1.0000
  S   S427      1.0  0.92489  0.13802  0.83667  1.0000
  S   S428      1.0  0.80761  0.22434  0.52729  1.0000
  S   S429      1.0  0.85670  0.22040  0.52897  1.0000
  Fe  Fe215     1.0  0.83820  0.07910  0.58151  1.0000
  S   S430      1.0  0.86957  0.09316  0.59035  1.0000
  S   S431      1.0  0.82537  0.04691  0.57473  1.0000
  Fe  Fe216     1.0  0.83576  0.11767  0.57177  1.0000
  S   S432      1.0  0.86635  0.13291  0.58017  1.0000
  S   S433      1.0  0.81854  0.13453  0.55915  1.0000
  Fe  Fe217     1.0  0.87016  0.11089  0.55518  1.0000
  S   S434      1.0  0.89254  0.12033  0.52397  1.0000
  Fe  Fe218     1.0  0.86240  0.11404  0.61458  1.0000
  S   S435      1.0  0.87393  0.13198  0.65193  1.0000
  S   S436      1.0  0.83955  0.09619  0.54530  1.0000
  S   S437      1.0  0.83108  0.09937  0.60717  1.0000
  C   C1552     1.0  0.84578  0.19673  0.53810  1.0000
  C   C1553     1.0  0.82646  0.18665  0.53424  1.0000
  C   C1554     1.0  0.81832  0.16767  0.54088  1.0000
  C   C1555     1.0  0.82940  0.15849  0.55127  1.0000
  C   C1556     1.0  0.84871  0.16860  0.55509  1.0000
  C   C1557     1.0  0.85684  0.18758  0.54852  1.0000
  H   H1852     1.0  0.81777  0.19328  0.52563  1.0000
  H   H1853     1.0  0.80337  0.16000  0.53766  1.0000
  H   H1854     1.0  0.85748  0.16191  0.56315  1.0000
  H   H1855     1.0  0.87180  0.19519  0.55160  1.0000
  C   C1558     1.0  0.78809  0.22482  0.92387  1.0000
  C   C1559     1.0  0.89241  0.12463  0.73622  1.0000
  C   C1560     1.0  0.88699  0.10957  0.71814  1.0000
  C   C1561     1.0  0.88108  0.11141  0.69237  1.0000
  C   C1562     1.0  0.88051  0.12840  0.68437  1.0000
  C   C1563     1.0  0.88569  0.14338  0.70258  1.0000
  C   C1564     1.0  0.89165  0.14155  0.72831  1.0000
  H   H1856     1.0  0.88742  0.09637  0.72409  1.0000
  H   H1857     1.0  0.87714  0.09976  0.67864  1.0000
  H   H1858     1.0  0.88538  0.15661  0.69661  1.0000
  H   H1859     1.0  0.89582  0.15328  0.74192  1.0000
  C   C1565     1.0  0.89326  0.12416  0.93230  1.0000
  C   C1566     1.0  0.90527  0.14061  0.94504  1.0000
  H   H1860     1.0  0.82312  0.24008  0.62137  1.0000
  H   H1861     1.0  0.84072  0.15889  0.49881  1.0000
  H   H1862     1.0  0.70072  0.19624  0.84324  1.0000
  C   C1567     1.0  0.88255  0.10893  0.94749  1.0000
  H   H1863     1.0  0.91363  0.15244  0.93367  1.0000
  C   C1568     1.0  0.72347  0.19830  0.88649  1.0000
  C   C1569     1.0  0.94108  0.13126  0.90914  1.0000
  H   H1864     1.0  0.87324  0.09612  0.93788  1.0000
  C   C1570     1.0  0.93683  0.16836  0.69475  1.0000
  C   C1571     1.0  0.78003  0.22005  0.66600  1.0000
  C   C1572     1.0  0.85454  0.20872  0.86918  1.0000
  H   H1865     1.0  0.76798  0.21444  0.67827  1.0000
  H   H1866     1.0  0.65625  0.13849  0.66102  1.0000
  S   S438      1.0  0.78962  0.23897  0.59153  1.0000
  C   C1573     1.0  0.77961  0.21183  0.87941  1.0000
  C   C1574     1.0  0.77890  0.20960  0.90669  1.0000
  H   H1867     1.0  0.77249  0.19993  0.86657  1.0000
  H   H1868     1.0  0.77095  0.19603  0.91458  1.0000
  C   C1575     1.0  0.82241  0.16621  0.80590  1.0000
  C   C1576     1.0  0.83437  0.18273  0.79460  1.0000
  C   C1577     1.0  0.85363  0.19034  0.80150  1.0000
  C   C1578     1.0  0.86123  0.18134  0.81939  1.0000
  C   C1579     1.0  0.84932  0.16475  0.83063  1.0000
  C   C1580     1.0  0.83001  0.15722  0.82385  1.0000
  H   H1869     1.0  0.82889  0.18952  0.78016  1.0000
  H   H1870     1.0  0.86271  0.20323  0.79282  1.0000
  H   H1871     1.0  0.85491  0.15790  0.84490  1.0000
  H   H1872     1.0  0.82088  0.14446  0.83275  1.0000
  H   H1873     1.0  0.82353  0.14857  0.96478  1.0000
  C   C1581     1.0  0.80699  0.00835  0.57580  1.0000
  C   C1582     1.0  0.81022  0.02543  0.58897  1.0000
  C   C1583     1.0  0.80136  0.02481  0.61270  1.0000
  C   C1584     1.0  0.78947  0.00746  0.62290  1.0000
  H   H1874     1.0  0.81368  0.00851  0.55745  1.0000
  H   H1875     1.0  0.80358  0.03769  0.62315  1.0000
  H   H1876     1.0  0.78265  0.00731  0.64114  1.0000
  H   H1877     1.0  0.73482  0.20450  0.80952  1.0000
  C   C1585     1.0  0.67356  0.12463  0.74587  1.0000
  C   C1586     1.0  0.69131  0.13877  0.75239  1.0000
  C   C1587     1.0  0.69252  0.15508  0.76567  1.0000
  C   C1588     1.0  0.67565  0.15697  0.77214  1.0000
  H   H1878     1.0  0.74113  0.21084  0.94846  1.0000
  H   H1879     1.0  0.67291  0.11208  0.73577  1.0000
  H   H1880     1.0  0.70404  0.13699  0.74724  1.0000
  H   H1881     1.0  0.67630  0.16946  0.78239  1.0000
  H   H1882     1.0  0.97974  0.18607  0.75025  1.0000
  S   S439      1.0  0.78998  0.23322  0.83479  1.0000
  C   C1589     1.0  0.77782  0.22515  0.64011  1.0000
  C   C1590     1.0  0.84558  0.11044  0.76890  1.0000
  N   N103      1.0  0.96173  0.15694  0.75380  1.0000
  H   H1883     1.0  0.85913  0.11434  0.75894  1.0000
  C   C1591     1.0  0.83731  0.05819  0.50183  1.0000
  H   H1884     1.0  0.85284  0.19414  0.87365  1.0000
  H   H1885     1.0  0.83647  0.09581  0.76314  1.0000
  H   H1886     1.0  0.85527  0.14381  0.79006  1.0000
  H   H1887     1.0  0.86190  0.14705  0.75662  1.0000
  H   H1888     1.0  0.83241  0.12038  0.95579  1.0000
  C   C1592     1.0  0.94136  0.13749  0.71672  1.0000
  N   N104      1.0  0.81083  0.17485  0.62463  1.0000
  C   C1593     1.0  0.79444  0.17994  0.62939  1.0000
  C   C1594     1.0  0.82292  0.18831  0.60586  1.0000
  C   C1595     1.0  0.80342  0.15588  0.61240  1.0000
  C   C1596     1.0  0.82213  0.17516  0.64858  1.0000
  C   C1597     1.0  0.83727  0.16902  0.64761  1.0000
  C   C1598     1.0  0.81901  0.18205  0.67311  1.0000
  C   C1599     1.0  0.84821  0.16927  0.66990  1.0000
  C   C1600     1.0  0.83018  0.18246  0.69522  1.0000
  C   C1601     1.0  0.84471  0.17602  0.69365  1.0000
  H   H1889     1.0  0.79889  0.19460  0.63660  1.0000
  H   H1890     1.0  0.78591  0.17902  0.61116  1.0000
  H   H1891     1.0  0.78490  0.17058  0.64382  1.0000
  H   H1892     1.0  0.82919  0.20267  0.61463  1.0000
  H   H1893     1.0  0.81488  0.18904  0.58782  1.0000
  H   H1894     1.0  0.83468  0.18447  0.59950  1.0000
  H   H1895     1.0  0.79460  0.14525  0.62612  1.0000
  H   H1896     1.0  0.79476  0.15515  0.59437  1.0000
  H   H1897     1.0  0.81471  0.15139  0.60612  1.0000
  H   H1898     1.0  0.84091  0.16407  0.62955  1.0000
  H   H1899     1.0  0.80813  0.18740  0.67579  1.0000
  H   H1900     1.0  0.82755  0.18794  0.71364  1.0000
  H   H1901     1.0  0.85326  0.17627  0.71087  1.0000
  C   C1602     1.0  0.79782  0.22230  0.67596  1.0000
  N   N105      1.0  0.85565  0.05607  0.50255  1.0000
  H   H1902     1.0  0.96399  0.18524  0.88904  1.0000
  S   S440      1.0  0.80157  0.21585  0.70825  1.0000
  H   H1903     1.0  0.85870  0.13239  0.92831  1.0000
  C   C1603     1.0  0.97037  0.17637  0.76449  1.0000
  N   N106      1.0  0.97910  0.17962  0.92190  1.0000
  H   H1904     1.0  0.82838  0.23505  0.87535  1.0000
  C   C1604     1.0  0.85867  0.15642  0.95149  1.0000
  H   H1905     1.0  0.87589  0.17869  0.50661  1.0000
  C   C1605     1.0  0.90703  0.14147  0.97260  1.0000
  H   H1906     1.0  0.80875  0.20232  0.86145  1.0000
  C   C1606     1.0  0.84832  0.21993  0.92299  1.0000
  H   H1907     1.0  0.94225  0.12501  0.72479  1.0000
  H   H1908     1.0  0.83896  0.17841  0.48260  1.0000
  H   H1909     1.0  0.75503  0.23999  0.83729  1.0000
  C   C1607     1.0  0.84289  0.12566  0.97224  1.0000
  C   C1608     1.0  0.94753  0.17058  0.71792  1.0000
  H   H1910     1.0  0.94430  0.12997  0.76911  1.0000
  H   H1911     1.0  0.71439  0.18585  0.87592  1.0000
  H   H1912     1.0  0.93297  0.12289  0.89267  1.0000
  H   H1913     1.0  0.80497  0.18913  0.90158  1.0000
  H   H1914     1.0  0.84201  0.23408  0.84797  1.0000
  C   C1609     1.0  0.86626  0.06610  0.52636  1.0000
  C   C1610     1.0  0.65670  0.12644  0.75257  1.0000
  C   C1611     1.0  0.85216  0.03600  0.50535  1.0000
  C   C1612     1.0  0.82802  0.20615  0.95881  1.0000
  C   C1613     1.0  0.79327  0.23231  0.62373  1.0000
  H   H1915     1.0  0.87345  0.14999  0.89074  1.0000
  C   C1614     1.0  0.73611  0.20356  0.83110  1.0000
  C   C1615     1.0  0.88878  0.12228  0.48982  1.0000
  H   H1916     1.0  0.81870  0.18460  0.86275  1.0000
  H   H1917     1.0  0.87186  0.19702  0.49024  1.0000
  H   H1918     1.0  0.84928  0.11058  0.79010  1.0000
  N   N107      1.0  0.83621  0.12356  0.76294  1.0000
  C   C1616     1.0  0.81986  0.11868  0.78019  1.0000
  C   C1617     1.0  0.84966  0.14273  0.76963  1.0000
  C   C1618     1.0  0.83012  0.12294  0.73517  1.0000
  C   C1619     1.0  0.83639  0.11399  0.71528  1.0000
  C   C1620     1.0  0.81848  0.13246  0.72704  1.0000
  C   C1621     1.0  0.83090  0.11420  0.68910  1.0000
  C   C1622     1.0  0.81286  0.13234  0.70085  1.0000
  C   C1623     1.0  0.81909  0.12325  0.68191  1.0000
  H   H1919     1.0  0.81331  0.12917  0.77988  1.0000
  H   H1920     1.0  0.80877  0.10493  0.77439  1.0000
  H   H1921     1.0  0.82393  0.11801  0.80105  1.0000
  H   H1922     1.0  0.84309  0.15317  0.76768  1.0000
  C   C1624     1.0  0.74448  0.23091  0.88899  1.0000
  H   H1923     1.0  0.84311  0.02725  0.48913  1.0000
  H   H1924     1.0  0.84582  0.10697  0.71930  1.0000
  H   H1925     1.0  0.81380  0.14032  0.74081  1.0000
  H   H1926     1.0  0.83614  0.10756  0.67419  1.0000
  H   H1927     1.0  0.80393  0.13967  0.69517  1.0000
  H   H1928     1.0  0.81506  0.12346  0.66152  1.0000
  N   N108      1.0  0.72940  0.21654  0.84497  1.0000
  H   H1929     1.0  0.86171  0.22994  0.91702  1.0000
  C   C1625     1.0  0.73952  0.23547  0.83442  1.0000
  C   C1626     1.0  0.73241  0.21544  0.87349  1.0000
  C   C1627     1.0  0.94980  0.14512  0.77424  1.0000
  H   H1930     1.0  0.93470  0.18021  0.68634  1.0000
  H   H1931     1.0  0.86746  0.21831  0.87960  1.0000
  H   H1932     1.0  0.87984  0.06434  0.52907  1.0000
  C   C1628     1.0  0.92856  0.15087  0.68252  1.0000
  Fe  Fe219     1.0  0.83885  0.23776  0.52721  1.0000
  H   H1933     1.0  0.70324  0.21996  0.84950  1.0000
  H   H1934     1.0  0.91995  0.14913  0.66482  1.0000
  C   C1629     1.0  0.72644  0.19675  0.91326  1.0000
  H   H1935     1.0  0.73696  0.23580  0.81296  1.0000
  H   H1936     1.0  0.71977  0.18344  0.92270  1.0000
  C   C1630     1.0  0.78920  0.22946  0.86898  1.0000
  C   C1631     1.0  0.70909  0.21105  0.83856  1.0000
  H   H1937     1.0  0.83919  0.07286  0.49771  1.0000
  C   C1632     1.0  0.93076  0.13547  0.69353  1.0000
  H   H1938     1.0  0.89200  0.08357  0.49526  1.0000
  H   H1939     1.0  0.85748  0.21084  0.84803  1.0000
  H   H1940     1.0  0.94381  0.12993  0.97520  1.0000
  C   C1633     1.0  0.87524  0.18446  0.48693  1.0000
  C   C1634     1.0  0.83417  0.20949  0.90428  1.0000
  H   H1941     1.0  0.65181  0.13847  0.69500  1.0000
  C   C1635     1.0  0.81676  0.19726  0.91417  1.0000
  H   H1942     1.0  0.86278  0.18412  0.96694  1.0000
  H   H1943     1.0  0.85948  0.16416  0.66867  1.0000
  C   C1636     1.0  0.96981  0.19092  0.90876  1.0000
  C   C1637     1.0  0.93741  0.12432  0.93426  1.0000
  C   C1638     1.0  0.81332  0.22961  0.65963  1.0000
  H   H1944     1.0  0.75113  0.20685  0.83619  1.0000
  H   H1945     1.0  0.88286  0.18426  0.88980  1.0000
  C   C1639     1.0  0.86453  0.17616  0.95048  1.0000
  H   H1946     1.0  0.70650  0.21225  0.81727  1.0000
  H   H1947     1.0  0.84487  0.03041  0.52384  1.0000
  H   H1948     1.0  0.92647  0.11068  0.93721  1.0000
  H   H1949     1.0  0.97847  0.19215  0.95948  1.0000
  H   H1950     1.0  0.95950  0.18168  0.77047  1.0000
  N   N109      1.0  0.83754  0.21218  0.87595  1.0000
  H   H1951     1.0  0.86467  0.14774  0.49036  1.0000
  C   C1640     1.0  0.74722  0.22921  0.91579  1.0000
  C   C1641     1.0  0.95468  0.14911  0.90526  1.0000
  C   C1642     1.0  0.96081  0.15315  0.95202  1.0000
  H   H1952     1.0  0.64973  0.15647  0.67470  1.0000
  H   H1953     1.0  0.95754  0.14697  0.79340  1.0000
  C   C1643     1.0  0.84051  0.23168  0.86937  1.0000
  C   C1644     1.0  0.81381  0.19577  0.94106  1.0000
  C   C1645     1.0  0.95028  0.15516  0.72951  1.0000
  C   C1646     1.0  0.84528  0.21813  0.94983  1.0000
  C   C1647     1.0  0.87071  0.15729  0.90731  1.0000
  H   H1954     1.0  0.72806  0.18867  0.83575  1.0000
  C   C1648     1.0  0.88399  0.10995  0.97503  1.0000
  H   H1955     1.0  0.83006  0.05445  0.52074  1.0000
  H   H1956     1.0  0.82492  0.20170  0.83784  1.0000
  C   C1649     1.0  0.87303  0.18603  0.92842  1.0000
  H   H1957     1.0  0.85612  0.22645  0.96387  1.0000
  H   H1958     1.0  0.86912  0.08129  0.52567  1.0000
  H   H1959     1.0  0.85832  0.06081  0.54442  1.0000
  H   H1960     1.0  0.95335  0.18448  0.72646  1.0000
  C   C1650     1.0  0.87609  0.17661  0.90684  1.0000
  H   H1961     1.0  0.96764  0.16086  0.96951  1.0000
  C   C1651     1.0  0.86215  0.14727  0.92922  1.0000
  C   C1652     1.0  0.65789  0.14281  0.76568  1.0000
  C   C1653     1.0  0.82176  0.19959  0.85896  1.0000
  H   H1962     1.0  0.92379  0.12178  0.68434  1.0000
  H   H1963     1.0  0.93735  0.14867  0.77727  1.0000
  C   C1654     1.0  0.94721  0.13524  0.95563  1.0000
  C   C1655     1.0  0.73832  0.21217  0.92787  1.0000
  H   H1964     1.0  0.76398  0.22345  0.63271  1.0000
  H   H1965     1.0  0.80014  0.18705  0.94820  1.0000
  H   H1966     1.0  0.97980  0.20555  0.90581  1.0000
  H   H1967     1.0  0.87749  0.20110  0.92824  1.0000
  H   H1968     1.0  0.85462  0.12099  0.96907  1.0000
  N   N110      1.0  0.84980  0.14632  0.97515  1.0000
  H   H1969     1.0  0.85932  0.10502  0.48889  1.0000
  H   H1970     1.0  0.82731  0.04904  0.48682  1.0000
  C   C1656     1.0  0.96499  0.16064  0.92658  1.0000
  H   H1971     1.0  0.91777  0.13978  0.48377  1.0000
  H   H1972     1.0  0.82716  0.23140  0.66713  1.0000
  C   C1657     1.0  0.97721  0.15057  0.74875  1.0000
  H   H1973     1.0  0.97196  0.13553  0.74304  1.0000
  C   C1658     1.0  0.81107  0.23451  0.63363  1.0000
  H   H1974     1.0  0.95796  0.19138  0.92033  1.0000
  H   H1975     1.0  0.97925  0.17730  0.78236  1.0000
  H   H1976     1.0  0.95688  0.15391  0.88538  1.0000
  H   H1977     1.0  0.82551  0.20529  0.97960  1.0000
  H   H1978     1.0  0.98075  0.21661  0.85585  1.0000
  H   H1979     1.0  0.75696  0.24096  0.92718  1.0000
  H   H1980     1.0  0.88748  0.34994  0.46152  1.0000
  Fe  Fe220     1.0  0.91599  0.41556  0.99610  1.0000
  C   C1659     1.0  0.88833  0.39993  0.35812  1.0000
  H   H1981     1.0  0.80618  0.26070  0.17016  1.0000
  S   S441      1.0  0.89442  0.42845  0.99731  1.0000
  H   H1982     1.0  0.90973  0.39070  0.39515  1.0000
  S   S442      1.0  0.92891  0.46948  0.99370  1.0000
  S   S443      1.0  0.90694  0.46589  0.43172  1.0000
  Fe  Fe221     1.0  0.91474  0.44953  0.02543  1.0000
  S   S444      1.0  0.90513  0.46069  0.06106  1.0000
  C   C1660     1.0  0.91114  0.39523  0.07679  1.0000
  S   S445      1.0  0.93548  0.43574  0.02615  1.0000
  Fe  Fe222     1.0  0.92192  0.47840  0.27588  1.0000
  S   S446      1.0  0.92258  0.46042  0.31078  1.0000
  Fe  Fe223     1.0  0.92291  0.47588  0.21506  1.0000
  S   S447      1.0  0.92518  0.45705  0.18180  1.0000
  S   S448      1.0  0.94418  0.47973  0.24762  1.0000
  S   S449      1.0  0.89975  0.47164  0.24347  1.0000
  Fe  Fe224     1.0  0.83091  0.27451  0.02051  1.0000
  S   S450      1.0  0.79916  0.25872  0.02030  1.0000
  S   S451      1.0  0.83963  0.30663  0.01745  1.0000
  H   H1983     1.0  0.89557  0.42604  0.42930  1.0000
  H   H1984     1.0  0.81211  0.25928  0.42910  1.0000
  H   H1985     1.0  0.90065  0.38440  0.12863  1.0000
  H   H1986     1.0  0.81249  0.26187  0.38071  1.0000
  H   H1987     1.0  0.87919  0.42793  0.31363  1.0000
  H   H1988     1.0  0.89344  0.29597  0.47105  1.0000
  S   S452      1.0  0.83566  0.25826  0.05492  1.0000
  C   C1661     1.0  0.88020  0.42192  0.33238  1.0000
  H   H1989     1.0  0.91800  0.41483  0.40499  1.0000
  C   C1662     1.0  0.87592  0.42926  0.35509  1.0000
  H   H1990     1.0  0.80601  0.25759  0.12177  1.0000
  C   C1663     1.0  0.80220  0.24976  0.38958  1.0000
  H   H1991     1.0  0.89689  0.48197  0.38618  1.0000
  C   C1664     1.0  0.88485  0.40759  0.38176  1.0000
  H   H1992     1.0  0.88031  0.36658  0.05940  1.0000
  C   C1665     1.0  0.88640  0.40249  0.05709  1.0000
  C   C1666     1.0  0.97315  0.48980  0.09773  1.0000
  C   C1667     1.0  0.88976  0.36267  0.00312  1.0000
  H   H1993     1.0  0.95462  0.48147  0.41326  1.0000
  C   C1668     1.0  0.87758  0.32859  0.00899  1.0000
  C   C1669     1.0  0.85929  0.32789  0.01153  1.0000
  C   C1670     1.0  0.85640  0.34475  0.00962  1.0000
  C   C1671     1.0  0.87144  0.36198  0.00531  1.0000
  C   C1672     1.0  0.79848  0.24726  0.16078  1.0000
  C   C1673     1.0  0.87822  0.42232  0.37949  1.0000
  H   H1994     1.0  0.96097  0.45655  0.07389  1.0000
  S   S453      1.0  0.90956  0.38402  0.99835  1.0000
  C   C1674     1.0  0.91217  0.46065  0.09428  1.0000
  C   C1675     1.0  0.90605  0.47030  0.11292  1.0000
  C   C1676     1.0  0.91045  0.46985  0.13970  1.0000
  C   C1677     1.0  0.92088  0.45955  0.14815  1.0000
  C   C1678     1.0  0.92730  0.45014  0.12944  1.0000
  C   C1679     1.0  0.92310  0.45080  0.10260  1.0000
  C   C1680     1.0  0.89492  0.39511  0.12882  1.0000
  H   H1995     1.0  0.89298  0.38845  0.35819  1.0000
  H   H1996     1.0  0.93529  0.44207  0.13585  1.0000
  H   H1997     1.0  0.92782  0.44328  0.08850  1.0000
  C   C1681     1.0  0.91202  0.46491  0.39823  1.0000
  C   C1682     1.0  0.92269  0.45504  0.38964  1.0000
  C   C1683     1.0  0.92603  0.45410  0.36287  1.0000
  C   C1684     1.0  0.91914  0.46338  0.34438  1.0000
  C   C1685     1.0  0.90895  0.47376  0.35301  1.0000
  C   C1686     1.0  0.90519  0.47429  0.37977  1.0000
  H   H1998     1.0  0.92824  0.44798  0.40358  1.0000
  H   H1999     1.0  0.93390  0.44602  0.35635  1.0000
  C   C1687     1.0  0.88579  0.41114  0.43003  1.0000
  Fe  Fe225     1.0  0.91875  0.45368  0.46476  1.0000
  H   H2000     1.0  0.91097  0.39674  0.42879  1.0000
  H   H2001     1.0  0.88887  0.39673  0.03821  1.0000
  C   C1688     1.0  0.87905  0.37315  0.07831  1.0000
  C   C1689     1.0  0.88921  0.40127  0.10529  1.0000
  H   H2002     1.0  0.90534  0.47706  0.15389  1.0000
  C   C1690     1.0  0.88136  0.41508  0.10773  1.0000
  N   N111      1.0  0.89136  0.39328  0.07976  1.0000
  C   C1691     1.0  0.87988  0.42251  0.13216  1.0000
  C   C1692     1.0  0.88614  0.41656  0.15473  1.0000
  H   H2003     1.0  0.89758  0.47794  0.10667  1.0000
  H   H2004     1.0  0.91344  0.39042  0.05706  1.0000
  Fe  Fe226     1.0  0.94862  0.45462  0.99257  1.0000
  H   H2005     1.0  0.89505  0.41779  0.05730  1.0000
  H   H2006     1.0  0.91545  0.38676  0.09096  1.0000
  H   H2007     1.0  0.88882  0.40567  0.44890  1.0000
  H   H2008     1.0  0.86402  0.37102  0.08030  1.0000
  H   H2009     1.0  0.92096  0.41006  0.07951  1.0000
  H   H2010     1.0  0.88257  0.36505  0.09392  1.0000
  C   C1693     1.0  0.89356  0.40282  0.15310  1.0000
  H   H2011     1.0  0.87674  0.42084  0.09110  1.0000
  H   H2012     1.0  0.90341  0.48083  0.33896  1.0000
  H   H2013     1.0  0.87449  0.43351  0.13353  1.0000
  H   H2014     1.0  0.88567  0.42296  0.17349  1.0000
  H   H2015     1.0  0.88964  0.40161  0.31609  1.0000
  H   H2016     1.0  0.89853  0.39837  0.17078  1.0000
  C   C1694     1.0  0.97417  0.46682  0.06598  1.0000
  H   H2017     1.0  0.85986  0.37980  0.40822  1.0000
  S   S454      1.0  0.93522  0.43596  0.45763  1.0000
  H   H2018     1.0  0.87526  0.42919  0.39623  1.0000
  C   C1695     1.0  0.89265  0.34582  0.00487  1.0000
  H   H2019     1.0  0.88015  0.31585  0.01041  1.0000
  H   H2020     1.0  0.87147  0.44091  0.35381  1.0000
  C   C1696     1.0  0.90749  0.40065  0.40905  1.0000
  H   H2021     1.0  0.87129  0.40040  0.05673  1.0000
  H   H2022     1.0  0.87628  0.37136  0.39428  1.0000
  C   C1697     1.0  0.80204  0.24832  0.41702  1.0000
  C   C1698     1.0  0.88625  0.40718  0.33387  1.0000
  H   H2023     1.0  0.87653  0.37484  0.42893  1.0000
  S   S455      1.0  0.83525  0.25513  0.99017  1.0000
  H   H2024     1.0  0.75910  0.24799  0.13415  1.0000
  N   N112      1.0  0.88809  0.40028  0.40727  1.0000
  C   C1699     1.0  0.87461  0.38071  0.40975  1.0000
  N   N113      1.0  0.97522  0.48621  0.06974  1.0000
  H   H2025     1.0  0.87118  0.41053  0.43108  1.0000
  H   H2026     1.0  0.90669  0.34607  0.00314  1.0000
  H   H2027     1.0  0.97455  0.46325  0.04494  1.0000
  H   H2028     1.0  0.84234  0.34444  0.01152  1.0000
  C   C1700     1.0  0.96051  0.48838  0.05235  1.0000
  S   S456      1.0  0.98034  0.47060  0.99042  1.0000
  H   H2029     1.0  0.96237  0.48538  0.03153  1.0000
  H   H2030     1.0  0.86882  0.37467  0.00390  1.0000
  H   H2031     1.0  0.94619  0.47857  0.05752  1.0000
  C   C1701     1.0  0.79849  0.24553  0.13331  1.0000
  Fe  Fe227     1.0  0.80444  0.24174  0.05301  1.0000
  H   H2032     1.0  0.92057  0.32102  0.47746  1.0000
  H   H2033     1.0  0.89272  0.37722  0.53622  1.0000
  C   C1702     1.0  0.82877  0.34692  0.62969  1.0000
  C   C1703     1.0  0.86190  0.46521  0.67370  1.0000
  C   C1704     1.0  0.79808  0.24236  0.91344  1.0000
  S   S457      1.0  0.90240  0.43623  0.49775  1.0000
  C   C1705     1.0  0.87579  0.36867  0.92511  1.0000
  C   C1706     1.0  0.95961  0.48099  0.92307  1.0000
  S   S458      1.0  0.89620  0.45551  0.93171  1.0000
  Fe  Fe228     1.0  0.92629  0.45430  0.52485  1.0000
  S   S459      1.0  0.92784  0.47239  0.56113  1.0000
  C   C1707     1.0  0.79760  0.29076  0.58181  1.0000
  S   S460      1.0  0.94328  0.43641  0.52051  1.0000
  C   C1708     1.0  0.87306  0.33201  0.49279  1.0000
  S   S461      1.0  0.90739  0.45259  0.80935  1.0000
  H   H2034     1.0  0.85589  0.37872  0.95742  1.0000
  S   S462      1.0  0.90720  0.45498  0.68070  1.0000
  S   S463      1.0  0.93232  0.47245  0.74961  1.0000
  H   H2035     1.0  0.87202  0.41224  0.82593  1.0000
  Fe  Fe229     1.0  0.83905  0.27763  0.52623  1.0000
  S   S464      1.0  0.80729  0.26615  0.52608  1.0000
  S   S465      1.0  0.85641  0.30902  0.53494  1.0000
  C   C1709     1.0  0.87197  0.39282  0.89649  1.0000
  H   H2036     1.0  0.87631  0.36434  0.94576  1.0000
  H   H2037     1.0  0.88832  0.47554  0.88936  1.0000
  H   H2038     1.0  0.85832  0.46675  0.69431  1.0000
  H   H2039     1.0  0.86647  0.41749  0.90785  1.0000
  S   S466      1.0  0.84001  0.25744  0.49451  1.0000
  S   S467      1.0  0.84079  0.25875  0.55887  1.0000
  H   H2040     1.0  0.90273  0.40343  0.92726  1.0000
  C   C1710     1.0  0.88944  0.40108  0.93745  1.0000
  H   H2041     1.0  0.88935  0.36970  0.91680  1.0000
  C   C1711     1.0  0.80210  0.28751  0.62766  1.0000
  C   C1712     1.0  0.87155  0.40657  0.84532  1.0000
  Fe  Fe230     1.0  0.91089  0.44709  0.96540  1.0000
  H   H2042     1.0  0.86579  0.42867  0.86378  1.0000
  H   H2043     1.0  0.85414  0.39791  0.94049  1.0000
  H   H2044     1.0  0.80503  0.25423  0.92644  1.0000
  H   H2045     1.0  0.80582  0.25841  0.87831  1.0000
  C   C1713     1.0  0.89155  0.36588  0.49746  1.0000
  C   C1714     1.0  0.87504  0.39040  0.84906  1.0000
  C   C1715     1.0  0.83798  0.35675  0.60812  1.0000
  C   C1716     1.0  0.86920  0.33078  0.51945  1.0000
  C   C1717     1.0  0.87628  0.34734  0.53484  1.0000
  C   C1718     1.0  0.88721  0.36476  0.52395  1.0000
  H   H2046     1.0  0.87825  0.37107  0.87568  1.0000
  Fe  Fe231     1.0  0.80843  0.24498  0.49624  1.0000
  H   H2047     1.0  0.87361  0.34665  0.55550  1.0000
  C   C1719     1.0  0.82642  0.28901  0.59851  1.0000
  C   C1720     1.0  0.92303  0.46701  0.59452  1.0000
  S   S468      1.0  0.89039  0.47291  0.74324  1.0000
  C   C1721     1.0  0.92355  0.47839  0.63950  1.0000
  C   C1722     1.0  0.91422  0.46009  0.64789  1.0000
  C   C1723     1.0  0.90965  0.44528  0.62952  1.0000
  C   C1724     1.0  0.91416  0.44868  0.60301  1.0000
  H   H2048     1.0  0.79551  0.27198  0.62529  1.0000
  H   H2049     1.0  0.96825  0.47257  0.54816  1.0000
  H   H2050     1.0  0.90249  0.43107  0.63582  1.0000
  H   H2051     1.0  0.91041  0.43716  0.58910  1.0000
  C   C1725     1.0  0.90169  0.45636  0.89820  1.0000
  C   C1726     1.0  0.91091  0.44561  0.88768  1.0000
  C   C1727     1.0  0.91300  0.44501  0.86046  1.0000
  C   C1728     1.0  0.90646  0.45559  0.84359  1.0000
  C   C1729     1.0  0.89809  0.46705  0.85425  1.0000
  C   C1730     1.0  0.89549  0.46720  0.88138  1.0000
  H   H2052     1.0  0.91572  0.43717  0.90034  1.0000
  H   H2053     1.0  0.91932  0.43595  0.85239  1.0000
  H   H2054     1.0  0.84315  0.37471  0.92660  1.0000
  N   N114      1.0  0.90109  0.29352  0.51151  1.0000
  C   C1731     1.0  0.91603  0.28681  0.50458  1.0000
  H   H2055     1.0  0.92722  0.29059  0.52023  1.0000
  C   C1732     1.0  0.82014  0.32739  0.62859  1.0000
  C   C1733     1.0  0.86835  0.40919  0.89189  1.0000
  H   H2056     1.0  0.89118  0.39692  0.95778  1.0000
  H   H2057     1.0  0.83118  0.32081  0.56599  1.0000
  H   H2058     1.0  0.88065  0.27391  0.48502  1.0000
  C   C1734     1.0  0.87831  0.46429  0.59515  1.0000
  Fe  Fe232     1.0  0.80931  0.24634  0.55698  1.0000
  H   H2059     1.0  0.94761  0.46227  0.83008  1.0000
  C   C1735     1.0  0.92565  0.35334  0.52477  1.0000
  H   H2060     1.0  0.97211  0.46633  0.83295  1.0000
  N   N115      1.0  0.81176  0.29648  0.60367  1.0000
  C   C1736     1.0  0.91647  0.34171  0.54491  1.0000
  H   H2061     1.0  0.79028  0.27527  0.58017  1.0000
  H   H2062     1.0  0.82060  0.27347  0.59838  1.0000
  H   H2063     1.0  0.90096  0.28454  0.55135  1.0000
  H   H2064     1.0  0.84468  0.37187  0.60908  1.0000
  C   C1737     1.0  0.87555  0.48223  0.63350  1.0000
  C   C1738     1.0  0.82055  0.31713  0.60561  1.0000
  H   H2065     1.0  0.80393  0.29535  0.56255  1.0000
  H   H2066     1.0  0.84581  0.35475  0.56855  1.0000
  C   C1739     1.0  0.90949  0.31398  0.51654  1.0000
  H   H2067     1.0  0.87693  0.45108  0.58619  1.0000
  C   C1740     1.0  0.83862  0.34711  0.58534  1.0000
  H   H2068     1.0  0.83792  0.29394  0.61370  1.0000
  H   H2069     1.0  0.83287  0.29327  0.57924  1.0000
  H   H2070     1.0  0.88481  0.26731  0.52968  1.0000
  H   H2071     1.0  0.87165  0.45770  0.67471  1.0000
  C   C1741     1.0  0.89122  0.28262  0.53420  1.0000
  C   C1742     1.0  0.92701  0.34563  0.50066  1.0000
  H   H2072     1.0  0.81332  0.32068  0.64602  1.0000
  H   H2073     1.0  0.78668  0.29667  0.58449  1.0000
  H   H2074     1.0  0.81208  0.29036  0.64473  1.0000
  C   C1743     1.0  0.92778  0.48181  0.61294  1.0000
  H   H2075     1.0  0.86807  0.45185  0.63106  1.0000
  H   H2076     1.0  0.91503  0.34784  0.56343  1.0000
  H   H2077     1.0  0.79053  0.29212  0.63242  1.0000
  H   H2078     1.0  0.89285  0.47513  0.84151  1.0000
  H   H2079     1.0  0.91036  0.27133  0.50179  1.0000
  Fe  Fe233     1.0  0.91999  0.41897  0.49192  1.0000
  Fe  Fe234     1.0  0.95631  0.45509  0.48671  1.0000
  H   H2080     1.0  0.84870  0.45615  0.66319  1.0000
  C   C1744     1.0  0.94681  0.48646  0.90940  1.0000
  H   H2081     1.0  0.89050  0.48001  0.56124  1.0000
  C   C1745     1.0  0.85585  0.38443  0.93753  1.0000
  C   C1746     1.0  0.86800  0.41581  0.86667  1.0000
  N   N116      1.0  0.87320  0.38668  0.92354  1.0000
  H   H2082     1.0  0.87948  0.28669  0.54005  1.0000
  S   S469      1.0  0.93144  0.43310  0.96237  1.0000
  C   C1747     1.0  0.83011  0.32762  0.58405  1.0000
  H   H2083     1.0  0.96319  0.47432  0.80490  1.0000
  H   H2084     1.0  0.86403  0.35714  0.91495  1.0000
  Fe  Fe235     1.0  0.91031  0.47349  0.77684  1.0000
  H   H2085     1.0  0.87795  0.38337  0.83235  1.0000
  C   C1748     1.0  0.87523  0.38351  0.87421  1.0000
  C   C1749     1.0  0.88602  0.48062  0.58103  1.0000
  H   H2086     1.0  0.88801  0.41481  0.93874  1.0000
  H   H2087     1.0  0.82836  0.35449  0.64742  1.0000
  Fe  Fe236     1.0  0.91377  0.47466  0.71641  1.0000
  C   C1750     1.0  0.90839  0.32232  0.54096  1.0000
  H   H2088     1.0  0.95816  0.47845  0.94383  1.0000
  H   H2089     1.0  0.90094  0.31427  0.55715  1.0000
  C   C1751     1.0  0.87324  0.46497  0.62105  1.0000
  S   S470      1.0  0.94043  0.47341  0.49222  1.0000
  C   C1752     1.0  0.91920  0.32626  0.49657  1.0000
  H   H2090     1.0  0.89854  0.48813  0.67494  1.0000
  C   C1753     1.0  0.96331  0.48751  0.86859  1.0000
  C   C1754     1.0  0.97599  0.48172  0.88314  1.0000
  N   N117      1.0  0.87070  0.48361  0.66104  1.0000
  C   C1755     1.0  0.88718  0.28919  0.48944  1.0000
  C   C1756     1.0  0.96203  0.47262  0.82647  1.0000
  H   H2091     1.0  0.93530  0.48797  0.91965  1.0000
  H   H2092     1.0  0.93126  0.36839  0.52759  1.0000
  C   C1757     1.0  0.79839  0.24470  0.88615  1.0000
  H   H2093     1.0  0.96463  0.48295  0.59072  1.0000
  H   H2094     1.0  0.87570  0.29400  0.49407  1.0000
  C   C1758     1.0  0.97419  0.47867  0.91001  1.0000
  H   H2095     1.0  0.84450  0.48583  0.65043  1.0000
  S   S471      1.0  0.90673  0.38710  0.48282  1.0000
  H   H2096     1.0  0.93748  0.48859  0.82965  1.0000
  H   H2097     1.0  0.92285  0.29284  0.48609  1.0000
  H   H2098     1.0  0.73499  0.24602  0.84371  1.0000
  C   C1759     1.0  0.94850  0.48963  0.88255  1.0000
  H   H2099     1.0  0.93380  0.35481  0.48490  1.0000
  H   H2100     1.0  0.92730  0.48993  0.65336  1.0000
  C   C1760     1.0  0.98019  0.49038  0.59278  1.0000
  H   H2101     1.0  0.75240  0.24436  0.88087  1.0000
  H   H2102     1.0  0.86756  0.31961  0.48045  1.0000
  C   C1761     1.0  0.88429  0.34936  0.48201  1.0000
  H   H2103     1.0  0.85329  0.24204  0.87925  1.0000
  N   N118      1.0  0.96551  0.49063  0.84013  1.0000
  H   H2104     1.0  0.83975  0.72092  0.24682  1.0000
  H   H2105     1.0  0.76823  0.54493  0.38402  1.0000
  Fe  Fe237     1.0  0.95001  0.51008  0.24515  1.0000
  H   H2106     1.0  0.81808  0.70762  0.42191  1.0000
  H   H2107     1.0  0.85648  0.68978  0.12127  1.0000
  C   C1762     1.0  0.96052  0.50352  0.35420  1.0000
  S   S472      1.0  0.82730  0.71200  0.32530  1.0000
  Fe  Fe238     1.0  0.83635  0.62067  0.28285  1.0000
  S   S473      1.0  0.80529  0.61118  0.28338  1.0000
  S   S474      1.0  0.85407  0.65115  0.27656  1.0000
  Fe  Fe239     1.0  0.83471  0.58093  0.28954  1.0000
  S   S475      1.0  0.80289  0.56874  0.29054  1.0000
  S   S476      1.0  0.85469  0.56625  0.29945  1.0000
  Fe  Fe240     1.0  0.80455  0.58788  0.25664  1.0000
  S   S477      1.0  0.78330  0.58500  0.22346  1.0000
  Fe  Fe241     1.0  0.80645  0.59333  0.31712  1.0000
  S   S478      1.0  0.78848  0.59608  0.35048  1.0000
  S   S479      1.0  0.83603  0.59846  0.25406  1.0000
  S   S480      1.0  0.83794  0.60449  0.31819  1.0000
  S   S481      1.0  0.88223  0.70415  0.07435  1.0000
  Fe  Fe242     1.0  0.77783  0.59840  0.00914  1.0000
  S   S482      1.0  0.76077  0.61620  0.01314  1.0000
  C   C1763     1.0  0.67785  0.52385  0.08199  1.0000
  Fe  Fe243     1.0  0.77723  0.59150  0.06873  1.0000
  S   S483      1.0  0.76048  0.60897  0.07605  1.0000
  S   S484      1.0  0.78929  0.57844  0.10031  1.0000
  Fe  Fe244     1.0  0.74291  0.59391  0.04048  1.0000
  S   S485      1.0  0.71093  0.58428  0.04557  1.0000
  Fe  Fe245     1.0  0.77977  0.62914  0.04819  1.0000
  S   S486      1.0  0.79383  0.66060  0.05558  1.0000
  S   S487      1.0  0.75905  0.57530  0.03453  1.0000
  S   S488      1.0  0.79745  0.61252  0.04300  1.0000
  C   C1764     1.0  0.85776  0.69242  0.06767  1.0000
  C   C1765     1.0  0.84580  0.70205  0.06447  1.0000
  C   C1766     1.0  0.82628  0.69212  0.06083  1.0000
  C   C1767     1.0  0.81851  0.67249  0.06013  1.0000
  C   C1768     1.0  0.83050  0.66288  0.06307  1.0000
  C   C1769     1.0  0.84998  0.67279  0.06693  1.0000
  H   H2108     1.0  0.85152  0.71714  0.06499  1.0000
  H   H2109     1.0  0.81716  0.69973  0.05856  1.0000
  H   H2110     1.0  0.82481  0.64780  0.06276  1.0000
  H   H2111     1.0  0.85907  0.66518  0.06953  1.0000
  C   C1770     1.0  0.78885  0.58226  0.13444  1.0000
  C   C1771     1.0  0.80045  0.57685  0.15129  1.0000
  C   C1772     1.0  0.79953  0.57834  0.17863  1.0000
  C   C1773     1.0  0.78655  0.58474  0.18935  1.0000
  C   C1774     1.0  0.77514  0.59040  0.17251  1.0000
  C   C1775     1.0  0.77650  0.58950  0.14521  1.0000
  H   H2112     1.0  0.80999  0.57116  0.14315  1.0000
  H   H2113     1.0  0.80826  0.57377  0.19136  1.0000
  H   H2114     1.0  0.76506  0.59540  0.18063  1.0000
  H   H2115     1.0  0.76772  0.59405  0.13260  1.0000
  C   C1776     1.0  0.79032  0.59197  0.38427  1.0000
  C   C1777     1.0  0.80183  0.58315  0.39403  1.0000
  C   C1778     1.0  0.80227  0.57964  0.42097  1.0000
  C   C1779     1.0  0.79159  0.58530  0.43846  1.0000
  C   C1780     1.0  0.78054  0.59461  0.42874  1.0000
  C   C1781     1.0  0.77970  0.59765  0.40178  1.0000
  H   H2116     1.0  0.81004  0.57864  0.38078  1.0000
  H   H2117     1.0  0.81089  0.57244  0.42830  1.0000
  H   H2118     1.0  0.77242  0.59929  0.44188  1.0000
  H   H2119     1.0  0.77061  0.60434  0.39444  1.0000
  C   C1782     1.0  0.83413  0.69517  0.31011  1.0000
  C   C1783     1.0  0.85034  0.70045  0.29539  1.0000
  C   C1784     1.0  0.85625  0.68684  0.28507  1.0000
  C   C1785     1.0  0.84596  0.66783  0.28926  1.0000
  C   C1786     1.0  0.82936  0.66249  0.30313  1.0000
  C   C1787     1.0  0.82340  0.67613  0.31333  1.0000
  H   H2120     1.0  0.85836  0.71502  0.29189  1.0000
  H   H2121     1.0  0.86897  0.69110  0.27406  1.0000
  H   H2122     1.0  0.82121  0.64789  0.30624  1.0000
  H   H2123     1.0  0.81058  0.67200  0.32407  1.0000
  C   C1788     1.0  0.87639  0.52793  0.25265  1.0000
  C   C1789     1.0  0.86174  0.53261  0.24222  1.0000
  C   C1790     1.0  0.85423  0.54352  0.25673  1.0000
  C   C1791     1.0  0.86149  0.55011  0.28177  1.0000
  C   C1792     1.0  0.87574  0.54495  0.29253  1.0000
  C   C1793     1.0  0.88318  0.53395  0.27807  1.0000
  H   H2124     1.0  0.85627  0.52786  0.22266  1.0000
  H   H2125     1.0  0.84310  0.54714  0.24830  1.0000
  H   H2126     1.0  0.88137  0.54985  0.31197  1.0000
  H   H2127     1.0  0.89437  0.53038  0.28640  1.0000
  C   C1794     1.0  0.65468  0.53660  0.01901  1.0000
  C   C1795     1.0  0.65502  0.55095  0.03608  1.0000
  C   C1796     1.0  0.67231  0.56538  0.04376  1.0000
  C   C1797     1.0  0.68954  0.56583  0.03448  1.0000
  C   C1798     1.0  0.68920  0.55151  0.01737  1.0000
  C   C1799     1.0  0.67193  0.53702  0.00980  1.0000
  H   H2128     1.0  0.67231  0.57631  0.05703  1.0000
  H   H2129     1.0  0.70222  0.55156  0.00997  1.0000
  C   C1800     1.0  0.85123  0.69271  0.14017  1.0000
  H   H2130     1.0  0.91757  0.59312  0.26874  1.0000
  H   H2131     1.0  0.83137  0.67976  0.38495  1.0000
  H   H2132     1.0  0.74891  0.57209  0.10047  1.0000
  H   H2133     1.0  0.89955  0.66188  0.27469  1.0000
  C   C1801     1.0  0.73978  0.54148  0.12722  1.0000
  C   C1802     1.0  0.82473  0.63295  0.42851  1.0000
  C   C1803     1.0  0.82197  0.64747  0.41440  1.0000
  C   C1804     1.0  0.66937  0.51323  0.10332  1.0000
  H   H2134     1.0  0.90955  0.58222  0.21113  1.0000
  C   C1805     1.0  0.83345  0.63742  0.37444  1.0000
  H   H2135     1.0  0.70748  0.52276  0.44668  1.0000
  H   H2136     1.0  0.80062  0.65647  0.37705  1.0000
  Fe  Fe246     1.0  0.90825  0.50305  0.24185  1.0000
  H   H2137     1.0  0.87235  0.72352  0.24182  1.0000
  H   H2138     1.0  0.90718  0.60303  0.20021  1.0000
  H   H2139     1.0  0.97967  0.49513  0.22537  1.0000
  H   H2140     1.0  0.73942  0.52349  0.46225  1.0000
  C   C1806     1.0  0.80083  0.67422  0.98481  1.0000
  C   C1807     1.0  0.91073  0.59642  0.21764  1.0000
  C   C1808     1.0  0.89083  0.72209  0.47674  1.0000
  H   H2141     1.0  0.92572  0.60427  0.22359  1.0000
  C   C1809     1.0  0.83322  0.71214  0.42382  1.0000
  H   H2142     1.0  0.75292  0.54445  0.08022  1.0000
  C   C1810     1.0  0.73664  0.56582  0.46853  1.0000
  S   S489      1.0  0.88631  0.51552  0.23253  1.0000
  C   C1811     1.0  0.83779  0.66948  0.38073  1.0000
  C   C1812     1.0  0.71168  0.53636  0.45743  1.0000
  H   H2143     1.0  0.76015  0.53945  0.42939  1.0000
  H   H2144     1.0  0.88733  0.71073  0.13071  1.0000
  H   H2145     1.0  0.82910  0.62275  0.41933  1.0000
  C   C1813     1.0  0.86279  0.72005  0.22487  1.0000
  C   C1814     1.0  0.95055  0.51421  0.40329  1.0000
  H   H2146     1.0  0.83577  0.67951  0.00447  1.0000
  H   H2147     1.0  0.82393  0.62246  0.37569  1.0000
  H   H2148     1.0  0.79625  0.63206  0.37751  1.0000
  S   S490      1.0  0.92995  0.50658  0.21122  1.0000
  C   C1815     1.0  0.96554  0.49476  0.42098  1.0000
  N   N119      1.0  0.89806  0.59539  0.23947  1.0000
  C   C1816     1.0  0.69730  0.53362  0.08214  1.0000
  C   C1817     1.0  0.87229  0.72466  0.42882  1.0000
  H   H2149     1.0  0.83600  0.63993  0.35321  1.0000
  H   H2150     1.0  0.71782  0.56315  0.41732  1.0000
  N   N120      1.0  0.96797  0.51033  0.40291  1.0000
  H   H2151     1.0  0.90209  0.57112  0.25432  1.0000
  C   C1818     1.0  0.69984  0.52209  0.12528  1.0000
  C   C1819     1.0  0.68033  0.51235  0.12492  1.0000
  C   C1820     1.0  0.89922  0.61384  0.24925  1.0000
  C   C1821     1.0  0.91083  0.63099  0.23800  1.0000
  C   C1822     1.0  0.88805  0.61500  0.27033  1.0000
  C   C1823     1.0  0.91099  0.64810  0.24725  1.0000
  C   C1824     1.0  0.88837  0.63215  0.27942  1.0000
  C   C1825     1.0  0.89971  0.64866  0.26782  1.0000
  H   H2152     1.0  0.91982  0.63157  0.22194  1.0000
  H   H2153     1.0  0.87875  0.60259  0.27979  1.0000
  H   H2154     1.0  0.91981  0.66104  0.23834  1.0000
  C   C1826     1.0  0.95911  0.49589  0.10679  1.0000
  H   H2155     1.0  0.70307  0.54386  0.44942  1.0000
  N   N121      1.0  0.86337  0.71135  0.15119  1.0000
  C   C1827     1.0  0.86193  0.72595  0.13375  1.0000
  H   H2156     1.0  0.72877  0.57380  0.45968  1.0000
  H   H2157     1.0  0.82293  0.61927  0.46548  1.0000
  C   C1828     1.0  0.85713  0.71382  0.17761  1.0000
  H   H2158     1.0  0.96762  0.49736  0.17250  1.0000
  H   H2159     1.0  0.88522  0.70184  0.16305  1.0000
  H   H2160     1.0  0.88747  0.73025  0.42942  1.0000
  C   C1829     1.0  0.73733  0.53713  0.08072  1.0000
  H   H2161     1.0  0.65425  0.50573  0.10307  1.0000
  H   H2162     1.0  0.75200  0.55945  0.35491  1.0000
  C   C1830     1.0  0.84442  0.71870  0.22771  1.0000
  C   C1831     1.0  0.83846  0.71245  0.18123  1.0000
  C   C1832     1.0  0.84424  0.71987  0.40248  1.0000
  H   H2163     1.0  0.94763  0.51797  0.42329  1.0000
  N   N122      1.0  0.73216  0.54740  0.45567  1.0000
  H   H2164     1.0  0.96095  0.50289  0.05305  1.0000
  H   H2165     1.0  0.70744  0.52088  0.14268  1.0000
  H   H2166     1.0  0.94748  0.50562  0.35491  1.0000
  C   C1833     1.0  0.86146  0.71679  0.45098  1.0000
  H   H2167     1.0  0.88370  0.71941  0.19958  1.0000
  H   H2168     1.0  0.83254  0.70460  0.46381  1.0000
  H   H2169     1.0  0.87949  0.63262  0.29530  1.0000
  H   H2170     1.0  0.67363  0.50412  0.14153  1.0000
  H   H2171     1.0  0.80784  0.64569  0.35069  1.0000
  H   H2172     1.0  0.73778  0.52665  0.13029  1.0000
  C   C1834     1.0  0.81524  0.65933  0.42862  1.0000
  N   N123      1.0  0.82501  0.64995  0.38598  1.0000
  C   C1835     1.0  0.87858  0.58433  0.22995  1.0000
  N   N124      1.0  0.81505  0.64406  0.20627  1.0000
  C   C1836     1.0  0.82638  0.66332  0.21606  1.0000
  C   C1837     1.0  0.79651  0.63740  0.21869  1.0000
  C   C1838     1.0  0.82489  0.63193  0.21516  1.0000
  C   C1839     1.0  0.81224  0.64384  0.17752  1.0000
  C   C1840     1.0  0.81649  0.63146  0.16052  1.0000
  C   C1841     1.0  0.80424  0.65573  0.16577  1.0000
  C   C1842     1.0  0.81296  0.63114  0.13357  1.0000
  C   C1843     1.0  0.80077  0.65527  0.13876  1.0000
  C   C1844     1.0  0.80506  0.64294  0.12275  1.0000
  H   H2173     1.0  0.82951  0.66362  0.23747  1.0000
  H   H2174     1.0  0.84009  0.66921  0.20628  1.0000
  H   H2175     1.0  0.81906  0.67303  0.21325  1.0000
  H   H2176     1.0  0.78873  0.64658  0.21467  1.0000
  H   H2177     1.0  0.79791  0.63670  0.24033  1.0000
  H   H2178     1.0  0.78746  0.62307  0.21150  1.0000
  H   H2179     1.0  0.83904  0.63616  0.20671  1.0000
  H   H2180     1.0  0.82700  0.63262  0.23675  1.0000
  H   H2181     1.0  0.81659  0.61695  0.21029  1.0000
  H   H2182     1.0  0.82204  0.62146  0.16755  1.0000
  H   H2183     1.0  0.80011  0.66509  0.17747  1.0000
  H   H2184     1.0  0.81582  0.62123  0.12101  1.0000
  H   H2185     1.0  0.79431  0.66416  0.13010  1.0000
  H   H2186     1.0  0.80190  0.64226  0.10193  1.0000
  H   H2187     1.0  0.94883  0.49797  0.09386  1.0000
  H   H2188     1.0  0.87713  0.57044  0.22181  1.0000
  H   H2189     1.0  0.98039  0.53221  0.43207  1.0000
  H   H2190     1.0  0.94625  0.50287  0.14009  1.0000
  H   H2191     1.0  0.95145  0.52598  0.39040  1.0000
  C   C1845     1.0  0.81176  0.65697  0.45532  1.0000
  H   H2192     1.0  0.82863  0.70985  0.16484  1.0000
  H   H2193     1.0  0.93804  0.50169  0.39713  1.0000
  H   H2194     1.0  0.87403  0.59177  0.21443  1.0000
  H   H2195     1.0  0.83660  0.69149  0.13591  1.0000
  C   C1846     1.0  0.90305  0.58522  0.26091  1.0000
  H   H2196     1.0  0.83773  0.72124  0.38399  1.0000
  H   H2197     1.0  0.84159  0.67140  0.35980  1.0000
  H   H2198     1.0  0.86830  0.58148  0.24580  1.0000
  S   S491      1.0  0.92923  0.50950  0.27576  1.0000
  H   H2199     1.0  0.89354  0.58279  0.27761  1.0000
  H   H2200     1.0  0.75187  0.57457  0.46752  1.0000
  C   C1847     1.0  0.70894  0.53302  0.10374  1.0000
  C   C1848     1.0  0.86371  0.72607  0.40499  1.0000
  C   C1849     1.0  0.96946  0.49568  0.15181  1.0000
  C   C1850     1.0  0.81476  0.64271  0.46856  1.0000
  C   C1851     1.0  0.73752  0.55014  0.42798  1.0000
  C   C1852     1.0  0.72855  0.55856  0.41065  1.0000
  C   C1853     1.0  0.75198  0.54522  0.41759  1.0000
  C   C1854     1.0  0.73360  0.56166  0.38454  1.0000
  C   C1855     1.0  0.75683  0.54831  0.39141  1.0000
  C   C1856     1.0  0.74770  0.55652  0.37495  1.0000
  H   H2201     1.0  0.81216  0.67021  0.41900  1.0000
  H   H2202     1.0  0.85070  0.68136  0.15367  1.0000
  H   H2203     1.0  0.85109  0.67356  0.39258  1.0000
  H   H2204     1.0  0.84718  0.63947  0.38414  1.0000
  H   H2205     1.0  0.81808  0.71424  0.20819  1.0000
  C   C1857     1.0  0.80670  0.64599  0.37226  1.0000
  C   C1858     1.0  0.86916  0.71768  0.20028  1.0000
  N   N125      1.0  0.72952  0.54356  0.10329  1.0000
  H   H2206     1.0  0.80235  0.67668  0.00633  1.0000
  H   H2207     1.0  0.87231  0.73245  0.38849  1.0000
  C   C1859     1.0  0.80991  0.64802  0.98920  1.0000
  H   H2208     1.0  0.73172  0.53988  0.06170  1.0000
  H   H2209     1.0  0.86701  0.72481  0.11388  1.0000
  C   C1860     1.0  0.97234  0.50524  0.37664  1.0000
  H   H2210     1.0  0.84729  0.72507  0.13096  1.0000
  H   H2211     1.0  0.89313  0.72677  0.15764  1.0000
  H   H2212     1.0  0.72769  0.56682  0.08188  1.0000
  C   C1861     1.0  0.73355  0.56374  0.10048  1.0000
  H   H2213     1.0  0.70315  0.54181  0.06519  1.0000
  H   H2214     1.0  0.72752  0.56913  0.11666  1.0000
  H   H2215     1.0  0.80626  0.66589  0.46586  1.0000
  H   H2216     1.0  0.73542  0.54705  0.14490  1.0000
  C   C1862     1.0  0.82121  0.63074  0.45520  1.0000
  H   H2217     1.0  0.75523  0.54941  0.12596  1.0000
  H   H2218     1.0  0.72684  0.56842  0.37176  1.0000
  H   H2219     1.0  0.73400  0.52185  0.08154  1.0000
  H   H2220     1.0  0.96102  0.49745  0.44054  1.0000
  C   C1863     1.0  0.84164  0.71053  0.44771  1.0000
  C   C1864     1.0  0.88312  0.71272  0.15085  1.0000
  H   H2221     1.0  0.81235  0.65030  0.01069  1.0000
  C   C1865     1.0  0.96499  0.49839  0.32981  1.0000
  S   S492      1.0  0.79204  0.57993  0.47203  1.0000
  H   H2222     1.0  0.86500  0.68627  0.46881  1.0000
  C   C1866     1.0  0.83226  0.71490  0.20593  1.0000
  H   H2223     1.0  0.66927  0.52460  0.06525  1.0000
  H   H2224     1.0  0.67191  0.52604  0.99663  1.0000
  C   C1867     1.0  0.95743  0.49881  0.13346  1.0000
  Fe  Fe247     1.0  0.89753  0.73582  0.07370  1.0000
  H   H2225     1.0  0.89719  0.73725  0.47238  1.0000
  H   H2226     1.0  0.79498  0.63834  0.98653  1.0000
  C   C1868     1.0  0.83343  0.67844  0.98280  1.0000
  H   H2227     1.0  0.81891  0.64065  0.98249  1.0000
  H   H2228     1.0  0.70742  0.53342  0.47810  1.0000
  C   C1869     1.0  0.74213  0.53754  0.47086  1.0000
  N   N126      1.0  0.86998  0.71516  0.47662  1.0000
  H   H2229     1.0  0.75758  0.54579  0.47199  1.0000
  H   H2230     1.0  0.87047  0.74022  0.14166  1.0000
  H   H2231     1.0  0.96781  0.50185  0.98490  1.0000
  H   H2232     1.0  0.89576  0.71423  0.46244  1.0000
  S   S493      1.0  0.98010  0.53102  0.24471  1.0000
  Fe  Fe248     1.0  0.84879  0.74160  0.32395  1.0000
  H   H2233     1.0  0.97868  0.49225  0.42424  1.0000
  H   H2234     1.0  0.95553  0.49672  0.31307  1.0000
  H   H2235     1.0  0.78593  0.66486  0.98041  1.0000
  C   C1870     1.0  0.78137  0.54969  0.92915  1.0000
  S   S494      1.0  0.92663  0.50600  0.71688  1.0000
  Fe  Fe249     1.0  0.94332  0.50355  0.75206  1.0000
  C   C1871     1.0  0.80419  0.54827  0.67927  1.0000
  H   H2236     1.0  0.82181  0.53013  0.84978  1.0000
  S   S495      1.0  0.88984  0.52463  0.73468  1.0000
  S   S496      1.0  0.82286  0.71209  0.82671  1.0000
  Fe  Fe250     1.0  0.82826  0.61739  0.79003  1.0000
  S   S497      1.0  0.79732  0.61068  0.78777  1.0000
  S   S498      1.0  0.84910  0.64732  0.79172  1.0000
  Fe  Fe251     1.0  0.82368  0.57645  0.79000  1.0000
  S   S499      1.0  0.79217  0.56713  0.78799  1.0000
  S   S500      1.0  0.83375  0.55242  0.79599  1.0000
  Fe  Fe252     1.0  0.79661  0.58915  0.75760  1.0000
  S   S501      1.0  0.77615  0.58254  0.72240  1.0000
  Fe  Fe253     1.0  0.79581  0.58952  0.81831  1.0000
  S   S502      1.0  0.77567  0.58426  0.85202  1.0000
  S   S503      1.0  0.82793  0.59717  0.75771  1.0000
  S   S504      1.0  0.82692  0.59752  0.82241  1.0000
  S   S505      1.0  0.88292  0.70260  0.56346  1.0000
  Fe  Fe254     1.0  0.77988  0.59198  0.50430  1.0000
  S   S506      1.0  0.76421  0.61058  0.49740  1.0000
  C   C1872     1.0  0.79323  0.55125  0.95073  1.0000
  Fe  Fe255     1.0  0.77734  0.59503  0.56449  1.0000
  S   S507      1.0  0.76080  0.61347  0.56068  1.0000
  S   S508      1.0  0.79266  0.59044  0.60101  1.0000
  Fe  Fe256     1.0  0.74438  0.59340  0.52789  1.0000
  S   S509      1.0  0.71344  0.58364  0.51294  1.0000
  Fe  Fe257     1.0  0.78200  0.62841  0.53053  1.0000
  S   S510      1.0  0.79682  0.66010  0.52807  1.0000
  S   S511      1.0  0.75980  0.57402  0.53361  1.0000
  S   S512      1.0  0.79886  0.61080  0.53538  1.0000
  C   C1873     1.0  0.85889  0.69120  0.55386  1.0000
  C   C1874     1.0  0.84694  0.70086  0.55071  1.0000
  C   C1875     1.0  0.82799  0.69118  0.54281  1.0000
  C   C1876     1.0  0.82066  0.67172  0.53855  1.0000
  C   C1877     1.0  0.83260  0.66210  0.54194  1.0000
  C   C1878     1.0  0.85159  0.67179  0.54946  1.0000
  H   H2237     1.0  0.85222  0.71575  0.55439  1.0000
  H   H2238     1.0  0.81886  0.69876  0.54033  1.0000
  H   H2239     1.0  0.82730  0.64720  0.53861  1.0000
  H   H2240     1.0  0.86065  0.66414  0.55197  1.0000
  C   C1879     1.0  0.78789  0.59120  0.63468  1.0000
  C   C1880     1.0  0.80287  0.59578  0.65316  1.0000
  C   C1881     1.0  0.79958  0.59440  0.68016  1.0000
  C   C1882     1.0  0.78120  0.58764  0.68898  1.0000
  C   C1883     1.0  0.76625  0.58359  0.67058  1.0000
  C   C1884     1.0  0.76957  0.58557  0.64357  1.0000
  H   H2241     1.0  0.81709  0.60019  0.64649  1.0000
  H   H2242     1.0  0.81118  0.59820  0.69414  1.0000
  H   H2243     1.0  0.75197  0.57846  0.67720  1.0000
  H   H2244     1.0  0.75790  0.58189  0.62962  1.0000
  C   C1885     1.0  0.78162  0.58929  0.88569  1.0000
  C   C1886     1.0  0.80018  0.59533  0.89527  1.0000
  C   C1887     1.0  0.80414  0.59796  0.92237  1.0000
  C   C1888     1.0  0.78966  0.59493  0.94014  1.0000
  C   C1889     1.0  0.77119  0.58953  0.93049  1.0000
  C   C1890     1.0  0.76720  0.58656  0.90342  1.0000
  H   H2245     1.0  0.81141  0.59774  0.88184  1.0000
  H   H2246     1.0  0.81848  0.60220  0.92967  1.0000
  H   H2247     1.0  0.75992  0.58722  0.94389  1.0000
  H   H2248     1.0  0.75280  0.58196  0.89618  1.0000
  C   C1891     1.0  0.82956  0.69405  0.81523  1.0000
  C   C1892     1.0  0.84668  0.69814  0.80304  1.0000
  C   C1893     1.0  0.85239  0.68368  0.79565  1.0000
  C   C1894     1.0  0.84090  0.66497  0.79995  1.0000
  C   C1895     1.0  0.82354  0.66083  0.81156  1.0000
  C   C1896     1.0  0.81790  0.67534  0.81916  1.0000
  H   H2249     1.0  0.85551  0.71241  0.79902  1.0000
  H   H2250     1.0  0.86575  0.68700  0.78648  1.0000
  H   H2251     1.0  0.81460  0.64649  0.81513  1.0000
  H   H2252     1.0  0.80449  0.67205  0.82812  1.0000
  C   C1897     1.0  0.87523  0.53276  0.75335  1.0000
  C   C1898     1.0  0.87343  0.54954  0.74633  1.0000
  C   C1899     1.0  0.86130  0.55609  0.75970  1.0000
  C   C1900     1.0  0.85027  0.54558  0.77964  1.0000
  C   C1901     1.0  0.85212  0.52885  0.78673  1.0000
  C   C1902     1.0  0.86462  0.52253  0.77383  1.0000
  H   H2253     1.0  0.88172  0.55768  0.73073  1.0000
  H   H2254     1.0  0.86069  0.56937  0.75482  1.0000
  H   H2255     1.0  0.84378  0.52065  0.80225  1.0000
  H   H2256     1.0  0.86577  0.50958  0.77941  1.0000
  C   C1903     1.0  0.79952  0.54843  0.85181  1.0000
  C   C1904     1.0  0.65825  0.54785  0.50621  1.0000
  C   C1905     1.0  0.67639  0.56114  0.50109  1.0000
  C   C1906     1.0  0.69139  0.56528  0.51953  1.0000
  C   C1907     1.0  0.68803  0.55563  0.54304  1.0000
  C   C1908     1.0  0.66982  0.54257  0.54833  1.0000
  H   H2257     1.0  0.88609  0.51226  0.62684  1.0000
  H   H2258     1.0  0.84760  0.68967  0.48862  1.0000
  H   H2259     1.0  0.79647  0.56133  0.85276  1.0000
  H   H2260     1.0  0.78061  0.72593  0.78834  1.0000
  C   C1909     1.0  0.88858  0.49775  0.59268  1.0000
  H   H2261     1.0  0.89885  0.70855  0.86952  1.0000
  C   C1910     1.0  0.83196  0.56780  0.70444  1.0000
  H   H2262     1.0  0.88511  0.49542  0.69746  1.0000
  H   H2263     1.0  0.83111  0.54987  0.92043  1.0000
  H   H2264     1.0  0.88130  0.71090  0.84774  1.0000
  C   C1911     1.0  0.83057  0.56475  0.86983  1.0000
  C   C1912     1.0  0.86283  0.69528  0.48437  1.0000
  H   H2265     1.0  0.93785  0.49348  0.87321  1.0000
  H   H2266     1.0  0.89452  0.73653  0.90897  1.0000
  H   H2267     1.0  0.84219  0.56460  0.88291  1.0000
  H   H2268     1.0  0.84960  0.72037  0.50048  1.0000
  C   C1913     1.0  0.82154  0.53424  0.70577  1.0000
  H   H2269     1.0  0.76675  0.72998  0.81308  1.0000
  S   S513      1.0  0.92229  0.50488  0.78084  1.0000
  N   N127      1.0  0.81284  0.54828  0.87316  1.0000
  C   C1914     1.0  0.81668  0.53108  0.86973  1.0000
  C   C1915     1.0  0.78742  0.54860  0.90390  1.0000
  C   C1916     1.0  0.78420  0.54646  0.63135  1.0000
  C   C1917     1.0  0.80448  0.54987  0.72769  1.0000
  Fe  Fe258     1.0  0.84500  0.74111  0.82345  1.0000
  C   C1918     1.0  0.81289  0.54960  0.65484  1.0000
  H   H2270     1.0  0.69929  0.55867  0.55754  1.0000
  H   H2271     1.0  0.82854  0.57796  0.87385  1.0000
  H   H2272     1.0  0.81785  0.68930  0.89065  1.0000
  H   H2273     1.0  0.86791  0.73097  0.67228  1.0000
  H   H2274     1.0  0.80529  0.54810  0.83221  1.0000
  H   H2275     1.0  0.84238  0.56804  0.68973  1.0000
  H   H2276     1.0  0.77769  0.54819  0.88814  1.0000
  H   H2277     1.0  0.83956  0.57050  0.72369  1.0000
  H   H2278     1.0  0.73305  0.56434  0.48948  1.0000
  C   C1919     1.0  0.77509  0.54456  0.65491  1.0000
  N   N128      1.0  0.85928  0.70682  0.64624  1.0000
  C   C1920     1.0  0.85801  0.71606  0.67126  1.0000
  C   C1921     1.0  0.87882  0.70783  0.64441  1.0000
  C   C1922     1.0  0.85560  0.71780  0.62471  1.0000
  C   C1923     1.0  0.84595  0.68706  0.64382  1.0000
  C   C1924     1.0  0.84511  0.67652  0.62070  1.0000
  C   C1925     1.0  0.83359  0.67768  0.66394  1.0000
  C   C1926     1.0  0.83238  0.65802  0.61749  1.0000
  C   C1927     1.0  0.82101  0.65907  0.66064  1.0000
  C   C1928     1.0  0.82032  0.64931  0.63740  1.0000
  H   H2279     1.0  0.86168  0.70922  0.68838  1.0000
  H   H2280     1.0  0.86772  0.73471  0.88136  1.0000
  H   H2281     1.0  0.84372  0.71611  0.67365  1.0000
  H   H2282     1.0  0.88193  0.69908  0.65950  1.0000
  H   H2283     1.0  0.89696  0.73081  0.86525  1.0000
  H   H2284     1.0  0.88927  0.72243  0.64717  1.0000
  H   H2285     1.0  0.89677  0.72054  0.49625  1.0000
  H   H2286     1.0  0.84068  0.71640  0.62419  1.0000
  H   H2287     1.0  0.96820  0.49184  0.71913  1.0000
  H   H2288     1.0  0.85435  0.68256  0.60488  1.0000
  H   H2289     1.0  0.83332  0.68435  0.68242  1.0000
  H   H2290     1.0  0.83180  0.65037  0.59942  1.0000
  H   H2291     1.0  0.87774  0.72075  0.92942  1.0000
  H   H2292     1.0  0.81044  0.63494  0.63479  1.0000
  H   H2293     1.0  0.87229  0.72658  0.51576  1.0000
  C   C1929     1.0  0.80567  0.54885  0.89960  1.0000
  C   C1930     1.0  0.81105  0.55119  0.94725  1.0000
  H   H2294     1.0  0.88151  0.70293  0.62500  1.0000
  H   H2295     1.0  0.78605  0.53607  0.85233  1.0000
  C   C1931     1.0  0.85739  0.49321  0.66272  1.0000
  H   H2296     1.0  0.82752  0.55169  0.65376  1.0000
  H   H2297     1.0  0.80351  0.65780  0.87040  1.0000
  H   H2298     1.0  0.83574  0.56542  0.84958  1.0000
  H   H2299     1.0  0.81319  0.55148  0.74592  1.0000
  H   H2300     1.0  0.80375  0.51837  0.87251  1.0000
  C   C1932     1.0  0.78485  0.54552  0.67859  1.0000
  H   H2301     1.0  0.82788  0.57985  0.70068  1.0000
  C   C1933     1.0  0.81717  0.54984  0.92211  1.0000
  H   H2302     1.0  0.81015  0.55090  0.61289  1.0000
  C   C1934     1.0  0.65473  0.53865  0.53011  1.0000
  C   C1935     1.0  0.80305  0.54892  0.63130  1.0000
  H   H2303     1.0  0.68996  0.60613  0.53233  1.0000
  C   C1936     1.0  0.97997  0.50972  0.55661  1.0000
  H   H2304     1.0  0.79954  0.56161  0.72769  1.0000
  N   N129      1.0  0.87563  0.71138  0.88907  1.0000
  C   C1937     1.0  0.88870  0.71550  0.86700  1.0000
  C   C1938     1.0  0.86125  0.71924  0.88328  1.0000
  C   C1939     1.0  0.88678  0.72137  0.91257  1.0000
  C   C1940     1.0  0.86618  0.69092  0.89233  1.0000
  C   C1941     1.0  0.86542  0.68214  0.91683  1.0000
  C   C1942     1.0  0.85687  0.67915  0.87072  1.0000
  C   C1943     1.0  0.85624  0.66276  0.91913  1.0000
  C   C1944     1.0  0.84796  0.65980  0.87317  1.0000
  C   C1945     1.0  0.84760  0.65162  0.89734  1.0000
  H   H2305     1.0  0.66735  0.53558  0.56688  1.0000
  H   H2306     1.0  0.80329  0.68794  0.97588  1.0000
  H   H2307     1.0  0.82023  0.55248  0.96415  1.0000
  H   H2308     1.0  0.85091  0.71618  0.89905  1.0000
  H   H2309     1.0  0.85854  0.71327  0.60524  1.0000
  C   C1946     1.0  0.67477  0.59907  0.53186  1.0000
  H   H2310     1.0  0.89758  0.71576  0.91838  1.0000
  H   H2311     1.0  0.95483  0.50120  0.80728  1.0000
  H   H2312     1.0  0.67871  0.56855  0.48290  1.0000
  H   H2313     1.0  0.87188  0.68992  0.93445  1.0000
  H   H2314     1.0  0.85636  0.68479  0.85166  1.0000
  H   H2315     1.0  0.85328  0.71347  0.86466  1.0000
  H   H2316     1.0  0.84126  0.65111  0.85616  1.0000
  H   H2317     1.0  0.84048  0.63662  0.89916  1.0000
  H   H2318     1.0  0.93456  0.49605  0.60656  1.0000
  H   H2319     1.0  0.82262  0.69321  0.93820  1.0000
  H   H2320     1.0  0.82764  0.53054  0.88380  1.0000
  H   H2321     1.0  0.80934  0.52060  0.70487  1.0000
  C   C1947     1.0  0.81154  0.66338  0.94650  1.0000
  C   C1948     1.0  0.80309  0.64552  0.93400  1.0000
  C   C1949     1.0  0.81674  0.67917  0.93010  1.0000
  C   C1950     1.0  0.80030  0.64366  0.90689  1.0000
  C   C1951     1.0  0.81394  0.67714  0.90293  1.0000
  C   C1952     1.0  0.80576  0.65940  0.89140  1.0000
  Fe  Fe259     1.0  0.90411  0.50445  0.74540  1.0000
  H   H2322     1.0  0.77705  0.54485  0.69605  1.0000
  C   C1953     1.0  0.88799  0.49461  0.67641  1.0000
  H   H2323     1.0  0.77683  0.54673  0.61315  1.0000
  C   C1954     1.0  0.66417  0.60118  0.51066  1.0000
  H   H2324     1.0  0.86462  0.73298  0.62676  1.0000
  H   H2325     1.0  0.82952  0.53487  0.72446  1.0000
  H   H2326     1.0  0.65300  0.50751  0.83745  1.0000
  H   H2327     1.0  0.67440  0.58496  0.56778  1.0000
  H   H2328     1.0  0.79824  0.63271  0.94474  1.0000
  H   H2329     1.0  0.83694  0.69300  0.97638  1.0000
  H   H2330     1.0  0.79364  0.62989  0.89782  1.0000
  H   H2331     1.0  0.76058  0.54327  0.65487  1.0000
  C   C1955     1.0  0.66595  0.58714  0.55189  1.0000
  H   H2332     1.0  0.89489  0.51044  0.58172  1.0000
  H   H2333     1.0  0.87010  0.69335  0.50251  1.0000
  H   H2334     1.0  0.84376  0.67323  0.97458  1.0000
  H   H2335     1.0  0.79210  0.53653  0.72942  1.0000
  N   N130      1.0  0.81521  0.55000  0.70395  1.0000
  H   H2336     1.0  0.83098  0.53424  0.68974  1.0000
  C   C1956     1.0  0.86487  0.72615  0.49668  1.0000
  H   H2337     1.0  0.78870  0.55289  0.97016  1.0000
  C   C1957     1.0  0.88345  0.49861  0.61851  1.0000
  H   H2338     1.0  0.85590  0.65626  0.93787  1.0000
  H   H2339     1.0  0.89469  0.50927  0.66989  1.0000
  H   H2340     1.0  0.81168  0.65212  0.67616  1.0000
  H   H2341     1.0  0.86366  0.50793  0.65632  1.0000
  H   H2342     1.0  0.76762  0.55007  0.93195  1.0000
  C   C1958     1.0  0.77466  0.73612  0.79535  1.0000
  H   H2343     1.0  0.73760  0.53550  0.49149  1.0000
  S   S514      1.0  0.79546  0.59781  0.97408  1.0000
  H   H2344     1.0  0.81170  0.64068  0.48913  1.0000
  N   N131      1.0  0.81390  0.66583  0.97529  1.0000
  S   S515      1.0  0.97424  0.51968  0.76062  1.0000
  H   H2345     1.0  0.76436  0.73682  0.78020  1.0000
  H   H2346     1.0  0.85311  0.49391  0.68322  1.0000
  Fe  Fe260     1.0  0.89822  0.73402  0.56854  1.0000
  C   C1959     1.0  0.95237  0.49847  0.82845  1.0000
  H   H2347     1.0  0.66260  0.51107  0.79144  1.0000
  H   H2348     1.0  0.95405  0.51200  0.83798  1.0000
  H   H2349     1.0  0.96433  0.50287  0.55595  1.0000
  H   H2350     1.0  0.67121  0.61009  0.49479  1.0000
  H   H2351     1.0  0.97657  0.50105  0.48650  1.0000
  H   H2352     1.0  0.86869  0.74086  0.49063  1.0000
  C   C1960     1.0  0.64790  0.50387  0.79585  1.0000
  Fe  Fe261     1.0  0.85827  0.78343  0.32184  1.0000
  S   S516      1.0  0.88939  0.78961  0.32172  1.0000
  S   S517      1.0  0.85191  0.80993  0.32110  1.0000
  H   H2353     1.0  0.86557  0.77374  0.46353  1.0000
  C   C1961     1.0  0.64985  0.81187  0.22441  1.0000
  Fe  Fe262     1.0  0.88332  0.76854  0.35368  1.0000
  S   S518      1.0  0.90357  0.77199  0.38822  1.0000
  Fe  Fe263     1.0  0.88196  0.76564  0.29283  1.0000
  S   S519      1.0  0.89930  0.76248  0.25900  1.0000
  S   S520      1.0  0.85273  0.76352  0.35537  1.0000
  S   S521      1.0  0.85134  0.76090  0.29037  1.0000
  Fe  Fe264     1.0  0.93591  0.76957  0.07600  1.0000
  S   S522      1.0  0.92176  0.79021  0.07532  1.0000
  S   S523      1.0  0.96754  0.77593  0.08176  1.0000
  C   C1962     1.0  0.66363  0.85924  0.13427  1.0000
  H   H2354     1.0  0.71409  0.90497  0.22132  1.0000
  Fe  Fe265     1.0  0.90226  0.77113  0.04410  1.0000
  S   S524      1.0  0.88800  0.77973  0.00983  1.0000
  Fe  Fe266     1.0  0.90227  0.77124  0.10445  1.0000
  S   S525      1.0  0.89127  0.78136  0.13975  1.0000
  C   C1963     1.0  0.79253  0.85963  0.29481  1.0000
  C   C1964     1.0  0.91041  0.77597  0.46723  1.0000
  Fe  Fe267     1.0  0.73095  0.84856  0.35629  1.0000
  S   S526      1.0  0.74335  0.87969  0.35933  1.0000
  S   S527      1.0  0.69987  0.83103  0.35196  1.0000
  Fe  Fe268     1.0  0.76925  0.84571  0.36036  1.0000
  S   S528      1.0  0.78471  0.87702  0.36404  1.0000
  S   S529      1.0  0.77942  0.82166  0.36110  1.0000
  Fe  Fe269     1.0  0.76196  0.87622  0.39171  1.0000
  S   S530      1.0  0.76439  0.89606  0.42627  1.0000
  Fe  Fe270     1.0  0.76476  0.87812  0.33159  1.0000
  S   S531      1.0  0.77344  0.90007  0.29999  1.0000
  S   S532      1.0  0.74793  0.84489  0.39038  1.0000
  S   S533      1.0  0.75087  0.84699  0.32609  1.0000
  Fe  Fe271     1.0  0.76268  0.90749  0.14355  1.0000
  S   S534      1.0  0.74393  0.92361  0.14573  1.0000
  S   S535      1.0  0.76996  0.89132  0.17617  1.0000
  Fe  Fe272     1.0  0.76079  0.90657  0.08326  1.0000
  S   S536      1.0  0.74136  0.92194  0.08169  1.0000
  S   S537      1.0  0.77151  0.89462  0.04941  1.0000
  Fe  Fe273     1.0  0.76103  0.94097  0.11282  1.0000
  S   S538      1.0  0.76827  0.97273  0.10919  1.0000
  Fe  Fe274     1.0  0.72632  0.90336  0.11456  1.0000
  S   S539      1.0  0.69445  0.88870  0.11749  1.0000
  S   S540      1.0  0.78113  0.92611  0.11296  1.0000
  S   S541      1.0  0.74430  0.88676  0.11358  1.0000
  H   H2355     1.0  0.92666  0.77504  0.43394  1.0000
  C   C1965     1.0  0.97971  0.81348  0.15742  1.0000
  H   H2356     1.0  0.98043  0.82808  0.15907  1.0000
  C   C1966     1.0  0.68172  0.83435  0.13760  1.0000
  C   C1967     1.0  0.69166  0.85282  0.12963  1.0000
  C   C1968     1.0  0.68269  0.86541  0.12800  1.0000
  C   C1969     1.0  0.94968  0.80261  0.13494  1.0000
  H   H2357     1.0  0.79510  0.86085  0.24248  1.0000
  H   H2358     1.0  0.68881  0.82471  0.13866  1.0000
  H   H2359     1.0  0.70622  0.85721  0.12450  1.0000
  H   H2360     1.0  0.84144  0.80529  0.40622  1.0000
  C   C1970     1.0  0.76367  0.89308  0.46067  1.0000
  H   H2361     1.0  0.77973  0.84988  0.28416  1.0000
  C   C1971     1.0  0.77301  0.88540  0.99795  1.0000
  C   C1972     1.0  0.76688  0.89571  0.01556  1.0000
  C   C1973     1.0  0.75790  0.90701  0.00578  1.0000
  H   H2362     1.0  0.89950  0.82122  0.98951  1.0000
  C   C1974     1.0  0.95183  0.80214  0.18330  1.0000
  H   H2363     1.0  0.77998  0.87661  0.00535  1.0000
  H   H2364     1.0  0.75276  0.91474  0.01905  1.0000
  H   H2365     1.0  0.80381  0.88391  0.25696  1.0000
  C   C1975     1.0  0.77052  0.89703  0.26563  1.0000
  C   C1976     1.0  0.76521  0.87947  0.25344  1.0000
  C   C1977     1.0  0.76486  0.87795  0.22600  1.0000
  C   C1978     1.0  0.76910  0.89385  0.21045  1.0000
  C   C1979     1.0  0.77355  0.91129  0.22261  1.0000
  C   C1980     1.0  0.77446  0.91287  0.25008  1.0000
  H   H2366     1.0  0.76172  0.86712  0.26513  1.0000
  H   H2367     1.0  0.76135  0.86439  0.21673  1.0000
  H   H2368     1.0  0.77701  0.92365  0.21090  1.0000
  H   H2369     1.0  0.77856  0.92652  0.25935  1.0000
  C   C1981     1.0  0.68502  0.84099  0.36533  1.0000
  H   H2370     1.0  0.69343  0.86042  0.42238  1.0000
  H   H2371     1.0  0.84812  0.79914  0.37577  1.0000
  H   H2372     1.0  0.70827  0.88270  0.06318  1.0000
  C   C1982     1.0  0.67830  0.86798  0.37794  1.0000
  C   C1983     1.0  0.69018  0.86035  0.36648  1.0000
  C   C1984     1.0  0.80698  0.87114  0.25421  1.0000
  H   H2373     1.0  0.80917  0.98254  0.10509  1.0000
  H   H2374     1.0  0.68249  0.88300  0.37912  1.0000
  H   H2375     1.0  0.70329  0.86949  0.35851  1.0000
  C   C1985     1.0  0.83196  0.81303  0.33336  1.0000
  C   C1986     1.0  0.83196  0.83117  0.33506  1.0000
  C   C1987     1.0  0.81616  0.83416  0.34397  1.0000
  C   C1988     1.0  0.80010  0.81899  0.35091  1.0000
  C   C1989     1.0  0.80028  0.80092  0.34974  1.0000
  C   C1990     1.0  0.81612  0.79793  0.34107  1.0000
  H   H2376     1.0  0.84418  0.84294  0.32918  1.0000
  H   H2377     1.0  0.81635  0.84814  0.34544  1.0000
  H   H2378     1.0  0.78796  0.78910  0.35527  1.0000
  H   H2379     1.0  0.81590  0.78391  0.33987  1.0000
  C   C1991     1.0  0.89547  0.76626  0.22566  1.0000
  C   C1992     1.0  0.88333  0.77490  0.21783  1.0000
  C   C1993     1.0  0.88187  0.77903  0.19133  1.0000
  C   C1994     1.0  0.89226  0.77432  0.17239  1.0000
  C   C1995     1.0  0.90384  0.76500  0.18006  1.0000
  C   C1996     1.0  0.90557  0.76117  0.20662  1.0000
  H   H2380     1.0  0.87551  0.77889  0.23229  1.0000
  H   H2381     1.0  0.87287  0.78623  0.18555  1.0000
  H   H2382     1.0  0.91200  0.76145  0.16572  1.0000
  C   C1997     1.0  0.95112  0.79969  0.23112  1.0000
  C   C1998     1.0  0.89888  0.77268  0.42178  1.0000
  C   C1999     1.0  0.88152  0.77189  0.43031  1.0000
  H   H2383     1.0  0.97090  0.79410  0.20796  1.0000
  H   H2384     1.0  0.69196  0.86441  0.45645  1.0000
  H   H2385     1.0  0.72929  0.86034  0.00093  1.0000
  C   C2000     1.0  0.91320  0.77447  0.44038  1.0000
  H   H2386     1.0  0.87029  0.77013  0.41624  1.0000
  H   H2387     1.0  0.79008  0.87267  0.29861  1.0000
  N   N132      1.0  0.87141  0.81763  0.39968  1.0000
  C   C2001     1.0  0.88431  0.81343  0.38196  1.0000
  C   C2002     1.0  0.86983  0.83514  0.39079  1.0000
  C   C2003     1.0  0.87778  0.81974  0.42746  1.0000
  C   C2004     1.0  0.86650  0.82287  0.44698  1.0000
  H   H2388     1.0  0.69294  0.82566  0.25974  1.0000
  H   H2389     1.0  0.68470  0.88704  0.03327  1.0000
  H   H2390     1.0  0.89852  0.82483  0.38234  1.0000
  H   H2391     1.0  0.88573  0.80008  0.38700  1.0000
  H   H2392     1.0  0.87912  0.81192  0.36127  1.0000
  H   H2393     1.0  0.88345  0.84725  0.39358  1.0000
  H   H2394     1.0  0.86567  0.83422  0.36965  1.0000
  H   H2395     1.0  0.85903  0.83838  0.40143  1.0000
  H   H2396     1.0  0.67320  0.82540  0.30497  1.0000
  H   H2397     1.0  0.93000  0.81132  0.16755  1.0000
  H   H2398     1.0  0.83698  0.98003  0.02475  1.0000
  N   N133      1.0  0.70923  0.87746  0.20580  1.0000
  C   C2005     1.0  0.71767  0.86953  0.18565  1.0000
  C   C2006     1.0  0.68944  0.87360  0.19779  1.0000
  C   C2007     1.0  0.71954  0.89807  0.20628  1.0000
  C   C2008     1.0  0.70994  0.86871  0.23120  1.0000
  C   C2009     1.0  0.69991  0.84922  0.23428  1.0000
  C   C2010     1.0  0.72078  0.87892  0.25320  1.0000
  C   C2011     1.0  0.70051  0.84058  0.25796  1.0000
  C   C2012     1.0  0.72122  0.87013  0.27682  1.0000
  C   C2013     1.0  0.71110  0.85103  0.27922  1.0000
  H   H2399     1.0  0.71883  0.87677  0.16669  1.0000
  H   H2400     1.0  0.73209  0.87096  0.19176  1.0000
  H   H2401     1.0  0.70941  0.85443  0.18172  1.0000
  H   H2402     1.0  0.68124  0.85856  0.19324  1.0000
  H   H2403     1.0  0.68854  0.88115  0.17969  1.0000
  C   C2014     1.0  0.80610  0.81261  0.27837  1.0000
  H   H2404     1.0  0.73488  0.90201  0.20995  1.0000
  H   H2405     1.0  0.69173  0.84050  0.21822  1.0000
  H   H2406     1.0  0.72939  0.89367  0.25264  1.0000
  H   H2407     1.0  0.93466  0.79280  0.13460  1.0000
  H   H2408     1.0  0.80740  0.93671  0.06166  1.0000
  H   H2409     1.0  0.71169  0.84431  0.29753  1.0000
  C   C2015     1.0  0.66265  0.82814  0.14374  1.0000
  N   N134      1.0  0.80137  0.95687  0.03809  1.0000
  C   C2016     1.0  0.80175  0.94747  0.01290  1.0000
  C   C2017     1.0  0.81317  0.95200  0.05772  1.0000
  H   H2410     1.0  0.72626  0.87009  0.45759  1.0000
  H   H2411     1.0  0.78290  0.98198  0.04305  1.0000
  C   C2018     1.0  0.69048  0.85341  0.44153  1.0000
  H   H2412     1.0  0.64925  0.83860  0.31549  1.0000
  C   C2019     1.0  0.70732  0.87837  0.04281  1.0000
  H   H2413     1.0  0.96512  0.77815  0.13685  1.0000
  C   C2020     1.0  0.92891  0.80970  0.20860  1.0000
  S   S542      1.0  0.91717  0.75159  0.10680  1.0000
  C   C2021     1.0  0.66180  0.81133  0.30680  1.0000
  H   H2414     1.0  0.82774  0.95546  0.05132  1.0000
  H   H2415     1.0  0.79276  0.95044  0.99768  1.0000
  C   C2022     1.0  0.66123  0.85629  0.38830  1.0000
  H   H2416     1.0  0.85334  0.82410  0.44192  1.0000
  H   H2417     1.0  0.75815  0.91795  0.46762  1.0000
  H   H2418     1.0  0.66443  0.85616  0.07653  1.0000
  H   H2419     1.0  0.67074  0.81881  0.46666  1.0000
  S   S543      1.0  0.91755  0.75157  0.04282  1.0000
  C   C2023     1.0  0.95994  0.78065  0.15607  1.0000
  H   H2420     1.0  0.72482  0.86375  0.42391  1.0000
  H   H2421     1.0  0.68253  0.87772  0.98710  1.0000
  C   C2024     1.0  0.87883  0.77372  0.45714  1.0000
  H   H2422     1.0  0.87274  0.83088  0.98264  1.0000
  H   H2423     1.0  0.83856  0.88309  0.28298  1.0000
  H   H2424     1.0  0.79651  0.93200  0.01487  1.0000
  H   H2425     1.0  0.81614  0.95195  0.00527  1.0000
  C   C2025     1.0  0.93664  0.80820  0.18468  1.0000
  H   H2426     1.0  0.96920  0.77794  0.17099  1.0000
  C   C2026     1.0  0.89331  0.77593  0.47569  1.0000
  C   C2027     1.0  0.90019  0.82000  0.46255  1.0000
  C   C2028     1.0  0.70020  0.82858  0.42824  1.0000
  H   H2427     1.0  0.65361  0.79571  0.25561  1.0000
  H   H2428     1.0  0.73357  0.85165  0.44666  1.0000
  H   H2429     1.0  0.65652  0.86884  0.13299  1.0000
  H   H2430     1.0  0.97645  0.81654  0.07877  1.0000
  H   H2431     1.0  0.68526  0.81872  0.42702  1.0000
  C   C2029     1.0  0.78179  0.94901  0.04721  1.0000
  H   H2432     1.0  0.70896  0.82043  0.43312  1.0000
  H   H2433     1.0  0.66586  0.80111  0.29590  1.0000
  C   C2030     1.0  0.80869  0.97736  0.03462  1.0000
  C   C2031     1.0  0.69293  0.87542  0.99956  1.0000
  C   C2032     1.0  0.72287  0.85791  0.44396  1.0000
  S   S544      1.0  0.65068  0.80455  0.15284  1.0000
  N   N135      1.0  0.70354  0.84398  0.44752  1.0000
  N   N136      1.0  0.96003  0.79980  0.15830  1.0000
  H   H2434     1.0  0.94550  0.76992  0.15798  1.0000
  S   S545      1.0  0.88152  0.75440  0.07345  1.0000
  H   H2435     1.0  0.67552  0.84363  0.44038  1.0000
  H   H2436     1.0  0.81965  0.87525  0.24211  1.0000
  H   H2437     1.0  0.85288  0.78903  0.40508  1.0000
  H   H2438     1.0  0.70390  0.83396  0.40822  1.0000
  C   C2033     1.0  0.71886  0.86556  0.00699  1.0000
  C   C2034     1.0  0.85269  0.80214  0.39666  1.0000
  C   C2035     1.0  0.89498  0.81857  0.43603  1.0000
  H   H2439     1.0  0.71814  0.90429  0.18721  1.0000
  H   H2440     1.0  0.81392  0.95947  0.07664  1.0000
  C   C2036     1.0  0.71970  0.87080  0.03335  1.0000
  C   C2037     1.0  0.82556  0.87760  0.29437  1.0000
  H   H2441     1.0  0.82231  0.88998  0.29985  1.0000
  C   C2038     1.0  0.83501  0.83206  0.25878  1.0000
  H   H2442     1.0  0.82890  0.87178  0.31273  1.0000
  N   N137      1.0  0.80966  0.86328  0.27957  1.0000
  C   C2039     1.0  0.81373  0.84633  0.27488  1.0000
  H   H2443     1.0  0.79361  0.85370  0.31423  1.0000
  H   H2444     1.0  0.76921  0.86793  0.46058  1.0000
  H   H2445     1.0  0.90443  0.81593  0.42282  1.0000
  H   H2446     1.0  0.78848  0.82560  0.29212  1.0000
  H   H2447     1.0  0.91510  0.75462  0.21258  1.0000
  C   C2040     1.0  0.83046  0.84771  0.26246  1.0000
  H   H2448     1.0  0.68215  0.87805  0.21337  1.0000
  C   C2041     1.0  0.80146  0.82817  0.28234  1.0000
  C   C2042     1.0  0.82292  0.81458  0.26689  1.0000
  H   H2449     1.0  0.82678  0.80259  0.26481  1.0000
  H   H2450     1.0  0.72981  0.87819  0.29323  1.0000
  H   H2451     1.0  0.84028  0.86095  0.25578  1.0000
  H   H2452     1.0  0.79692  0.79903  0.28516  1.0000
  H   H2453     1.0  0.95647  0.79615  0.24920  1.0000
  H   H2454     1.0  0.78055  0.95553  0.06618  1.0000
  H   H2455     1.0  0.95030  0.81717  0.13405  1.0000
  C   C2043     1.0  0.70533  0.86765  0.98926  1.0000
  C   C2044     1.0  0.82766  0.98723  0.02782  1.0000
  C   C2045     1.0  0.69400  0.88073  0.02593  1.0000
  H   H2456     1.0  0.73041  0.86945  0.04640  1.0000
  H   H2457     1.0  0.84813  0.83349  0.25001  1.0000
  C   C2046     1.0  0.66782  0.82929  0.37536  1.0000
  S   S546      1.0  0.87892  0.74521  0.32498  1.0000
  C   C2047     1.0  0.93597  0.80523  0.23171  1.0000
  H   H2458     1.0  0.77695  0.93374  0.05045  1.0000
  H   H2459     1.0  0.95570  0.80004  0.11646  1.0000
  C   C2048     1.0  0.79742  0.98808  0.03761  1.0000
  H   H2460     1.0  0.77172  0.95088  0.03267  1.0000
  H   H2461     1.0  0.66386  0.81431  0.37486  1.0000
  H   H2462     1.0  0.91688  0.81365  0.20911  1.0000
  C   C2049     1.0  0.66021  0.86920  0.47847  1.0000
  H   H2463     1.0  0.66339  0.83413  0.08756  1.0000
  H   H2464     1.0  0.67158  0.84164  0.05550  1.0000
  C   C2050     1.0  0.95911  0.79835  0.20735  1.0000
  C   C2051     1.0  0.65366  0.84074  0.14213  1.0000
  C   C2052     1.0  0.65593  0.83692  0.38674  1.0000
  C   C2053     1.0  0.76608  0.87792  0.47245  1.0000
  H   H2465     1.0  0.65386  0.80398  0.20979  1.0000
  H   H2466     1.0  0.92940  0.80566  0.25007  1.0000
  C   C2054     1.0  0.66105  0.84147  0.07007  1.0000
  C   C2055     1.0  0.75991  0.90609  0.47653  1.0000
  C   C2056     1.0  0.64975  0.80732  0.25076  1.0000
  H   H2467     1.0  0.66175  0.80743  0.32766  1.0000
  C   C2057     1.0  0.70033  0.83628  0.47413  1.0000
  H   H2468     1.0  0.65904  0.87675  0.46117  1.0000
  C   C2058     1.0  0.87179  0.82411  0.47346  1.0000
  H   H2469     1.0  0.91299  0.81833  0.46880  1.0000
  H   H2470     1.0  0.64786  0.86928  0.05243  1.0000
  Fe  Fe275     1.0  0.85242  0.78232  0.81955  1.0000
  S   S547      1.0  0.88389  0.79052  0.82066  1.0000
  S   S548      1.0  0.84056  0.80470  0.81213  1.0000
  H   H2471     1.0  0.69815  0.90067  0.56775  1.0000
  C   C2059     1.0  0.80537  0.94812  0.76516  1.0000
  Fe  Fe276     1.0  0.87836  0.76974  0.85307  1.0000
  S   S549      1.0  0.89833  0.77285  0.88781  1.0000
  Fe  Fe277     1.0  0.87821  0.76630  0.79250  1.0000
  S   S550      1.0  0.89670  0.76353  0.75995  1.0000
  S   S551      1.0  0.84737  0.76312  0.85380  1.0000
  S   S552      1.0  0.84722  0.75951  0.78908  1.0000
  Fe  Fe278     1.0  0.93641  0.76764  0.57485  1.0000
  S   S553      1.0  0.92221  0.78820  0.57617  1.0000
  S   S554      1.0  0.96809  0.77428  0.58012  1.0000
  H   H2472     1.0  0.71619  0.85013  0.93238  1.0000
  H   H2473     1.0  0.65444  0.85498  0.84143  1.0000
  Fe  Fe279     1.0  0.90355  0.77075  0.54305  1.0000
  S   S555      1.0  0.88996  0.77998  0.50890  1.0000
  Fe  Fe280     1.0  0.90205  0.76762  0.60307  1.0000
  S   S556      1.0  0.88984  0.77670  0.63811  1.0000
  C   C2060     1.0  0.70783  0.87937  0.94530  1.0000
  C   C2061     1.0  0.88995  0.77528  0.97623  1.0000
  Fe  Fe281     1.0  0.73025  0.84967  0.86029  1.0000
  S   S557      1.0  0.74034  0.88069  0.86021  1.0000
  S   S558      1.0  0.69920  0.83142  0.85742  1.0000
  Fe  Fe282     1.0  0.77016  0.85074  0.86667  1.0000
  S   S559      1.0  0.78302  0.88242  0.86736  1.0000
  S   S560      1.0  0.78465  0.83063  0.87659  1.0000
  Fe  Fe283     1.0  0.75945  0.88063  0.89393  1.0000
  S   S561      1.0  0.75801  0.89993  0.92706  1.0000
  Fe  Fe284     1.0  0.76261  0.87981  0.83353  1.0000
  S   S562      1.0  0.76662  0.90042  0.80039  1.0000
  S   S563      1.0  0.74790  0.84938  0.89550  1.0000
  S   S564      1.0  0.75119  0.84832  0.83130  1.0000
  Fe  Fe285     1.0  0.75853  0.90210  0.64425  1.0000
  S   S565      1.0  0.74195  0.92000  0.64917  1.0000
  S   S566      1.0  0.76798  0.88820  0.67761  1.0000
  Fe  Fe286     1.0  0.75404  0.90157  0.58377  1.0000
  S   S567      1.0  0.73704  0.91960  0.58537  1.0000
  S   S568      1.0  0.75705  0.88402  0.54933  1.0000
  Fe  Fe287     1.0  0.75883  0.93693  0.61580  1.0000
  S   S569      1.0  0.77084  0.96893  0.62375  1.0000
  Fe  Fe288     1.0  0.72218  0.90111  0.61850  1.0000
  S   S570      1.0  0.69032  0.88738  0.62239  1.0000
  S   S571      1.0  0.77657  0.91959  0.61258  1.0000
  S   S572      1.0  0.73800  0.88255  0.61531  1.0000
  H   H2474     1.0  0.87219  0.78498  0.68224  1.0000
  C   C2062     1.0  0.81366  0.97520  0.68970  1.0000
  H   H2475     1.0  0.68388  0.89195  0.49414  1.0000
  C   C2063     1.0  0.67770  0.83278  0.64143  1.0000
  C   C2064     1.0  0.68744  0.85123  0.63318  1.0000
  C   C2065     1.0  0.67823  0.86360  0.63095  1.0000
  H   H2476     1.0  0.71521  0.85841  0.81558  1.0000
  C   C2066     1.0  0.80070  0.76055  0.77667  1.0000
  H   H2477     1.0  0.68512  0.82350  0.64365  1.0000
  H   H2478     1.0  0.70215  0.85588  0.62898  1.0000
  C   C2067     1.0  0.88852  0.82251  0.48123  1.0000
  C   C2068     1.0  0.76179  0.89808  0.96099  1.0000
  C   C2069     1.0  0.65420  0.83365  0.89422  1.0000
  C   C2070     1.0  0.76449  0.87570  0.49970  1.0000
  C   C2071     1.0  0.76041  0.88852  0.51549  1.0000
  C   C2072     1.0  0.75823  0.90382  0.50378  1.0000
  H   H2479     1.0  0.69484  0.85302  0.55414  1.0000
  C   C2073     1.0  0.69351  0.82049  0.52454  1.0000
  H   H2480     1.0  0.76633  0.86388  0.50860  1.0000
  H   H2481     1.0  0.75523  0.91388  0.51566  1.0000
  S   S573      1.0  0.88209  0.75240  0.57025  1.0000
  C   C2074     1.0  0.76463  0.89530  0.76638  1.0000
  C   C2075     1.0  0.76812  0.88025  0.75602  1.0000
  C   C2076     1.0  0.76871  0.87804  0.72875  1.0000
  C   C2077     1.0  0.76535  0.89056  0.71159  1.0000
  C   C2078     1.0  0.76086  0.90502  0.72192  1.0000
  C   C2079     1.0  0.76083  0.90756  0.74918  1.0000
  H   H2482     1.0  0.77119  0.87079  0.76903  1.0000
  H   H2483     1.0  0.77218  0.86680  0.72094  1.0000
  H   H2484     1.0  0.75818  0.91464  0.70892  1.0000
  H   H2485     1.0  0.75826  0.91933  0.75705  1.0000
  C   C2080     1.0  0.68413  0.83986  0.87377  1.0000
  C   C2081     1.0  0.68905  0.85898  0.87840  1.0000
  C   C2082     1.0  0.67659  0.86540  0.89089  1.0000
  C   C2083     1.0  0.80838  0.92316  0.73979  1.0000
  H   H2486     1.0  0.92972  0.78161  0.64013  1.0000
  C   C2084     1.0  0.66663  0.82722  0.88162  1.0000
  H   H2487     1.0  0.70233  0.86890  0.87208  1.0000
  H   H2488     1.0  0.68050  0.88024  0.89432  1.0000
  H   H2489     1.0  0.77506  0.87835  0.95745  1.0000
  C   C2085     1.0  0.68495  0.84863  0.95432  1.0000
  C   C2086     1.0  0.82532  0.81189  0.83075  1.0000
  C   C2087     1.0  0.82038  0.82646  0.82145  1.0000
  C   C2088     1.0  0.80813  0.83254  0.83532  1.0000
  C   C2089     1.0  0.80070  0.82409  0.85873  1.0000
  C   C2090     1.0  0.80589  0.80971  0.86825  1.0000
  C   C2091     1.0  0.81809  0.80359  0.85435  1.0000
  H   H2490     1.0  0.82595  0.83303  0.80326  1.0000
  H   H2491     1.0  0.80431  0.84364  0.82779  1.0000
  H   H2492     1.0  0.80019  0.80310  0.88635  1.0000
  H   H2493     1.0  0.82180  0.79243  0.86186  1.0000
  C   C2092     1.0  0.89354  0.76608  0.72600  1.0000
  C   C2093     1.0  0.88197  0.77487  0.71640  1.0000
  H   H2494     1.0  0.91722  0.77393  0.98012  1.0000
  C   C2094     1.0  0.89099  0.77163  0.67166  1.0000
  C   C2095     1.0  0.90211  0.76229  0.68115  1.0000
  C   C2096     1.0  0.90352  0.75974  0.70822  1.0000
  H   H2495     1.0  0.92104  0.77199  0.93232  1.0000
  H   H2496     1.0  0.68800  0.90414  0.53754  1.0000
  H   H2497     1.0  0.67360  0.88840  0.56119  1.0000
  C   C2097     1.0  0.66278  0.84964  0.52302  1.0000
  C   C2098     1.0  0.89413  0.77279  0.92170  1.0000
  C   C2099     1.0  0.87762  0.77356  0.93126  1.0000
  C   C2100     1.0  0.87567  0.77505  0.95841  1.0000
  H   H2498     1.0  0.87428  0.77989  0.72985  1.0000
  N   N138      1.0  0.69122  0.87764  0.54015  1.0000
  C   C2101     1.0  0.90820  0.77256  0.93952  1.0000
  H   H2499     1.0  0.86667  0.77374  0.91782  1.0000
  C   C2102     1.0  0.87982  0.82834  0.96588  1.0000
  N   N139      1.0  0.70287  0.86291  0.71207  1.0000
  C   C2103     1.0  0.70791  0.88222  0.70243  1.0000
  C   C2104     1.0  0.71402  0.85435  0.69745  1.0000
  C   C2105     1.0  0.68257  0.85241  0.70593  1.0000
  C   C2106     1.0  0.70650  0.86205  0.74046  1.0000
  C   C2107     1.0  0.71466  0.87826  0.75676  1.0000
  C   C2108     1.0  0.70170  0.84449  0.75263  1.0000
  C   C2109     1.0  0.71765  0.87684  0.78356  1.0000
  C   C2110     1.0  0.70471  0.84324  0.77947  1.0000
  C   C2111     1.0  0.71263  0.85940  0.79488  1.0000
  H   H2500     1.0  0.70480  0.88232  0.68104  1.0000
  H   H2501     1.0  0.69985  0.88948  0.71229  1.0000
  H   H2502     1.0  0.72321  0.89064  0.70519  1.0000
  H   H2503     1.0  0.72926  0.86125  0.70281  1.0000
  H   H2504     1.0  0.71262  0.85569  0.67598  1.0000
  H   H2505     1.0  0.70970  0.83920  0.70120  1.0000
  H   H2506     1.0  0.67369  0.85679  0.71914  1.0000
  H   H2507     1.0  0.67868  0.85482  0.68569  1.0000
  H   H2508     1.0  0.67830  0.83703  0.70745  1.0000
  H   H2509     1.0  0.71923  0.89223  0.74929  1.0000
  H   H2510     1.0  0.69578  0.83162  0.74133  1.0000
  H   H2511     1.0  0.71261  0.87384  0.51726  1.0000
  C   C2112     1.0  0.67445  0.87770  0.49737  1.0000
  H   H2512     1.0  0.92874  0.80032  0.67781  1.0000
  N   N140      1.0  0.87519  0.82655  0.89119  1.0000
  C   C2113     1.0  0.89075  0.83830  0.87471  1.0000
  C   C2114     1.0  0.86750  0.80728  0.88018  1.0000
  C   C2115     1.0  0.86009  0.83401  0.88922  1.0000
  C   C2116     1.0  0.88220  0.82614  0.91828  1.0000
  C   C2117     1.0  0.87345  0.82993  0.94053  1.0000
  C   C2118     1.0  0.89764  0.82077  0.92309  1.0000
  H   H2513     1.0  0.81358  0.76717  0.82654  1.0000
  C   C2119     1.0  0.80812  0.93141  0.76394  1.0000
  C   C2120     1.0  0.65854  0.82632  0.64723  1.0000
  H   H2514     1.0  0.90161  0.83234  0.87214  1.0000
  H   H2515     1.0  0.88562  0.83963  0.85456  1.0000
  H   H2516     1.0  0.89780  0.85262  0.88334  1.0000
  H   H2517     1.0  0.87832  0.80107  0.87951  1.0000
  H   H2518     1.0  0.86191  0.80688  0.85985  1.0000
  H   H2519     1.0  0.85585  0.79794  0.89210  1.0000
  H   H2520     1.0  0.66233  0.80756  0.75126  1.0000
  H   H2521     1.0  0.86485  0.84843  0.89761  1.0000
  H   H2522     1.0  0.85559  0.83469  0.86851  1.0000
  H   H2523     1.0  0.91247  0.75288  0.71552  1.0000
  H   H2524     1.0  0.90452  0.81684  0.90730  1.0000
  C   C2121     1.0  0.68759  0.89340  0.55202  1.0000
  C   C2122     1.0  0.69226  0.86528  0.56164  1.0000
  H   H2525     1.0  0.67929  0.86039  0.57326  1.0000
  H   H2526     1.0  0.79211  0.78902  0.77842  1.0000
  H   H2527     1.0  0.65160  0.86636  0.63423  1.0000
  H   H2528     1.0  0.66641  0.84367  0.82322  1.0000
  H   H2529     1.0  0.74908  0.91753  0.97121  1.0000
  C   C2123     1.0  0.78103  0.76811  0.80894  1.0000
  C   C2124     1.0  0.78036  0.95981  0.69580  1.0000
  H   H2530     1.0  0.69096  0.81436  0.54374  1.0000
  C   C2125     1.0  0.89500  0.82305  0.96984  1.0000
  C   C2126     1.0  0.77511  0.79689  0.80371  1.0000
  C   C2127     1.0  0.76443  0.79305  0.82602  1.0000
  H   H2531     1.0  0.77753  0.80976  0.79346  1.0000
  H   H2532     1.0  0.80056  0.96948  0.74423  1.0000
  H   H2533     1.0  0.71554  0.84109  0.96454  1.0000
  C   C2128     1.0  0.80237  0.75327  0.82175  1.0000
  S   S574      1.0  0.91899  0.75152  0.53975  1.0000
  H   H2534     1.0  0.94860  0.82047  0.68818  1.0000
  C   C2129     1.0  0.94524  0.78699  0.64300  1.0000
  H   H2535     1.0  0.79294  0.95203  0.65178  1.0000
  C   C2130     1.0  0.75571  0.90845  0.97862  1.0000
  C   C2131     1.0  0.76994  0.76458  0.83153  1.0000
  H   H2536     1.0  0.66522  0.80539  0.51016  1.0000
  H   H2537     1.0  0.73240  0.86404  0.95667  1.0000
  C   C2132     1.0  0.78346  0.78475  0.79529  1.0000
  H   H2538     1.0  0.90982  0.75727  0.66779  1.0000
  H   H2539     1.0  0.80682  0.75024  0.77085  1.0000
  H   H2540     1.0  0.72156  0.89101  0.54279  1.0000
  H   H2541     1.0  0.65905  0.86051  0.80764  1.0000
  H   H2542     1.0  0.94979  0.83219  0.64326  1.0000
  C   C2133     1.0  0.65895  0.85700  0.63605  1.0000
  C   C2134     1.0  0.65911  0.85277  0.89879  1.0000
  H   H2543     1.0  0.72118  0.89081  0.95181  1.0000
  C   C2135     1.0  0.80206  0.94813  0.71729  1.0000
  H   H2544     1.0  0.72443  0.88937  0.79558  1.0000
  H   H2545     1.0  0.84715  0.82492  0.89912  1.0000
  S   S575      1.0  0.91693  0.74784  0.60346  1.0000
  H   H2546     1.0  0.70121  0.82974  0.78846  1.0000
  H   H2547     1.0  0.79282  0.97812  0.57548  1.0000
  C   C2136     1.0  0.67629  0.86813  0.52015  1.0000
  H   H2548     1.0  0.68101  0.83638  0.96733  1.0000
  C   C2137     1.0  0.90606  0.77360  0.96666  1.0000
  H   H2549     1.0  0.81010  0.90992  0.73897  1.0000
  H   H2550     1.0  0.80958  0.92457  0.78179  1.0000
  H   H2551     1.0  0.79190  0.76166  0.75974  1.0000
  C   C2138     1.0  0.65487  0.84890  0.82178  1.0000
  H   H2552     1.0  0.97557  0.84209  0.66976  1.0000
  H   H2553     1.0  0.80929  0.74361  0.81606  1.0000
  H   H2554     1.0  0.94860  0.79763  0.69359  1.0000
  H   H2555     1.0  0.69647  0.88483  0.94635  1.0000
  H   H2556     1.0  0.82735  0.97362  0.68809  1.0000
  H   H2557     1.0  0.77659  0.96548  0.67757  1.0000
  H   H2558     1.0  0.75865  0.80292  0.83305  1.0000
  H   H2559     1.0  0.71151  0.89649  0.51418  1.0000
  H   H2560     1.0  0.92171  0.77779  0.48129  1.0000
  C   C2139     1.0  0.77030  0.88639  0.97079  1.0000
  C   C2140     1.0  0.79633  0.94538  0.66932  1.0000
  H   H2561     1.0  0.95334  0.81902  0.61632  1.0000
  C   C2141     1.0  0.65109  0.82012  0.78068  1.0000
  C   C2142     1.0  0.80258  0.95651  0.74223  1.0000
  H   H2562     1.0  0.66271  0.84138  0.53990  1.0000
  C   C2143     1.0  0.71129  0.83337  0.51873  1.0000
  H   H2563     1.0  0.68400  0.84330  0.93388  1.0000
  N   N141      1.0  0.70408  0.86246  0.96116  1.0000
  C   C2144     1.0  0.90399  0.81945  0.94849  1.0000
  C   C2145     1.0  0.70990  0.88504  0.52797  1.0000
  H   H2564     1.0  0.70396  0.87273  0.57591  1.0000
  H   H2565     1.0  0.91544  0.81478  0.95170  1.0000
  H   H2566     1.0  0.86146  0.83384  0.93894  1.0000
  H   H2567     1.0  0.80518  0.92373  0.69884  1.0000
  C   C2146     1.0  0.80543  0.93132  0.71673  1.0000
  H   H2568     1.0  0.80961  0.94355  0.66506  1.0000
  C   C2147     1.0  0.78616  0.99040  0.60966  1.0000
  H   H2569     1.0  0.66275  0.81239  0.87821  1.0000
  H   H2570     1.0  0.67401  0.85464  0.95564  1.0000
  N   N142      1.0  0.79818  0.95684  0.69338  1.0000
  C   C2148     1.0  0.88084  0.77775  0.68939  1.0000
  H   H2571     1.0  0.75391  0.77433  0.85764  1.0000
  H   H2572     1.0  0.76765  0.75237  0.84311  1.0000
  H   H2573     1.0  0.95107  0.78616  0.62355  1.0000
  H   H2574     1.0  0.89232  0.82282  0.50182  1.0000
  H   H2575     1.0  0.93103  0.81156  0.63183  1.0000
  H   H2576     1.0  0.80502  0.95435  0.78408  1.0000
  H   H2577     1.0  0.76846  0.94648  0.69975  1.0000
  H   H2578     1.0  0.86324  0.77652  0.96566  1.0000
  H   H2579     1.0  0.70938  0.87669  0.92428  1.0000
  C   C2149     1.0  0.94439  0.80624  0.67941  1.0000
  C   C2150     1.0  0.71763  0.85403  0.95357  1.0000
  C   C2151     1.0  0.94656  0.81784  0.63554  1.0000
  N   N143      1.0  0.95286  0.80642  0.65368  1.0000
  H   H2580     1.0  0.97906  0.78965  0.64497  1.0000
  C   C2152     1.0  0.76188  0.77696  0.83994  1.0000
  H   H2581     1.0  0.81131  0.98199  0.67156  1.0000
  H   H2582     1.0  0.81279  0.77419  0.77969  1.0000
  C   C2153     1.0  0.71474  0.84112  0.49391  1.0000
  H   H2583     1.0  0.94826  0.77719  0.65638  1.0000
  H   H2584     1.0  0.72261  0.83735  0.53345  1.0000
  N   N144      1.0  0.78958  0.75485  0.80065  1.0000
  S   S576      1.0  0.87552  0.74636  0.82519  1.0000
  C   C2154     1.0  0.64914  0.83847  0.64413  1.0000
  H   H2585     1.0  0.78486  0.93131  0.67084  1.0000
  C   C2155     1.0  0.67905  0.81545  0.50561  1.0000
  C   C2156     1.0  0.65184  0.81320  0.75559  1.0000
  H   H2586     1.0  0.66126  0.81959  0.79525  1.0000
  H   H2587     1.0  0.78108  0.96999  0.71155  1.0000
  H   H2588     1.0  0.97559  0.81455  0.58454  1.0000
  H   H2589     1.0  0.86273  0.82601  0.48812  1.0000
  H   H2590     1.0  0.81509  0.98512  0.70617  1.0000
  C   C2157     1.0  0.64859  0.84130  0.50398  1.0000
  C   C2158     1.0  0.97362  0.81448  0.65675  1.0000
  C   C2159     1.0  0.79511  0.99100  0.58601  1.0000
  H   H2591     1.0  0.72887  0.85081  0.49070  1.0000
  H   H2592     1.0  0.79498  0.74773  0.84004  1.0000
  C   C2160     1.0  0.68235  0.82321  0.48077  1.0000
