data_image0
_chemical_formula_structural       FeSCFeS2FeSFeCS2FeS2FeSHFe2S3H2CHCHSHC5HCHC6H4CHSH6CH2C2HC8HCH2C2HC3NH3CSCH2SHC2HNCH3C2HCHC2H2CH2CH2C2HC2HCH5CHNH2C3H3CH2SH2C2H2NHC2H3CH4CH3FeS2FeS2FeSFeS3C2H2CH2C3HC4HCH5NHCH3CHCHCH3C2HCH2CHCH2CHC2HCHCHFeS2HC2FeSCHSC2H4SC2H5CHC2NH2C2Fe2H5C2NH2CFeSHFeS2FeSFeS3C2HC5H3C7H4CH2NCHCHNCH4CHSHCH4CH4C3H2C3H3CHCHC2H2C4H6CH2CHNFeS2FeSHFeSFeS3CH3C4H3C5H4C3H4C5HSC2H2C2HCH2CHCHCHCH2CH2CHCHCH2N2CHCH4CNHC4H3CHCNH2CH2CHCH3C2SCH2CH5C2HFeS2FeHFeSFeHS2H3C6H4CHC2HSCH2CH3C2NC2H3CHC2H5C3HC2NHC2HCH2CHCSH5CFeSFeS2FeSFeS3HCHCH2C6H5CH2CHNH5CHCH4CHC3H6CHCH2C2H2C3HC3NC3SHSC5HCSCH2CH3CHC6H4C6SCHSHCH2CH6C3H4FeS2FeS2FeSFeHS2FeS2HFe2H2S2H3NHSC4HC3HCHCHC6H5CNC4HCHFeH5CH3CH3C3HCH2CHCHCHCSH4NH2C2H2C3HC3H2SHCHCH4FeSCFeS2FeSFeHS2FeS2FeS2FeSFeS2CH4CH2C7H5CHCH2CH2CHNC8H6SH3NCHCSH2C2H3NC4HCH5C2H3CHCSC2HC2H3CH2CH3C2H2C3
_chemical_formula_sum              "Fe48 S96 C360 H432 N24"
_cell_length_a       30.4118
_cell_length_b       30.1914
_cell_length_c       57.365
_cell_angle_alpha    89.9293
_cell_angle_beta     90.0524
_cell_angle_gamma    119.846

_space_group_name_H-M_alt    "P 1"
_space_group_IT_number       1

loop_
  _space_group_symop_operation_xyz
  'x, y, z'

loop_
  _atom_site_type_symbol
  _atom_site_label
  _atom_site_symmetry_multiplicity
  _atom_site_fract_x
  _atom_site_fract_y
  _atom_site_fract_z
  _atom_site_occupancy
  Fe  Fe1       1.0  0.08562  0.29157  0.16960  1.0000
  S   S1        1.0  0.15167  0.36785  0.17955  1.0000
  C   C1        1.0  0.36761  0.01092  0.13720  1.0000
  Fe  Fe2       1.0  0.14973  0.27273  0.13283  1.0000
  S   S2        1.0  0.21963  0.34737  0.14090  1.0000
  S   S3        1.0  0.14852  0.21179  0.10845  1.0000
  Fe  Fe3       1.0  0.19693  0.32716  0.17844  1.0000
  S   S4        1.0  0.24310  0.32851  0.20985  1.0000
  Fe  Fe4       1.0  0.16746  0.38123  0.14106  1.0000
  C   C2        1.0  0.28446  0.98699  0.12238  1.0000
  S   S5        1.0  0.12990  0.25043  0.17060  1.0000
  S   S6        1.0  0.09852  0.30691  0.13087  1.0000
  Fe  Fe5       1.0  0.36709  0.16990  0.23283  1.0000
  S   S7        1.0  0.28726  0.10518  0.23486  1.0000
  S   S8        1.0  0.38733  0.23267  0.20656  1.0000
  Fe  Fe6       1.0  0.40647  0.12562  0.27014  1.0000
  S   S9        1.0  0.32824  0.05763  0.27526  1.0000
  H   H1        1.0  0.32929  0.19487  0.31949  1.0000
  Fe  Fe7       1.0  0.32229  0.05485  0.23588  1.0000
  Fe  Fe8       1.0  0.30016  0.11448  0.27390  1.0000
  S   S10       1.0  0.23812  0.11547  0.29624  1.0000
  S   S11       1.0  0.40209  0.11972  0.23109  1.0000
  S   S12       1.0  0.37840  0.18234  0.27140  1.0000
  H   H2        1.0  0.25303  0.39226  0.30393  1.0000
  H   H3        1.0  0.26290  0.13949  0.09182  1.0000
  C   C3        1.0  0.24789  0.15751  0.31998  1.0000
  H   H4        1.0  0.16793  0.12793  0.32542  1.0000
  C   C4        1.0  0.17244  0.30418  0.29129  1.0000
  H   H5        1.0  0.40998  0.99717  0.04083  1.0000
  S   S13       1.0  0.38199  0.07380  0.03764  1.0000
  H   H6        1.0  0.02221  0.22547  0.31726  1.0000
  C   C5        1.0  0.19453  0.22274  0.08669  1.0000
  C   C6        1.0  0.23020  0.27198  0.07941  1.0000
  C   C7        1.0  0.26395  0.27898  0.06107  1.0000
  C   C8        1.0  0.22857  0.18771  0.05780  1.0000
  C   C9        1.0  0.19406  0.18070  0.07582  1.0000
  H   H7        1.0  0.23090  0.30471  0.08750  1.0000
  C   C10       1.0  0.19904  0.04523  0.13137  1.0000
  H   H8        1.0  0.16633  0.14243  0.08119  1.0000
  C   C11       1.0  0.28284  0.30156  0.20835  1.0000
  C   C12       1.0  0.28174  0.26985  0.22651  1.0000
  C   C13       1.0  0.31353  0.24846  0.22601  1.0000
  C   C14       1.0  0.34751  0.25958  0.20757  1.0000
  C   C15       1.0  0.34920  0.29184  0.18954  1.0000
  C   C16       1.0  0.31670  0.31255  0.18984  1.0000
  H   H9        1.0  0.25587  0.26132  0.24092  1.0000
  H   H10       1.0  0.31202  0.22374  0.24004  1.0000
  H   H11       1.0  0.37563  0.30086  0.17530  1.0000
  H   H12       1.0  0.31834  0.33765  0.17596  1.0000
  C   C17       1.0  0.10037  0.18214  0.04269  1.0000
  H   H13       1.0  0.35300  0.99302  0.09181  1.0000
  S   S14       1.0  0.30669  0.98586  0.21338  1.0000
  H   H14       1.0  0.27201  0.00327  0.03769  1.0000
  H   H15       1.0  0.18320  0.00433  0.13352  1.0000
  H   H16       1.0  0.39809  0.05920  0.09600  1.0000
  H   H17       1.0  0.24099  0.26967  0.28507  1.0000
  H   H18       1.0  0.35197  0.00132  0.15518  1.0000
  H   H19       1.0  0.19125  0.23050  0.30506  1.0000
  C   C18       1.0  0.96945  0.41621  0.12891  1.0000
  H   H20       1.0  0.06565  0.29140  0.24854  1.0000
  H   H21       1.0  0.00878  0.37402  0.13378  1.0000
  C   C19       1.0  0.22817  0.21173  0.16036  1.0000
  C   C20       1.0  0.26025  0.35982  0.30148  1.0000
  H   H22       1.0  0.25510  0.27076  0.31505  1.0000
  C   C21       1.0  0.46400  0.01120  0.28490  1.0000
  C   C22       1.0  0.19368  0.07391  0.14913  1.0000
  C   C23       1.0  0.24369  0.12118  0.10790  1.0000
  C   C24       1.0  0.07263  0.13011  0.03783  1.0000
  C   C25       1.0  0.96961  0.45761  0.11781  1.0000
  C   C26       1.0  0.34399  0.07583  0.13058  1.0000
  C   C27       1.0  0.00859  0.40580  0.12499  1.0000
  C   C28       1.0  0.30271  0.22485  0.34696  1.0000
  H   H23       1.0  0.20586  0.11033  0.19405  1.0000
  C   C29       1.0  0.35720  0.03009  0.09772  1.0000
  H   H24       1.0  0.31731  0.04804  0.16593  1.0000
  H   H25       1.0  0.26991  0.22951  0.15832  1.0000
  C   C30       1.0  0.23822  0.15015  0.12546  1.0000
  C   C31       1.0  0.33143  0.08005  0.15403  1.0000
  H   H26       1.0  0.08878  0.19817  0.05674  1.0000
  C   C32       1.0  0.12912  0.30577  0.29957  1.0000
  C   C33       1.0  0.09111  0.30103  0.28422  1.0000
  C   C34       1.0  0.09496  0.29463  0.26041  1.0000
  N   N1        1.0  0.33863  0.02711  0.12195  1.0000
  H   H27       1.0  0.40798  0.04164  0.13861  1.0000
  H   H28       1.0  0.12421  0.31178  0.31772  1.0000
  H   H29       1.0  0.98663  0.14113  0.24728  1.0000
  C   C35       1.0  0.26324  0.23698  0.05008  1.0000
  S   S15       1.0  0.18764  0.45280  0.11906  1.0000
  C   C36       1.0  0.01736  0.29928  0.34672  1.0000
  H   H30       1.0  0.13202  0.14015  0.15126  1.0000
  H   H31       1.0  0.29039  0.31727  0.05522  1.0000
  S   S16       1.0  0.00935  0.26832  0.18687  1.0000
  H   H32       1.0  0.12808  0.09535  0.17300  1.0000
  C   C37       1.0  0.20294  0.31012  0.33204  1.0000
  C   C38       1.0  0.36735  0.16578  0.12531  1.0000
  H   H33       1.0  0.08501  0.19216  0.32059  1.0000
  N   N2        1.0  0.21422  0.31044  0.30678  1.0000
  C   C39       1.0  0.29647  0.19282  0.32786  1.0000
  H   H34       1.0  0.22053  0.17316  0.20182  1.0000
  H   H35       1.0  0.36086  0.20442  0.15557  1.0000
  H   H36       1.0  0.26627  0.16381  0.18618  1.0000
  C   C40       1.0  0.13718  0.29368  0.25174  1.0000
  C   C41       1.0  0.36169  0.12012  0.11633  1.0000
  H   H37       1.0  0.03144  0.19844  0.21374  1.0000
  C   C42       1.0  0.04785  0.43655  0.10987  1.0000
  H   H38       1.0  0.05877  0.30325  0.29065  1.0000
  C   C43       1.0  0.22364  0.06883  0.11071  1.0000
  C   C44       1.0  0.33756  0.12593  0.16282  1.0000
  H   H39       1.0  0.17351  0.05374  0.16466  1.0000
  H   H40       1.0  0.22719  0.15502  0.04942  1.0000
  C   C45       1.0  0.17552  0.29873  0.26684  1.0000
  H   H41       1.0  0.26735  0.98310  0.13985  1.0000
  H   H42       1.0  0.38134  0.19926  0.11425  1.0000
  C   C46       1.0  0.21270  0.12725  0.14665  1.0000
  H   H43       1.0  0.33535  0.03948  0.08502  1.0000
  H   H44       1.0  0.32912  0.12859  0.18097  1.0000
  C   C47       1.0  0.96689  0.10497  0.33962  1.0000
  C   C48       1.0  0.22568  0.26860  0.30276  1.0000
  H   H45       1.0  0.25342  0.19026  0.12175  1.0000
  C   C49       1.0  0.14891  0.13625  0.16789  1.0000
  C   C50       1.0  0.99881  0.19819  0.22137  1.0000
  H   H46       1.0  0.37187  0.12072  0.09823  1.0000
  C   C51       1.0  0.97331  0.16573  0.24042  1.0000
  H   H47       1.0  0.16584  0.25376  0.03411  1.0000
  H   H48       1.0  0.29254  0.36655  0.31300  1.0000
  H   H49       1.0  0.44521  0.41729  0.02434  1.0000
  H   H50       1.0  0.26179  0.99563  0.10992  1.0000
  H   H51       1.0  0.21245  0.21960  0.14442  1.0000
  C   C52       1.0  0.34445  0.00656  0.03851  1.0000
  H   H52       1.0  0.23412  0.31256  0.34325  1.0000
  N   N3        1.0  0.20413  0.15617  0.16522  1.0000
  H   H53       1.0  0.04088  0.13331  0.30714  1.0000
  H   H54       1.0  0.20824  0.29960  0.25902  1.0000
  C   C53       1.0  0.20568  0.15535  0.33126  1.0000
  C   C54       1.0  0.35559  0.16875  0.14853  1.0000
  C   C55       1.0  0.08873  0.10905  0.02038  1.0000
  H   H55       1.0  0.14080  0.29014  0.23309  1.0000
  H   H56       1.0  0.03703  0.31305  0.33034  1.0000
  H   H57       1.0  0.07843  0.42838  0.10702  1.0000
  C   C56       1.0  0.22500  0.15038  0.18770  1.0000
  H   H58       1.0  0.27315  0.36163  0.28316  1.0000
  H   H59       1.0  0.14085  0.15747  0.18154  1.0000
  S   S17       1.0  0.30366  0.24810  0.02572  1.0000
  H   H60       1.0  0.22120  0.23236  0.17466  1.0000
  H   H61       1.0  0.16800  0.27445  0.33716  1.0000
  C   C57       1.0  0.98105  0.22909  0.21182  1.0000
  C   C58       1.0  0.14387  0.21343  0.02990  1.0000
  H   H62       1.0  0.19854  0.34341  0.33699  1.0000
  H   H63       1.0  0.43562  0.01819  0.27696  1.0000
  N   N4        1.0  0.00965  0.15708  0.33515  1.0000
  H   H64       1.0  0.43996  0.01384  0.31973  1.0000
  C   C59       1.0  0.29125  0.98138  0.03908  1.0000
  C   C60       1.0  0.05200  0.15365  0.32416  1.0000
  H   H65       1.0  0.22672  0.04654  0.09670  1.0000
  H   H66       1.0  0.03885  0.10596  0.04792  1.0000
  H   H67       1.0  0.98605  0.16878  0.30107  1.0000
  C   C61       1.0  0.99315  0.18454  0.31904  1.0000
  H   H68       1.0  0.06517  0.13265  0.33557  1.0000
  H   H69       1.0  0.18136  0.08802  0.01633  1.0000
  H   H70       1.0  0.21371  0.98568  0.19901  1.0000
  H   H71       1.0  0.06588  0.06850  0.01728  1.0000
  C   C62       1.0  0.04875  0.47839  0.09887  1.0000
  H   H72       1.0  0.41611  0.30797  0.01696  1.0000
  H   H73       1.0  0.38296  0.36803  0.01687  1.0000
  H   H74       1.0  0.38357  0.40873  0.44798  1.0000
  Fe  Fe9       1.0  0.23836  0.37865  0.43403  1.0000
  S   S18       1.0  0.22711  0.30048  0.44207  1.0000
  S   S19       1.0  0.29386  0.44320  0.45858  1.0000
  Fe  Fe10      1.0  0.15316  0.33169  0.39712  1.0000
  S   S20       1.0  0.13716  0.25173  0.40328  1.0000
  S   S21       1.0  0.11200  0.33989  0.36605  1.0000
  Fe  Fe11      1.0  0.14297  0.27277  0.44145  1.0000
  S   S22       1.0  0.08859  0.21609  0.46880  1.0000
  Fe  Fe12      1.0  0.22190  0.28711  0.40314  1.0000
  S   S23       1.0  0.27159  0.26374  0.38255  1.0000
  S   S24       1.0  0.15384  0.35106  0.43514  1.0000
  S   S25       1.0  0.23802  0.36679  0.39525  1.0000
  C   C63       1.0  0.01962  0.29199  0.38863  1.0000
  C   C64       1.0  0.04527  0.30865  0.36740  1.0000
  H   H75       1.0  0.19570  0.31401  0.50499  1.0000
  H   H76       1.0  0.20552  0.43146  0.48180  1.0000
  C   C65       1.0  0.98445  0.22892  0.52416  1.0000
  H   H77       1.0  0.04520  0.17162  0.36911  1.0000
  H   H78       1.0  0.24791  0.38564  0.53146  1.0000
  C   C66       1.0  0.99602  0.18949  0.52507  1.0000
  C   C67       1.0  0.18564  0.33996  0.49567  1.0000
  C   C68       1.0  0.10665  0.36514  0.53316  1.0000
  H   H79       1.0  0.34053  0.25138  0.35309  1.0000
  C   C69       1.0  0.00531  0.26492  0.50595  1.0000
  C   C70       1.0  0.03750  0.26196  0.48904  1.0000
  C   C71       1.0  0.04900  0.22250  0.48995  1.0000
  C   C72       1.0  0.02769  0.18614  0.50798  1.0000
  H   H80       1.0  0.13906  0.39325  0.48680  1.0000
  C   C73       1.0  0.07302  0.30425  0.56492  1.0000
  H   H81       1.0  0.05307  0.29001  0.47522  1.0000
  H   H82       1.0  0.03644  0.15554  0.50895  1.0000
  H   H83       1.0  0.99666  0.29557  0.50498  1.0000
  H   H84       1.0  0.98138  0.16205  0.53915  1.0000
  H   H85       1.0  0.17841  0.44659  0.50584  1.0000
  N   N5        1.0  0.18532  0.37936  0.51097  1.0000
  H   H86       1.0  0.04086  0.29959  0.40469  1.0000
  C   C74       1.0  0.14676  0.35450  0.52952  1.0000
  H   H87       1.0  0.21371  0.35743  0.48133  1.0000
  H   H88       1.0  0.23718  0.43890  0.53386  1.0000
  H   H89       1.0  0.26599  0.43045  0.50813  1.0000
  C   C75       1.0  0.14872  0.31833  0.54472  1.0000
  H   H90       1.0  0.17821  0.30848  0.54313  1.0000
  C   C76       1.0  0.17639  0.41412  0.49582  1.0000
  H   H91       1.0  0.04378  0.28388  0.57788  1.0000
  C   C77       1.0  0.11214  0.29343  0.56202  1.0000
  H   H92       1.0  0.11361  0.26497  0.57303  1.0000
  H   H93       1.0  0.10153  0.39162  0.52245  1.0000
  H   H94       1.0  0.03908  0.34738  0.55266  1.0000
  C   C78       1.0  0.23622  0.40982  0.52163  1.0000
  C   C79       1.0  0.07053  0.34027  0.55066  1.0000
  H   H95       1.0  0.14787  0.31585  0.48757  1.0000
  C   C80       1.0  0.26065  0.22259  0.35833  1.0000
  H   H96       1.0  0.98063  0.20070  0.44294  1.0000
  H   H97       1.0  0.17922  0.18531  0.35893  1.0000
  C   C81       1.0  0.41942  0.43708  0.45549  1.0000
  H   H98       1.0  0.39719  0.41034  0.49047  1.0000
  C   C82       1.0  0.02964  0.18851  0.35658  1.0000
  H   H99       1.0  0.99465  0.12757  0.44787  1.0000
  H   H100      1.0  0.99984  0.19361  0.36542  1.0000
  C   C83       1.0  0.42712  0.43825  0.47946  1.0000
  H   H101      1.0  0.06142  0.22758  0.35263  1.0000
  C   C84       1.0  0.96636  0.26703  0.38913  1.0000
  C   C85       1.0  0.97099  0.46456  0.66392  1.0000
  H   H102      1.0  0.45026  0.47339  0.42268  1.0000
  C   C86       1.0  0.45712  0.47356  0.44125  1.0000
  H   H103      1.0  0.97094  0.40105  0.68131  1.0000
  C   C87       1.0  0.21195  0.18787  0.35024  1.0000
  H   H104      1.0  0.96558  0.10836  0.37793  1.0000
  Fe  Fe13      1.0  0.30322  0.11331  0.96963  1.0000
  S   S26       1.0  0.38031  0.12129  0.97298  1.0000
  S   S27       1.0  0.23947  0.05389  0.94701  1.0000
  H   H105      1.0  0.07594  0.06376  0.97691  1.0000
  C   C88       1.0  0.45144  0.33773  0.00843  1.0000
  C   C89       1.0  0.40119  0.00739  0.82079  1.0000
  Fe  Fe14      1.0  0.41061  0.20672  0.97526  1.0000
  S   S28       1.0  0.28712  0.10772  0.00827  1.0000
  C   C90       1.0  0.30733  0.02530  0.89201  1.0000
  H   H106      1.0  0.17340  0.05801  0.98831  1.0000
  S   S29       1.0  0.33346  0.19809  0.96920  1.0000
  C   C91       1.0  0.26750  0.98070  0.88210  1.0000
  C   C92       1.0  0.11357  0.09427  0.97069  1.0000
  H   H107      1.0  0.40159  0.98025  0.77551  1.0000
  H   H108      1.0  0.19936  0.18336  0.96957  1.0000
  H   H109      1.0  0.19567  0.21920  0.00400  1.0000
  H   H110      1.0  0.23111  0.16968  0.99281  1.0000
  S   S30       1.0  0.40320  0.20581  0.01430  1.0000
  C   C93       1.0  0.25121  0.02642  0.92201  1.0000
  C   C94       1.0  0.29934  0.04799  0.91185  1.0000
  H   H111      1.0  0.12597  0.07689  0.95685  1.0000
  H   H112      1.0  0.41401  0.42516  0.99939  1.0000
  H   H113      1.0  0.36118  0.99907  0.82216  1.0000
  H   H114      1.0  0.33036  0.08250  0.91911  1.0000
  H   H115      1.0  0.39156  0.36464  0.96569  1.0000
  C   C95       1.0  0.16067  0.19276  0.01258  1.0000
  H   H116      1.0  0.10788  0.12439  0.96236  1.0000
  C   C96       1.0  0.13385  0.13956  0.00750  1.0000
  C   C97       1.0  0.40238  0.34116  0.97665  1.0000
  N   N6        1.0  0.15123  0.11586  0.98983  1.0000
  H   H117      1.0  0.36700  0.31133  0.98516  1.0000
  H   H118      1.0  0.21363  0.13309  0.96646  1.0000
  C   C98       1.0  0.15652  0.07404  0.00065  1.0000
  C   C99       1.0  0.20097  0.15225  0.97927  1.0000
  Fe  Fe15      1.0  0.32478  0.19335  0.00823  1.0000
  Fe  Fe16      1.0  0.36571  0.12005  0.01155  1.0000
  H   H119      1.0  0.41717  0.01785  0.83871  1.0000
  H   H120      1.0  0.11960  0.04133  0.00618  1.0000
  H   H121      1.0  0.41558  0.32044  0.96508  1.0000
  H   H122      1.0  0.34462  0.04272  0.88420  1.0000
  H   H123      1.0  0.42103  0.04119  0.80914  1.0000
  C   C100      1.0  0.21137  0.98167  0.91218  1.0000
  C   C101      1.0  0.42015  0.39698  0.00931  1.0000
  N   N7        1.0  0.44171  0.37284  0.99410  1.0000
  H   H124      1.0  0.28026  0.98089  0.98772  1.0000
  H   H125      1.0  0.34316  0.98500  0.96282  1.0000
  C   C102      1.0  0.18090  0.92873  0.17170  1.0000
  Fe  Fe17      1.0  0.07809  0.71896  0.07305  1.0000
  S   S31       1.0  0.14196  0.70296  0.06697  1.0000
  H   H126      1.0  0.03944  0.58166  0.12144  1.0000
  Fe  Fe18      1.0  0.13942  0.79890  0.11153  1.0000
  S   S32       1.0  0.20607  0.78674  0.10806  1.0000
  S   S33       1.0  0.13802  0.85608  0.13718  1.0000
  Fe  Fe19      1.0  0.19206  0.78848  0.06955  1.0000
  S   S34       1.0  0.25469  0.83187  0.04343  1.0000
  Fe  Fe20      1.0  0.14922  0.70225  0.10594  1.0000
  S   S35       1.0  0.14584  0.64017  0.13031  1.0000
  S   S36       1.0  0.12798  0.80461  0.07291  1.0000
  S   S37       1.0  0.08298  0.71467  0.11207  1.0000
  C   C103      1.0  0.28795  0.89933  0.04381  1.0000
  C   C104      1.0  0.97288  0.67599  0.03169  1.0000
  H   H127      1.0  0.05708  0.54252  0.06188  1.0000
  C   C105      1.0  0.16836  0.81130  0.20714  1.0000
  C   C106      1.0  0.26480  0.91600  0.17799  1.0000
  C   C107      1.0  0.22826  0.88713  0.16096  1.0000
  C   C108      1.0  0.18570  0.89277  0.15795  1.0000
  C   C109      1.0  0.18414  0.84971  0.22398  1.0000
  H   H128      1.0  0.18918  0.69035  0.20877  1.0000
  H   H129      1.0  0.29698  0.91044  0.18056  1.0000
  H   H130      1.0  0.23294  0.86052  0.15017  1.0000
  C   C110      1.0  0.99223  0.72481  0.02206  1.0000
  C   C111      1.0  0.17583  0.50470  0.12274  1.0000
  C   C112      1.0  0.15238  0.51018  0.14264  1.0000
  C   C113      1.0  0.14346  0.55173  0.14457  1.0000
  C   C114      1.0  0.15753  0.58821  0.12662  1.0000
  C   C115      1.0  0.18061  0.58256  0.10663  1.0000
  C   C116      1.0  0.18977  0.54116  0.10477  1.0000
  H   H131      1.0  0.22200  0.90835  0.04220  1.0000
  H   H132      1.0  0.12544  0.55545  0.16010  1.0000
  H   H133      1.0  0.19207  0.61036  0.09274  1.0000
  H   H134      1.0  0.20797  0.53737  0.08931  1.0000
  C   C117      1.0  0.13828  0.73815  0.17052  1.0000
  H   H135      1.0  0.02592  0.75656  0.02943  1.0000
  H   H136      1.0  0.10244  0.72734  0.18001  1.0000
  N   N8        1.0  0.17868  0.74222  0.18645  1.0000
  C   C118      1.0  0.26300  0.92779  0.04197  1.0000
  H   H137      1.0  0.15033  0.77455  0.16097  1.0000
  C   C119      1.0  0.21807  0.95849  0.18841  1.0000
  H   H138      1.0  0.21322  0.72625  0.15709  1.0000
  N   N9        1.0  0.00885  0.53409  0.09115  1.0000
  C   C120      1.0  0.23356  0.79311  0.22015  1.0000
  H   H139      1.0  0.13758  0.80637  0.19600  1.0000
  H   H140      1.0  0.16578  0.87257  0.22522  1.0000
  H   H141      1.0  0.25310  0.75009  0.18186  1.0000
  H   H142      1.0  0.14804  0.66067  0.18453  1.0000
  C   C121      1.0  0.24932  0.83198  0.23676  1.0000
  H   H143      1.0  0.14807  0.93337  0.16951  1.0000
  S   S38       1.0  0.00342  0.66330  0.05515  1.0000
  H   H144      1.0  0.12848  0.70814  0.15710  1.0000
  C   C122      1.0  0.19317  0.78216  0.20452  1.0000
  H   H145      1.0  0.97164  0.54990  0.11955  1.0000
  H   H146      1.0  0.08956  0.58243  0.08679  1.0000
  H   H147      1.0  0.28108  0.84064  0.24814  1.0000
  H   H148      1.0  0.36049  0.90310  0.04416  1.0000
  C   C123      1.0  0.00702  0.56850  0.10910  1.0000
  H   H149      1.0  0.00879  0.60304  0.10109  1.0000
  H   H150      1.0  0.12652  0.68209  0.20905  1.0000
  H   H151      1.0  0.25370  0.77207  0.21947  1.0000
  H   H152      1.0  0.24124  0.79253  0.16452  1.0000
  C   C124      1.0  0.15983  0.69173  0.19774  1.0000
  C   C125      1.0  0.22487  0.86045  0.23855  1.0000
  C   C126      1.0  0.22349  0.75337  0.17194  1.0000
  H   H153      1.0  0.05208  0.59775  0.06801  1.0000
  H   H154      1.0  0.23805  0.89156  0.25098  1.0000
  C   C127      1.0  0.25992  0.95175  0.19185  1.0000
  C   C128      1.0  0.05397  0.56534  0.07633  1.0000
  C   C129      1.0  0.34093  0.92475  0.04308  1.0000
  H   H155      1.0  0.14115  0.48240  0.15656  1.0000
  H   H156      1.0  0.27903  0.94882  0.11756  1.0000
  H   H157      1.0  0.08111  0.50111  0.08788  1.0000
  C   C130      1.0  0.00949  0.49029  0.10255  1.0000
  H   H158      1.0  0.36697  0.97602  0.13045  1.0000
  C   C131      1.0  0.36896  0.97802  0.04092  1.0000
  H   H159      1.0  0.36063  0.51471  0.49283  1.0000
  C   C132      1.0  0.35384  0.50078  0.45579  1.0000
  C   C133      1.0  0.42508  0.56507  0.43310  1.0000
  H   H160      1.0  0.02933  0.56928  0.66711  1.0000
  H   H161      1.0  0.44289  0.57900  0.41632  1.0000
  C   C134      1.0  0.42599  0.57398  0.47491  1.0000
  C   C135      1.0  0.37845  0.52849  0.47606  1.0000
  C   C136      1.0  0.37754  0.51955  0.43425  1.0000
  C   C137      1.0  0.01986  0.57421  0.64894  1.0000
  H   H162      1.0  0.04786  0.57232  0.63711  1.0000
  H   H163      1.0  0.44385  0.59481  0.49067  1.0000
  H   H164      1.0  0.32443  0.92433  0.66461  1.0000
  H   H165      1.0  0.98226  0.54957  0.60558  1.0000
  H   H166      1.0  0.02552  0.61365  0.64808  1.0000
  H   H167      1.0  0.35934  0.49904  0.41846  1.0000
  C   C138      1.0  0.44986  0.59264  0.45338  1.0000
  H   H168      1.0  0.23914  0.87636  0.68000  1.0000
  H   H169      1.0  0.39498  0.91791  0.68260  1.0000
  C   C139      1.0  0.31719  0.89970  0.67961  1.0000
  H   H170      1.0  0.98189  0.48688  0.67974  1.0000
  N   N10       1.0  0.96730  0.53541  0.64245  1.0000
  Fe  Fe21      1.0  0.14828  0.81505  0.80036  1.0000
  S   S39       1.0  0.15881  0.74743  0.80570  1.0000
  S   S40       1.0  0.09128  0.81518  0.77436  1.0000
  Fe  Fe22      1.0  0.22724  0.87848  0.83889  1.0000
  S   S41       1.0  0.24251  0.81426  0.84641  1.0000
  H   H171      1.0  0.02337  0.57817  0.92696  1.0000
  Fe  Fe23      1.0  0.24304  0.80421  0.80754  1.0000
  S   S42       1.0  0.30167  0.80185  0.78305  1.0000
  Fe  Fe24      1.0  0.15753  0.76467  0.84382  1.0000
  S   S43       1.0  0.11133  0.70927  0.87223  1.0000
  S   S44       1.0  0.23213  0.87138  0.79999  1.0000
  S   S45       1.0  0.14237  0.82933  0.83855  1.0000
  C   C140      1.0  0.45012  0.79637  0.79350  1.0000
  H   H172      1.0  0.15112  0.72988  0.72518  1.0000
  H   H173      1.0  0.97377  0.75022  0.70783  1.0000
  H   H174      1.0  0.11680  0.76822  0.91577  1.0000
  C   C141      1.0  0.96791  0.73260  0.00280  1.0000
  C   C142      1.0  0.04511  0.67716  0.86837  1.0000
  C   C143      1.0  0.02121  0.63004  0.85695  1.0000
  C   C144      1.0  0.01552  0.69360  0.88029  1.0000
  H   H175      1.0  0.04378  0.61659  0.84810  1.0000
  H   H176      1.0  0.03379  0.72987  0.88932  1.0000
  H   H177      1.0  0.17398  0.96457  0.91986  1.0000
  C   C145      1.0  0.43451  0.80221  0.77130  1.0000
  C   C146      1.0  0.38857  0.80274  0.76846  1.0000
  C   C147      1.0  0.35767  0.79779  0.78772  1.0000
  C   C148      1.0  0.37321  0.79185  0.80991  1.0000
  C   C149      1.0  0.41909  0.79122  0.81274  1.0000
  H   H178      1.0  0.25755  0.86908  0.99564  1.0000
  H   H179      1.0  0.37704  0.80712  0.75119  1.0000
  H   H180      1.0  0.34993  0.78768  0.82492  1.0000
  H   H181      1.0  0.17067  0.72447  0.99991  1.0000
  C   C150      1.0  0.02384  0.77683  0.73778  1.0000
  C   C151      1.0  0.05686  0.76933  0.75230  1.0000
  C   C152      1.0  0.06289  0.72690  0.74838  1.0000
  H   H182      1.0  0.01873  0.80941  0.74065  1.0000
  H   H183      1.0  0.08751  0.72006  0.75959  1.0000
  H   H184      1.0  0.16303  0.80097  0.68732  1.0000
  H   H185      1.0  0.29418  0.81289  0.73324  1.0000
  C   C153      1.0  0.16653  0.81418  0.70569  1.0000
  C   C154      1.0  0.37918  0.94983  0.78849  1.0000
  C   C155      1.0  0.13713  0.70456  0.98905  1.0000
  C   C156      1.0  0.18231  0.83991  0.96265  1.0000
  C   C157      1.0  0.09770  0.66420  0.95239  1.0000
  H   H186      1.0  0.01723  0.71528  0.79644  1.0000
  S   S46       1.0  0.28001  0.95421  0.85694  1.0000
  C   C158      1.0  0.23111  0.87307  0.92715  1.0000
  C   C159      1.0  0.19076  0.75393  0.71886  1.0000
  H   H187      1.0  0.17709  0.84043  0.98128  1.0000
  H   H188      1.0  0.17404  0.85424  0.70592  1.0000
  C   C160      1.0  0.00969  0.60576  0.92412  1.0000
  C   C161      1.0  0.14267  0.80138  0.94978  1.0000
  H   H189      1.0  0.26372  0.89980  0.91716  1.0000
  C   C162      1.0  0.98400  0.66183  0.94121  1.0000
  H   H190      1.0  0.39356  0.92639  0.84513  1.0000
  H   H191      1.0  0.23132  0.96202  0.96615  1.0000
  C   C163      1.0  0.96765  0.76522  0.80991  1.0000
  H   H192      1.0  0.10360  0.65453  0.93499  1.0000
  C   C164      1.0  0.14095  0.68991  0.96643  1.0000
  H   H193      1.0  0.04413  0.66210  0.72615  1.0000
  C   C165      1.0  0.20699  0.82603  0.74283  1.0000
  H   H194      1.0  0.45777  0.80614  0.75631  1.0000
  C   C166      1.0  0.03808  0.69394  0.72944  1.0000
  H   H195      1.0  0.33583  0.91310  0.83078  1.0000
  H   H196      1.0  0.98316  0.77052  0.99552  1.0000
  C   C167      1.0  0.29912  0.83659  0.71821  1.0000
  H   H197      1.0  0.43058  0.78655  0.83000  1.0000
  H   H198      1.0  0.21887  0.86735  0.74351  1.0000
  C   C168      1.0  0.00578  0.70202  0.71462  1.0000
  H   H199      1.0  0.16902  0.80472  0.75113  1.0000
  C   C169      1.0  0.09008  0.69392  0.99767  1.0000
  H   H200      1.0  0.23320  0.81994  0.75415  1.0000
  C   C170      1.0  0.34801  0.86475  0.70900  1.0000
  H   H201      1.0  0.36973  0.88279  0.82098  1.0000
  H   H202      1.0  0.33137  0.93537  0.94254  1.0000
  N   N11       1.0  0.26895  0.91773  0.96582  1.0000
  N   N12       1.0  0.20620  0.80897  0.71855  1.0000
  C   C171      1.0  0.04896  0.65212  0.96083  1.0000
  H   H203      1.0  0.18836  0.92461  0.88496  1.0000
  C   C172      1.0  0.25753  0.83902  0.70831  1.0000
  H   H204      1.0  0.97548  0.55559  0.96581  1.0000
  H   H205      1.0  0.03714  0.63703  0.91266  1.0000
  H   H206      1.0  0.01257  0.69516  0.93106  1.0000
  H   H207      1.0  0.21477  0.74561  0.73070  1.0000
  C   C173      1.0  0.99815  0.74322  0.71916  1.0000
  N   N13       1.0  0.00224  0.62567  0.94656  1.0000
  H   H208      1.0  0.43424  0.89618  0.79618  1.0000
  C   C174      1.0  0.04680  0.66844  0.98375  1.0000
  C   C175      1.0  0.35703  0.89620  0.68972  1.0000
  C   C176      1.0  0.19138  0.83404  0.91450  1.0000
  C   C177      1.0  0.28750  0.89422  0.98309  1.0000
  H   H209      1.0  0.10817  0.77374  0.95849  1.0000
  H   H210      1.0  0.12838  0.79083  0.71369  1.0000
  H   H211      1.0  0.19460  0.83168  0.89574  1.0000
  C   C178      1.0  0.99163  0.70085  0.81184  1.0000
  H   H212      1.0  0.97594  0.67716  0.95722  1.0000
  C   C179      1.0  0.22774  0.87716  0.95174  1.0000
  N   N14       1.0  0.40408  0.96281  0.81170  1.0000
  H   H213      1.0  0.34045  0.94498  0.78921  1.0000
  H   H214      1.0  0.37441  0.91328  0.78157  1.0000
  C   C180      1.0  0.24946  0.94733  0.97844  1.0000
  H   H215      1.0  0.30130  0.87051  0.97439  1.0000
  H   H216      1.0  0.01142  0.66191  0.99102  1.0000
  C   C181      1.0  0.14733  0.79829  0.92576  1.0000
  H   H217      1.0  0.31922  0.92366  0.99375  1.0000
  C   C182      1.0  0.31324  0.95452  0.95177  1.0000
  H   H218      1.0  0.22096  0.92425  0.99193  1.0000
  H   H219      1.0  0.17774  0.69875  0.95968  1.0000
  H   H220      1.0  0.97380  0.58558  0.91389  1.0000
  C   C183      1.0  0.21944  0.95883  0.89238  1.0000
  C   C184      1.0  0.37473  0.91943  0.82781  1.0000
  S   S47       1.0  0.98017  0.66302  0.68942  1.0000
  C   C185      1.0  0.26808  0.87169  0.68868  1.0000
  H   H221      1.0  0.30207  0.97435  0.93873  1.0000
  H   H222      1.0  0.37907  0.86206  0.71687  1.0000
  C   C186      1.0  0.45656  0.97206  0.80952  1.0000
  H   H223      1.0  0.01471  0.72091  0.82748  1.0000
  H   H224      1.0  0.98003  0.65997  0.81420  1.0000
  H   H225      1.0  0.98946  0.78235  0.82622  1.0000
  H   H226      1.0  0.99422  0.78525  0.79522  1.0000
  H   H227      1.0  0.19304  0.74036  0.70111  1.0000
  C   C187      1.0  0.96833  0.59879  0.85806  1.0000
  C   C188      1.0  0.46532  0.93301  0.80100  1.0000
  H   H228      1.0  0.08694  0.70550  0.01523  1.0000
  Fe  Fe25      1.0  0.83581  0.12088  0.29604  1.0000
  S   S48       1.0  0.82711  0.18985  0.30126  1.0000
  S   S49       1.0  0.89775  0.12073  0.27353  1.0000
  Fe  Fe26      1.0  0.75615  0.05846  0.33450  1.0000
  H   H229      1.0  0.70521  0.25755  0.27658  1.0000
  Fe  Fe27      1.0  0.74242  0.13381  0.30295  1.0000
  S   S50       1.0  0.68224  0.13875  0.28036  1.0000
  Fe  Fe28      1.0  0.82817  0.17301  0.33944  1.0000
  H   H230      1.0  0.53846  0.31233  0.29222  1.0000
  S   S51       1.0  0.75148  0.06534  0.29549  1.0000
  S   S52       1.0  0.84096  0.10681  0.33431  1.0000
  H   H231      1.0  0.58735  0.36289  0.25719  1.0000
  H   H232      1.0  0.57681  0.33143  0.22950  1.0000
  H   H233      1.0  0.92424  0.25160  0.21472  1.0000
  C   C189      1.0  0.62362  0.13787  0.28474  1.0000
  C   C190      1.0  0.59379  0.13384  0.26517  1.0000
  C   C191      1.0  0.54749  0.13374  0.26757  1.0000
  C   C192      1.0  0.53032  0.13767  0.28969  1.0000
  C   C193      1.0  0.56029  0.14208  0.30924  1.0000
  C   C194      1.0  0.60665  0.14235  0.30682  1.0000
  H   H234      1.0  0.60667  0.13085  0.24798  1.0000
  H   H235      1.0  0.52508  0.13041  0.25235  1.0000
  H   H236      1.0  0.54767  0.14562  0.32640  1.0000
  H   H237      1.0  0.62963  0.14712  0.32201  1.0000
  C   C195      1.0  0.51450  0.28049  0.28016  1.0000
  H   H238      1.0  0.49646  0.20094  0.25241  1.0000
  C   C196      1.0  0.91329  0.19605  0.24117  1.0000
  C   C197      1.0  0.93016  0.16416  0.25031  1.0000
  H   H239      1.0  0.52642  0.33567  0.24305  1.0000
  S   S53       1.0  0.74333  0.12436  0.34178  1.0000
  C   C198      1.0  0.55924  0.32986  0.24668  1.0000
  H   H240      1.0  0.88016  0.19526  0.24850  1.0000
  H   H241      1.0  0.49918  0.24366  0.28981  1.0000
  C   C199      1.0  0.64417  0.26451  0.29165  1.0000
  H   H242      1.0  0.47916  0.35752  0.02264  1.0000
  H   H243      1.0  0.47266  0.23995  0.24014  1.0000
  H   H244      1.0  0.94282  0.26499  0.33107  1.0000
  C   C200      1.0  0.50778  0.23830  0.24393  1.0000
  C   C201      1.0  0.94185  0.07144  0.32071  1.0000
  N   N15       1.0  0.54319  0.28101  0.25909  1.0000
  C   C202      1.0  0.60178  0.26994  0.28742  1.0000
  C   C203      1.0  0.58805  0.27566  0.26436  1.0000
  H   H245      1.0  0.95273  0.08347  0.30285  1.0000
  H   H246      1.0  0.57967  0.26802  0.30249  1.0000
  H   H247      1.0  0.63331  0.07050  0.32165  1.0000
  C   C204      1.0  0.61925  0.27535  0.24600  1.0000
  H   H248      1.0  0.68374  0.26777  0.23616  1.0000
  C   C205      1.0  0.66118  0.26927  0.25044  1.0000
  C   C206      1.0  0.67358  0.26382  0.27322  1.0000
  H   H249      1.0  0.48109  0.28464  0.27561  1.0000
  H   H250      1.0  0.61093  0.27891  0.22802  1.0000
  H   H251      1.0  0.64480  0.97999  0.31014  1.0000
  H   H252      1.0  0.65326  0.25886  0.30930  1.0000
  H   H253      1.0  0.52451  0.23826  0.22674  1.0000
  C   C207      1.0  0.54098  0.99735  0.30591  1.0000
  C   C208      1.0  0.46656  0.00878  0.30905  1.0000
  C   C209      1.0  0.49930  0.00692  0.27106  1.0000
  H   H254      1.0  0.50487  0.00066  0.33828  1.0000
  C   C210      1.0  0.61250  0.03537  0.33238  1.0000
  C   C211      1.0  0.50421  0.00168  0.31947  1.0000
  N   N16       1.0  0.58087  0.99056  0.31744  1.0000
  H   H255      1.0  0.63655  0.02016  0.28986  1.0000
  C   C212      1.0  0.90179  0.02189  0.32434  1.0000
  C   C213      1.0  0.88582  0.00395  0.34687  1.0000
  H   H256      1.0  0.59003  0.04255  0.34552  1.0000
  C   C214      1.0  0.93837  0.22796  0.22196  1.0000
  H   H257      1.0  0.56454  0.99919  0.26950  1.0000
  H   H258      1.0  0.49803  0.01042  0.25229  1.0000
  C   C215      1.0  0.53753  0.00045  0.28128  1.0000
  H   H259      1.0  0.93834  0.46401  0.12138  1.0000
  C   C216      1.0  0.61546  0.98525  0.30084  1.0000
  S   S54       1.0  0.47235  0.13797  0.29404  1.0000
  H   H260      1.0  0.93899  0.39209  0.14073  1.0000
  H   H261      1.0  0.95748  0.18255  0.32520  1.0000
  H   H262      1.0  0.52889  0.44216  0.01676  1.0000
  H   H263      1.0  0.88291  0.99744  0.30950  1.0000
  H   H264      1.0  0.64130  0.03039  0.34219  1.0000
  C   C217      1.0  0.96404  0.27214  0.34713  1.0000
  Fe  Fe29      1.0  0.88645  0.19345  0.57451  1.0000
  S   S55       1.0  0.82176  0.20998  0.57256  1.0000
  Fe  Fe30      1.0  0.83803  0.12374  0.61799  1.0000
  S   S56       1.0  0.77148  0.13631  0.61812  1.0000
  S   S57       1.0  0.83805  0.06162  0.64073  1.0000
  Fe  Fe31      1.0  0.77176  0.12596  0.57940  1.0000
  S   S58       1.0  0.69999  0.07745  0.55883  1.0000
  Fe  Fe32      1.0  0.82826  0.21956  0.61150  1.0000
  S   S59       1.0  0.82754  0.28064  0.63522  1.0000
  S   S60       1.0  0.83510  0.10883  0.57937  1.0000
  S   S61       1.0  0.89602  0.20758  0.61347  1.0000
  H   H265      1.0  0.76822  0.01361  0.42229  1.0000
  C   C218      1.0  0.86579  0.08741  0.52512  1.0000
  H   H266      1.0  0.84007  0.05672  0.53735  1.0000
  C   C219      1.0  0.79807  0.03380  0.66538  1.0000
  H   H267      1.0  0.73202  0.04412  0.42136  1.0000
  H   H268      1.0  0.82986  0.17418  0.41220  1.0000
  C   C220      1.0  0.82036  0.33543  0.63107  1.0000
  C   C221      1.0  0.81518  0.35214  0.60900  1.0000
  C   C222      1.0  0.81169  0.39695  0.60668  1.0000
  C   C223      1.0  0.81334  0.42579  0.62631  1.0000
  C   C224      1.0  0.81805  0.40877  0.64840  1.0000
  C   C225      1.0  0.82173  0.36411  0.65071  1.0000
  H   H269      1.0  0.81403  0.33067  0.59371  1.0000
  H   H270      1.0  0.80765  0.40934  0.58951  1.0000
  H   H271      1.0  0.93670  0.46118  0.60675  1.0000
  H   H272      1.0  0.82567  0.35161  0.66787  1.0000
  H   H273      1.0  0.84371  0.02492  0.42500  1.0000
  C   C226      1.0  0.67928  0.01417  0.54973  1.0000
  H   H274      1.0  0.79112  0.13497  0.50711  1.0000
  H   H275      1.0  0.85598  0.03082  0.48363  1.0000
  C   C227      1.0  0.81327  0.08954  0.39205  1.0000
  H   H276      1.0  0.81959  0.05749  0.38741  1.0000
  N   N17       1.0  0.81267  0.09599  0.41753  1.0000
  H   H277      1.0  0.89661  0.02160  0.38336  1.0000
  H   H278      1.0  0.84155  0.16069  0.52780  1.0000
  H   H279      1.0  0.84453  0.12442  0.38384  1.0000
  H   H280      1.0  0.92565  0.03992  0.43889  1.0000
  H   H281      1.0  0.80584  0.14837  0.44084  1.0000
  C   C228      1.0  0.62991  0.98571  0.54103  1.0000
  H   H282      1.0  0.77701  0.08189  0.38376  1.0000
  C   C229      1.0  0.66097  0.00383  0.63534  1.0000
  H   H283      1.0  0.76927  0.05101  0.44687  1.0000
  H   H284      1.0  0.78682  0.10046  0.53349  1.0000
  H   H285      1.0  0.89056  0.12199  0.53563  1.0000
  H   H286      1.0  0.81823  0.42955  0.66376  1.0000
  C   C230      1.0  0.71205  0.98282  0.48707  1.0000
  H   H287      1.0  0.89573  0.11907  0.48191  1.0000
  C   C231      1.0  0.86171  0.10471  0.42704  1.0000
  C   C232      1.0  0.90260  0.15451  0.43191  1.0000
  C   C233      1.0  0.90933  0.03582  0.36588  1.0000
  H   H288      1.0  0.89892  0.17126  0.49765  1.0000
  H   H289      1.0  0.78157  0.09461  0.67050  1.0000
  H   H290      1.0  0.89137  0.07518  0.51721  1.0000
  H   H291      1.0  0.94692  0.25646  0.40565  1.0000
  H   H292      1.0  0.66766  0.03708  0.62433  1.0000
  H   H293      1.0  0.76495  0.13036  0.41581  1.0000
  C   C234      1.0  0.95789  0.12112  0.44205  1.0000
  H   H294      1.0  0.74767  0.01272  0.55815  1.0000
  C   C235      1.0  0.94923  0.08573  0.36245  1.0000
  H   H295      1.0  0.92807  0.37725  0.60945  1.0000
  H   H296      1.0  0.89915  0.18816  0.42994  1.0000
  C   C236      1.0  0.93836  0.25629  0.36838  1.0000
  C   C237      1.0  0.74604  0.03024  0.49680  1.0000
  H   H297      1.0  0.94388  0.34594  0.64634  1.0000
  H   H298      1.0  0.85122  0.14053  0.47573  1.0000
  C   C238      1.0  0.94982  0.16234  0.43933  1.0000
  C   C239      1.0  0.79929  0.04937  0.49621  1.0000
  C   C240      1.0  0.87175  0.06367  0.42944  1.0000
  H   H299      1.0  0.72939  0.05036  0.50526  1.0000
  C   C241      1.0  0.80321  0.13909  0.42198  1.0000
  C   C242      1.0  0.81612  0.01886  0.48473  1.0000
  C   C243      1.0  0.76907  0.04935  0.42755  1.0000
  N   N18       1.0  0.83641  0.09788  0.50748  1.0000
  C   C244      1.0  0.81275  0.12446  0.51940  1.0000
  C   C245      1.0  0.87200  0.13351  0.48984  1.0000
  C   C246      1.0  0.91896  0.07188  0.43709  1.0000
  S   S62       1.0  0.70204  0.98799  0.35599  1.0000
  H   H300      1.0  0.60644  0.00321  0.53944  1.0000
  S   S63       1.0  0.87155  0.22449  0.36963  1.0000
  C   C247      1.0  0.95032  0.38463  0.64531  1.0000
  C   C248      1.0  0.70935  0.99105  0.55165  1.0000
  C   C249      1.0  0.77491  0.05789  0.67666  1.0000
  C   C250      1.0  0.94155  0.40248  0.62444  1.0000
  C   C251      1.0  0.94655  0.45105  0.62321  1.0000
  H   H301      1.0  0.72143  0.01606  0.60053  1.0000
  C   C252      1.0  0.78942  0.98635  0.67388  1.0000
  S   S64       1.0  0.94409  0.23528  0.54494  1.0000
  C   C253      1.0  0.47262  0.47587  0.48927  1.0000
  H   H302      1.0  0.69318  0.01923  0.64783  1.0000
  H   H303      1.0  0.62687  0.98547  0.59329  1.0000
  C   C254      1.0  0.70876  0.97982  0.61034  1.0000
  H   H304      1.0  0.62519  0.99140  0.64517  1.0000
  H   H305      1.0  0.47648  0.47565  0.50797  1.0000
  H   H306      1.0  0.73812  0.98748  0.62380  1.0000
  C   C255      1.0  0.96512  0.41561  0.66501  1.0000
  H   H307      1.0  0.62179  0.42218  0.92174  1.0000
  C   C256      1.0  0.63034  0.41212  0.95825  1.0000
  C   C257      1.0  0.60459  0.39850  0.93691  1.0000
  C   C258      1.0  0.55625  0.35425  0.93523  1.0000
  C   C259      1.0  0.53291  0.32286  0.95477  1.0000
  C   C260      1.0  0.55897  0.33613  0.97604  1.0000
  C   C261      1.0  0.60720  0.38046  0.97773  1.0000
  H   H308      1.0  0.72629  0.05411  0.70491  1.0000
  H   H309      1.0  0.53675  0.34433  0.91864  1.0000
  H   H310      1.0  0.54236  0.31203  0.99113  1.0000
  H   H311      1.0  0.62686  0.39031  0.99428  1.0000
  C   C262      1.0  0.54282  0.45854  0.94982  1.0000
  C   C263      1.0  0.74366  0.03487  0.69623  1.0000
  C   C264      1.0  0.49696  0.42028  0.95907  1.0000
  C   C265      1.0  0.54906  0.02684  0.81254  1.0000
  C   C266      1.0  0.50009  0.01942  0.81536  1.0000
  C   C267      1.0  0.48975  0.41274  0.98357  1.0000
  S   S65       1.0  0.69087  0.46826  0.96178  1.0000
  C   C268      1.0  0.53126  0.44571  0.99801  1.0000
  H   H312      1.0  0.58182  0.06334  0.81690  1.0000
  S   S66       1.0  0.47125  0.26804  0.95148  1.0000
  H   H313      1.0  0.46654  0.31791  0.99746  1.0000
  C   C269      1.0  0.55614  0.98761  0.80401  1.0000
  H   H314      1.0  0.59411  0.99356  0.80169  1.0000
  H   H315      1.0  0.54818  0.46273  0.93109  1.0000
  C   C270      1.0  0.73494  0.98744  0.70475  1.0000
  H   H316      1.0  0.46840  0.39632  0.94660  1.0000
  H   H317      1.0  0.49745  0.05142  0.82205  1.0000
  H   H318      1.0  0.91360  0.59730  0.02906  1.0000
  H   H319      1.0  0.58648  0.93669  0.34036  1.0000
  H   H320      1.0  0.53127  0.90977  0.32190  1.0000
  H   H321      1.0  0.96240  0.54734  0.06679  1.0000
  C   C271      1.0  0.92901  0.63522  0.02178  1.0000
  C   C272      1.0  0.55731  0.94409  0.33228  1.0000
  C   C273      1.0  0.96336  0.51529  0.07608  1.0000
  H   H322      1.0  0.59453  0.95154  0.28928  1.0000
  H   H323      1.0  0.53531  0.94728  0.34698  1.0000
  H   H324      1.0  0.92751  0.49515  0.08618  1.0000
  H   H325      1.0  0.96261  0.48825  0.06269  1.0000
  Fe  Fe33      1.0  0.66663  0.73075  0.50343  1.0000
  S   S67       1.0  0.58814  0.71617  0.51137  1.0000
  S   S68       1.0  0.68679  0.67697  0.52308  1.0000
  Fe  Fe34      1.0  0.68022  0.80806  0.46408  1.0000
  S   S69       1.0  0.60246  0.79742  0.46994  1.0000
  S   S70       1.0  0.73733  0.86275  0.43706  1.0000
  Fe  Fe35      1.0  0.62295  0.80145  0.50803  1.0000
  S   S71       1.0  0.60748  0.84290  0.53694  1.0000
  Fe  Fe36      1.0  0.57502  0.71252  0.47266  1.0000
  H   H326      1.0  0.59114  0.50468  0.48892  1.0000
  S   S72       1.0  0.70203  0.81636  0.50230  1.0000
  S   S73       1.0  0.65244  0.72348  0.46461  1.0000
  Fe  Fe37      1.0  0.83985  0.66020  0.63387  1.0000
  S   S74       1.0  0.77036  0.58588  0.64276  1.0000
  S   S75       1.0  0.83976  0.71823  0.60808  1.0000
  H   H327      1.0  0.67916  0.69059  0.60255  1.0000
  Fe  Fe38      1.0  0.90548  0.64404  0.67125  1.0000
  Fe  Fe39      1.0  0.82283  0.55245  0.64368  1.0000
  H   H328      1.0  0.62052  0.56001  0.50752  1.0000
  H   H329      1.0  0.80341  0.83480  0.64026  1.0000
  S   S76       1.0  0.89138  0.62646  0.63276  1.0000
  S   S77       1.0  0.86123  0.68538  0.67129  1.0000
  H   H330      1.0  0.74263  0.69553  0.62617  1.0000
  H   H331      1.0  0.65862  0.94931  0.66987  1.0000
  H   H332      1.0  0.64702  0.70907  0.56747  1.0000
  N   N19       1.0  0.55914  0.55397  0.48620  1.0000
  H   H333      1.0  0.81053  0.78518  0.65343  1.0000
  S   S78       1.0  0.83948  0.56845  0.68195  1.0000
  C   C274      1.0  0.67380  0.92482  0.39444  1.0000
  C   C275      1.0  0.68051  0.89668  0.41240  1.0000
  C   C276      1.0  0.72665  0.89736  0.41472  1.0000
  C   C277      1.0  0.76609  0.92704  0.39900  1.0000
  H   H334      1.0  0.64972  0.87391  0.42425  1.0000
  C   C278      1.0  0.79220  0.79387  0.63866  1.0000
  C   C279      1.0  0.63863  0.91014  0.53805  1.0000
  C   C280      1.0  0.60951  0.93394  0.53556  1.0000
  H   H335      1.0  0.63766  0.92331  0.39267  1.0000
  C   C281      1.0  0.68900  0.93901  0.54580  1.0000
  H   H336      1.0  0.57031  0.91176  0.53012  1.0000
  C   C282      1.0  0.54700  0.58515  0.50202  1.0000
  H   H337      1.0  0.71148  0.92064  0.54818  1.0000
  C   C283      1.0  0.72903  0.68975  0.54701  1.0000
  C   C284      1.0  0.76544  0.73940  0.55350  1.0000
  C   C285      1.0  0.79903  0.74738  0.57214  1.0000
  C   C286      1.0  0.79648  0.70599  0.58466  1.0000
  C   C287      1.0  0.75944  0.65642  0.57845  1.0000
  C   C288      1.0  0.72626  0.64842  0.55965  1.0000
  H   H338      1.0  0.76820  0.77162  0.54397  1.0000
  H   H339      1.0  0.82744  0.78591  0.57674  1.0000
  H   H340      1.0  0.75692  0.62415  0.58786  1.0000
  H   H341      1.0  0.69843  0.60984  0.55481  1.0000
  H   H342      1.0  0.58165  0.61547  0.51075  1.0000
  C   C289      1.0  0.64531  0.91494  0.63497  1.0000
  N   N20       1.0  0.65842  0.96142  0.62115  1.0000
  C   C290      1.0  0.63240  0.86810  0.62371  1.0000
  C   C291      1.0  0.71315  0.95434  0.37868  1.0000
  C   C292      1.0  0.62120  0.82417  0.63649  1.0000
  C   C293      1.0  0.62040  0.95011  0.60244  1.0000
  H   H343      1.0  0.63118  0.86505  0.60491  1.0000
  C   C294      1.0  0.62342  0.82579  0.66077  1.0000
  H   H344      1.0  0.61095  0.78873  0.62750  1.0000
  Fe  Fe40      1.0  0.79443  0.60924  0.67998  1.0000
  H   H345      1.0  0.58125  0.93105  0.60964  1.0000
  H   H346      1.0  0.80175  0.92743  0.40047  1.0000
  H   H347      1.0  0.66263  0.79598  0.55932  1.0000
  H   H348      1.0  0.80946  0.78952  0.62232  1.0000
  H   H349      1.0  0.61879  0.64171  0.67816  1.0000
  C   C295      1.0  0.78179  0.97161  0.47502  1.0000
  H   H350      1.0  0.52028  0.56220  0.51609  1.0000
  H   H351      1.0  0.60851  0.56849  0.45668  1.0000
  H   H352      1.0  0.63255  0.61850  0.47791  1.0000
  C   C296      1.0  0.59719  0.58926  0.46912  1.0000
  H   H353      1.0  0.72340  0.81146  0.65976  1.0000
  H   H354      1.0  0.70330  0.91632  0.46915  1.0000
  H   H355      1.0  0.67238  0.74651  0.65957  1.0000
  C   C297      1.0  0.67664  0.78835  0.57536  1.0000
  C   C298      1.0  0.75932  0.95515  0.38104  1.0000
  C   C299      1.0  0.51184  0.51382  0.47527  1.0000
  H   H356      1.0  0.58257  0.61086  0.45906  1.0000
  C   C300      1.0  0.58357  0.53043  0.49998  1.0000
  H   H357      1.0  0.52910  0.53986  0.43886  1.0000
  H   H358      1.0  0.68500  0.67857  0.64204  1.0000
  C   C301      1.0  0.71486  0.76847  0.61692  1.0000
  H   H359      1.0  0.89206  0.50994  0.65517  1.0000
  C   C302      1.0  0.70436  0.82766  0.59109  1.0000
  H   H360      1.0  0.91647  0.52369  0.61382  1.0000
  C   C303      1.0  0.71444  0.77102  0.65920  1.0000
  H   H361      1.0  0.71182  0.86589  0.58714  1.0000
  C   C304      1.0  0.72629  0.70641  0.64093  1.0000
  S   S79       1.0  0.51055  0.64942  0.45060  1.0000
  H   H362      1.0  0.61476  0.79177  0.67073  1.0000
  H   H363      1.0  0.70869  0.95143  0.59801  1.0000
  H   H364      1.0  0.93529  0.57639  0.65942  1.0000
  H   H365      1.0  0.96134  0.58889  0.61935  1.0000
  N   N21       1.0  0.73636  0.75968  0.63848  1.0000
  H   H366      1.0  0.52951  0.60432  0.49221  1.0000
  H   H367      1.0  0.74412  0.84971  0.62335  1.0000
  C   C305      1.0  0.64785  0.91534  0.65972  1.0000
  C   C306      1.0  0.72985  0.95349  0.47630  1.0000
  H   H368      1.0  0.79533  0.94823  0.46685  1.0000
  H   H369      1.0  0.62181  0.92540  0.58847  1.0000
  C   C307      1.0  0.72290  0.81798  0.61167  1.0000
  C   C308      1.0  0.68638  0.72920  0.60047  1.0000
  C   C309      1.0  0.66753  0.73927  0.58009  1.0000
  H   H370      1.0  0.74391  0.70132  0.65700  1.0000
  C   C310      1.0  0.96165  0.48376  0.64300  1.0000
  C   C311      1.0  0.63708  0.87139  0.67230  1.0000
  C   C312      1.0  0.93203  0.53811  0.65944  1.0000
  H   H371      1.0  0.56010  0.50791  0.51501  1.0000
  H   H372      1.0  0.93921  0.53102  0.67766  1.0000
  S   S80       1.0  0.80959  0.48259  0.62204  1.0000
  H   H373      1.0  0.80736  0.96752  0.66537  1.0000
  C   C313      1.0  0.95648  0.54982  0.61925  1.0000
  H   H374      1.0  0.67148  0.96803  0.48844  1.0000
  C   C314      1.0  0.50256  0.51170  0.45087  1.0000
  H   H375      1.0  0.72909  0.76385  0.67577  1.0000
  H   H376      1.0  0.67426  0.60291  0.67836  1.0000
  H   H377      1.0  0.78929  0.97652  0.36869  1.0000
  H   H378      1.0  0.85502  0.96526  0.34955  1.0000
  Fe  Fe41      1.0  0.66559  0.88130  0.74552  1.0000
  S   S81       1.0  0.58701  0.81905  0.73606  1.0000
  C   C315      1.0  0.79279  0.54900  0.82234  1.0000
  Fe  Fe42      1.0  0.67761  0.81291  0.78274  1.0000
  S   S82       1.0  0.60019  0.74681  0.77536  1.0000
  S   S83       1.0  0.73321  0.81074  0.80917  1.0000
  Fe  Fe43      1.0  0.62170  0.76810  0.73772  1.0000
  S   S84       1.0  0.61191  0.71365  0.70846  1.0000
  Fe  Fe44      1.0  0.57308  0.80459  0.77462  1.0000
  H   H379      1.0  0.87126  0.61122  0.99498  1.0000
  S   S85       1.0  0.70069  0.83117  0.74499  1.0000
  S   S86       1.0  0.65023  0.86993  0.78415  1.0000
  Fe  Fe45      1.0  0.75338  0.62360  0.90629  1.0000
  S   S87       1.0  0.74200  0.54515  0.89915  1.0000
  S   S88       1.0  0.70007  0.64202  0.88534  1.0000
  Fe  Fe46      1.0  0.83427  0.64392  0.94434  1.0000
  S   S89       1.0  0.82755  0.56728  0.93913  1.0000
  S   S90       1.0  0.89646  0.70350  0.96787  1.0000
  Fe  Fe47      1.0  0.82725  0.58412  0.90099  1.0000
  S   S91       1.0  0.87337  0.57104  0.87369  1.0000
  Fe  Fe48      1.0  0.74259  0.53594  0.93806  1.0000
  S   S92       1.0  0.83851  0.66254  0.90585  1.0000
  S   S93       1.0  0.74951  0.61262  0.94547  1.0000
  C   C316      1.0  0.92420  0.69180  0.99281  1.0000
  H   H380      1.0  0.92760  0.55869  0.94853  1.0000
  H   H381      1.0  0.61918  0.51768  0.95717  1.0000
  H   H382      1.0  0.94799  0.64324  0.93105  1.0000
  H   H383      1.0  0.63375  0.78603  0.82661  1.0000
  C   C317      1.0  0.93897  0.61386  0.87100  1.0000
  H   H384      1.0  0.86255  0.56896  0.75926  1.0000
  H   H385      1.0  0.66429  0.60267  0.82681  1.0000
  C   C318      1.0  0.86682  0.63706  0.74555  1.0000
  C   C319      1.0  0.72375  0.76159  0.82915  1.0000
  C   C320      1.0  0.67585  0.71926  0.83327  1.0000
  C   C321      1.0  0.66955  0.68333  0.85054  1.0000
  C   C322      1.0  0.71119  0.68785  0.86326  1.0000
  C   C323      1.0  0.75947  0.72895  0.85848  1.0000
  C   C324      1.0  0.76553  0.76594  0.84173  1.0000
  H   H386      1.0  0.64342  0.71450  0.82347  1.0000
  H   H387      1.0  0.63203  0.65176  0.85415  1.0000
  H   H388      1.0  0.79182  0.73316  0.86821  1.0000
  H   H389      1.0  0.80278  0.79846  0.83868  1.0000
  H   H390      1.0  0.93656  0.77454  0.80948  1.0000
  C   C325      1.0  0.65266  0.68765  0.70873  1.0000
  H   H391      1.0  0.92347  0.75308  0.77090  1.0000
  C   C326      1.0  0.92056  0.68538  0.78696  1.0000
  H   H392      1.0  0.81510  0.53368  0.82998  1.0000
  H   H393      1.0  0.70003  0.87212  0.83603  1.0000
  C   C327      1.0  0.72151  0.67961  0.72588  1.0000
  H   H394      1.0  0.70586  0.67995  0.78592  1.0000
  H   H395      1.0  0.73290  0.54419  0.77206  1.0000
  C   C328      1.0  0.68995  0.70134  0.72589  1.0000
  H   H396      1.0  0.75157  0.92668  0.69973  1.0000
  N   N22       1.0  0.63335  0.82704  0.85703  1.0000
  C   C329      1.0  0.59635  0.83635  0.86986  1.0000
  C   C330      1.0  0.67267  0.87678  0.84726  1.0000
  C   C331      1.0  0.65412  0.80281  0.87267  1.0000
  C   C332      1.0  0.70697  0.82384  0.87674  1.0000
  C   C333      1.0  0.62105  0.75622  0.88421  1.0000
  C   C334      1.0  0.72508  0.80006  0.89181  1.0000
  C   C335      1.0  0.63965  0.73261  0.89910  1.0000
  C   C336      1.0  0.69154  0.75461  0.90297  1.0000
  H   H397      1.0  0.51983  0.91003  0.79178  1.0000
  H   H398      1.0  0.56243  0.80032  0.87549  1.0000
  H   H399      1.0  0.84659  0.61880  0.72965  1.0000
  H   H400      1.0  0.65576  0.89436  0.83590  1.0000
  H   H401      1.0  0.73530  0.85787  0.86805  1.0000
  H   H402      1.0  0.58056  0.73716  0.88148  1.0000
  S   S94       1.0  0.69421  0.96000  0.72920  1.0000
  H   H403      1.0  0.61396  0.69636  0.90726  1.0000
  H   H404      1.0  0.76554  0.81598  0.89425  1.0000
  H   H405      1.0  0.95037  0.56175  0.84969  1.0000
  N   N23       1.0  0.94775  0.70922  0.80892  1.0000
  C   C337      1.0  0.72863  0.66355  0.79330  1.0000
  H   H406      1.0  0.87702  0.71015  0.73592  1.0000
  C   C338      1.0  0.60697  0.79266  0.83715  1.0000
  S   S95       1.0  0.50813  0.79624  0.79841  1.0000
  H   H407      1.0  0.74998  0.69013  0.73929  1.0000
  H   H408      1.0  0.59006  0.80923  0.82526  1.0000
  C   C339      1.0  0.88396  0.68867  0.74917  1.0000
  C   C340      1.0  0.68169  0.58955  0.76942  1.0000
  H   H409      1.0  0.71392  0.60228  0.75709  1.0000
  H   H410      1.0  0.70591  0.73535  0.91396  1.0000
  H   H411      1.0  0.62925  0.60382  0.80213  1.0000
  N   N24       1.0  0.69985  0.60690  0.79354  1.0000
  C   C341      1.0  0.73241  0.58736  0.80290  1.0000
  C   C342      1.0  0.74532  0.55539  0.78983  1.0000
  C   C343      1.0  0.75202  0.59999  0.82592  1.0000
  C   C344      1.0  0.78168  0.58101  0.83540  1.0000
  H   H412      1.0  0.69417  0.72830  0.73931  1.0000
  C   C345      1.0  0.57721  0.48322  0.98852  1.0000
  H   H413      1.0  0.65806  0.54724  0.76833  1.0000
  H   H414      1.0  0.65800  0.60549  0.76270  1.0000
  H   H415      1.0  0.79553  0.59055  0.85315  1.0000
  H   H416      1.0  0.74392  0.62407  0.83699  1.0000
  H   H417      1.0  0.60915  0.50668  0.99976  1.0000
  C   C346      1.0  0.91062  0.71281  0.76949  1.0000
  C   C347      1.0  0.90185  0.63260  0.78280  1.0000
  H   H418      1.0  0.57547  0.75484  0.84267  1.0000
  H   H419      1.0  0.94009  0.67423  0.89141  1.0000
  H   H420      1.0  0.61400  0.86001  0.88567  1.0000
  C   C348      1.0  0.67942  0.63105  0.69136  1.0000
  H   H421      1.0  0.69406  0.90478  0.86128  1.0000
  C   C349      1.0  0.87583  0.60909  0.76228  1.0000
  S   S96       1.0  0.75043  0.61129  0.71137  1.0000
  C   C350      1.0  0.90495  0.64297  0.00239  1.0000
  C   C351      1.0  0.65441  0.58937  0.80852  1.0000
  H   H422      1.0  0.87807  0.68897  0.82684  1.0000
  C   C352      1.0  0.71605  0.64402  0.70876  1.0000
  C   C353      1.0  0.91270  0.68561  0.82888  1.0000
  H   H423      1.0  0.76371  0.67810  0.78263  1.0000
  H   H424      1.0  0.74015  0.67987  0.81106  1.0000
  H   H425      1.0  0.63186  0.54691  0.80913  1.0000
  C   C354      1.0  0.77481  0.53637  0.79959  1.0000
  H   H426      1.0  0.90005  0.64429  0.83079  1.0000
  H   H427      1.0  0.58161  0.85645  0.85876  1.0000
  C   C355      1.0  0.64780  0.65276  0.69137  1.0000
  H   H428      1.0  0.90719  0.60911  0.79544  1.0000
  H   H429      1.0  0.93089  0.70393  0.84571  1.0000
  H   H430      1.0  0.63979  0.87303  0.69119  1.0000
  C   C356      1.0  0.75786  0.96313  0.69339  1.0000
  C   C357      1.0  0.51431  0.94068  0.79836  1.0000
  H   H431      1.0  0.78347  0.51133  0.78949  1.0000
  H   H432      1.0  0.94789  0.59345  0.97488  1.0000
  C   C358      1.0  0.58293  0.48968  0.96448  1.0000
  C   C359      1.0  0.96183  0.58155  0.95955  1.0000
  C   C360      1.0  0.96252  0.66191  0.88168  1.0000
