data_image0
_chemical_formula_structural       FeCH2SHFeSCSC2SFeS2FeSFeSHSHSCHSFeSFeSH2FeSH2SFeSFeS3HC4H2C6H3SCHC2HCH2CHC6H4C6H3C4H2CH4FeCH5C2HCHCHC4H5C2HNCH4C2H2C2H2SH2SC2HSH2CH3CHC4NH4FeCH3C2HC4HCH2SH2NCHNCH6CHCHCH2C3NCH2FeH4C2HCHC3FeS2CHCFeHCSC2SFeS2FeSFeSCSFeS2HSFeSFeSH2FeS2FeSFeSFeS3NC3SH2C6H4CH2C4SH2C6H4C6H2CFe2H2C3H5CHCH4CH3CHCHC2HC2HCH4CHC2HC2H2CFeCNH2NH2NCHC4FeH3C2H6C4HC2H2CSH3CH3SHCH4C2H4CHC3H2CH2C2H3FeS2HSCFeSFeS2CH2CFeS2FeS2FeSFeS3C7H4CH2C3HC5H3C8H4C6H4CH2CHC5HCH2C3H2CH4CH2SC2HNCH3CNH4C2H2C2H3CH5NH2NCH2CHCH3C3HCH3CSH2CH4CH3CH2CH3CHCH2C2H2CNH2SH2CH2CHSCH2CH2NHCHC2HCH3CH4CHSH2C4H2FeCH2FeSCHS2FeSFeS2H2SHFeS2FeS2FeSFeS3C7H2CHC4H3C6H4C6H4C6H4CFeH3C2H2CHCH3C3HSNHCH2C3HCH3NC3H6CHCHCHC3H3CH2NHC2HC2H3CHSH2NCHCHCHCHSHC2H3CHC2H2NC8H15NC8H12C3HC2HCSHCH3C3H2SC2HCHCHNHC5HC3FeS2HCFeS6FeS2FeS2FeSFeS3H3C6H4C6H4C6H4C6H4C2H2CH3C2H2SCH3NC9H14SFeHCSH2C3HC2H4C3H3NC5HCSCH9SH3CHC3HCSH4NHC2HC3FeCH2C2H2C2H3NC6HFeCSCH5C2NCHCH4C3HCH2C2FeCHC2HCNC3HCHCH4CHCH2C3H6CSCH4CHCH2C3H2NH3C2H3C2HSCH2FeH2FeS2H2FeS6FeS2FeS2FeSFeS3CNC7H4C6H4C6H4C6H4CHCSH2CHC2SCHSHCH6NC2HNC6H6CHCH4CH3NC4H7CH9C2NCSHC2FeC2HSCH2CH6CNC9H21CNHCHNHCH2CHCSCH2CH4C2H5C2H8C4H2CH2C2NFeHCFeHSHSCHFeSFeHSFeS2CFeS3FeSFeS2FeSFeS3FeHSFeS2HFeHS2H7SCH4C6H4C6H4C6H4C6H5CHCH2C2H2CHC3HSC3H3CH5CHC2H2CH3CH2NH2C2SHC2H2CHNSCH6SCHNHC2NCS3FeCH2NC4FeCH3CH3C3H3CFeH4C5H2CH4C2HCHCHC2H2C4H3FeCFeS2CSFeHCSFeH2FeS2HFeS3CSFeS2FeSFeS3FeS2FeS2HFeS3H3CHCFeC3H2C7HCH2C6H4C6H4C6H4CH4NC8H6CHC2H3CHCH3FeHCNCH3C3H2NSCH9NC6HCH12CSHC3H3CHFeC2H2CH3NC7H2SH4CH2CFeHCH2S2H3CFeH2C
_chemical_formula_sum              "Fe96 C720 H864 S192 N48"
_cell_length_a       51.2124
_cell_length_b       50.956
_cell_length_c       41.208
_cell_angle_alpha    89.7814
_cell_angle_beta     89.8673
_cell_angle_gamma    120.036

_space_group_name_H-M_alt    "P 1"
_space_group_IT_number       1

loop_
  _space_group_symop_operation_xyz
  'x, y, z'

loop_
  _atom_site_type_symbol
  _atom_site_label
  _atom_site_symmetry_multiplicity
  _atom_site_fract_x
  _atom_site_fract_y
  _atom_site_fract_z
  _atom_site_occupancy
  Fe  Fe1       1.0  0.50024  0.11942  0.47106  1.0000
  C   C1        1.0  0.25388  0.45230  0.00142  1.0000
  H   H1        1.0  0.47056  0.50032  0.16251  1.0000
  H   H2        1.0  0.21309  0.38420  0.02492  1.0000
  S   S1        1.0  0.48121  0.13810  0.01207  1.0000
  H   H3        1.0  0.24813  0.44654  0.41616  1.0000
  Fe  Fe2       1.0  0.50301  0.17242  0.43160  1.0000
  S   S2        1.0  0.47874  0.17782  0.38790  1.0000
  C   C2        1.0  0.28810  0.34206  0.07713  1.0000
  S   S3        1.0  0.47977  0.14929  0.47871  1.0000
  C   C3        1.0  0.36335  0.04869  0.45633  1.0000
  C   C4        1.0  0.43198  0.03848  0.01579  1.0000
  S   S4        1.0  0.40147  0.47635  0.17613  1.0000
  Fe  Fe3       1.0  0.33768  0.46523  0.11569  1.0000
  S   S5        1.0  0.32999  0.43283  0.15703  1.0000
  S   S6        1.0  0.29613  0.45796  0.08720  1.0000
  Fe  Fe4       1.0  0.35735  0.47441  0.18700  1.0000
  S   S7        1.0  0.34873  0.48494  0.23802  1.0000
  Fe  Fe5       1.0  0.37467  0.43730  0.14270  1.0000
  S   S8        1.0  0.38023  0.39595  0.13453  1.0000
  H   H4        1.0  0.41125  0.22873  0.17978  1.0000
  S   S9        1.0  0.38039  0.46686  0.09927  1.0000
  H   H5        1.0  0.26868  0.41970  0.45081  1.0000
  S   S10       1.0  0.47197  0.29004  0.22891  1.0000
  C   C5        1.0  0.51976  0.50223  0.21891  1.0000
  H   H6        1.0  0.26472  0.32231  0.07723  1.0000
  S   S11       1.0  0.50685  0.32569  0.16112  1.0000
  Fe  Fe6       1.0  0.49136  0.33711  0.20732  1.0000
  S   S12       1.0  0.47401  0.37060  0.21119  1.0000
  Fe  Fe7       1.0  0.49139  0.28012  0.18435  1.0000
  S   S13       1.0  0.46745  0.23361  0.16131  1.0000
  H   H7        1.0  0.44724  0.27471  0.14898  1.0000
  H   H8        1.0  0.32816  0.49932  0.29572  1.0000
  Fe  Fe8       1.0  0.22203  0.48558  0.40343  1.0000
  S   S14       1.0  0.18843  0.43720  0.39050  1.0000
  H   H9        1.0  0.36992  0.48744  0.35343  1.0000
  H   H10       1.0  0.30440  0.44983  0.43894  1.0000
  S   S15       1.0  0.17543  0.46410  0.32321  1.0000
  Fe  Fe9       1.0  0.15774  0.45492  0.37424  1.0000
  S   S16       1.0  0.10836  0.44021  0.38455  1.0000
  Fe  Fe10      1.0  0.20892  0.45090  0.34034  1.0000
  S   S17       1.0  0.22126  0.42217  0.30912  1.0000
  S   S18       1.0  0.18985  0.50239  0.39154  1.0000
  S   S19       1.0  0.24362  0.49811  0.35384  1.0000
  H   H11       1.0  0.32715  0.45354  0.02883  1.0000
  C   C6        1.0  0.07786  0.39287  0.34133  1.0000
  C   C7        1.0  0.07714  0.41508  0.36046  1.0000
  C   C8        1.0  0.05044  0.41658  0.36174  1.0000
  C   C9        1.0  0.26553  0.45048  0.39759  1.0000
  H   H12       1.0  0.09817  0.39134  0.34022  1.0000
  H   H13       1.0  0.04963  0.43359  0.37664  1.0000
  C   C10       1.0  0.31285  0.46711  0.25666  1.0000
  C   C11       1.0  0.28839  0.44084  0.24414  1.0000
  C   C12       1.0  0.26046  0.42694  0.26064  1.0000
  C   C13       1.0  0.25667  0.43965  0.28921  1.0000
  C   C14       1.0  0.28124  0.46581  0.30168  1.0000
  C   C15       1.0  0.30917  0.47935  0.28556  1.0000
  H   H14       1.0  0.29107  0.43112  0.22198  1.0000
  H   H15       1.0  0.24164  0.40653  0.25100  1.0000
  H   H16       1.0  0.27903  0.47551  0.32396  1.0000
  S   S20       1.0  0.36217  0.50670  0.14706  1.0000
  C   C16       1.0  0.26626  0.48704  0.47589  1.0000
  H   H17       1.0  0.41017  0.24711  0.03269  1.0000
  C   C17       1.0  0.26211  0.45583  0.03449  1.0000
  C   C18       1.0  0.28843  0.45605  0.04481  1.0000
  H   H18       1.0  0.52382  0.20207  0.08211  1.0000
  C   C19       1.0  0.42899  0.28044  0.14832  1.0000
  H   H19       1.0  0.40763  0.11072  0.45450  1.0000
  H   H20       1.0  0.24778  0.45809  0.05225  1.0000
  C   C20       1.0  0.31397  0.42194  0.32217  1.0000
  H   H21       1.0  0.22576  0.44354  0.47318  1.0000
  C   C21       1.0  0.44805  0.37717  0.18897  1.0000
  C   C22       1.0  0.43296  0.36041  0.16150  1.0000
  C   C23       1.0  0.41239  0.36649  0.14501  1.0000
  C   C24       1.0  0.40704  0.38969  0.15544  1.0000
  C   C25       1.0  0.42260  0.40681  0.18252  1.0000
  C   C26       1.0  0.44280  0.40044  0.19924  1.0000
  H   H22       1.0  0.43709  0.34281  0.15304  1.0000
  H   H23       1.0  0.40059  0.35322  0.12401  1.0000
  H   H24       1.0  0.41856  0.42454  0.19102  1.0000
  H   H25       1.0  0.45416  0.41339  0.22060  1.0000
  C   C27       1.0  0.47399  0.21990  0.05232  1.0000
  C   C28       1.0  0.46692  0.19628  0.07430  1.0000
  C   C29       1.0  0.46554  0.20093  0.10776  1.0000
  C   C30       1.0  0.47174  0.22932  0.11947  1.0000
  C   C31       1.0  0.47928  0.25306  0.09751  1.0000
  C   C32       1.0  0.47986  0.24816  0.06402  1.0000
  H   H26       1.0  0.46186  0.17425  0.06547  1.0000
  H   H27       1.0  0.25103  0.37805  0.39486  1.0000
  H   H28       1.0  0.50834  0.43465  0.16800  1.0000
  C   C33       1.0  0.52180  0.07105  0.00402  1.0000
  C   C34       1.0  0.49318  0.21160  0.36413  1.0000
  C   C35       1.0  0.48107  0.21051  0.33320  1.0000
  C   C36       1.0  0.49197  0.23688  0.31378  1.0000
  H   H29       1.0  0.52465  0.21051  0.03970  1.0000
  H   H30       1.0  0.45481  0.11111  0.41359  1.0000
  C   C37       1.0  0.40186  0.07729  0.38183  1.0000
  H   H31       1.0  0.46316  0.18917  0.32415  1.0000
  H   H32       1.0  0.48247  0.23570  0.29005  1.0000
  H   H33       1.0  0.41696  0.09897  0.36877  1.0000
  H   H34       1.0  0.51557  0.03702  0.48776  1.0000
  Fe  Fe11      1.0  0.20868  0.51043  0.34112  1.0000
  C   C38       1.0  0.24709  0.45692  0.48537  1.0000
  H   H35       1.0  0.48393  0.27496  0.10618  1.0000
  H   H36       1.0  0.11995  0.51118  0.36605  1.0000
  H   H37       1.0  0.28800  0.37222  0.12864  1.0000
  H   H38       1.0  0.44232  0.08923  0.45063  1.0000
  H   H39       1.0  0.44437  0.07215  0.41376  1.0000
  C   C39       1.0  0.28608  0.51552  0.18248  1.0000
  C   C40       1.0  0.24615  0.39702  0.39465  1.0000
  H   H40       1.0  0.09267  0.46417  0.31501  1.0000
  C   C41       1.0  0.28631  0.42689  0.43157  1.0000
  H   H41       1.0  0.37424  0.27267  0.16450  1.0000
  C   C42       1.0  0.38579  0.05158  0.43382  1.0000
  H   H42       1.0  0.48493  0.26638  0.04707  1.0000
  C   C43       1.0  0.40216  0.20684  0.05782  1.0000
  C   C44       1.0  0.27856  0.36731  0.01593  1.0000
  C   C45       1.0  0.30670  0.45311  0.02148  1.0000
  C   C46       1.0  0.29175  0.41462  0.34590  1.0000
  H   H43       1.0  0.23438  0.39627  0.37161  1.0000
  H   H44       1.0  0.29984  0.34043  0.09918  1.0000
  H   H45       1.0  0.25603  0.45078  0.37347  1.0000
  H   H46       1.0  0.22950  0.39247  0.41441  1.0000
  H   H47       1.0  0.48344  0.46609  0.19236  1.0000
  C   C47       1.0  0.27521  0.37386  0.10764  1.0000
  C   C48       1.0  0.31933  0.39639  0.07382  1.0000
  H   H48       1.0  0.41999  0.12810  0.41557  1.0000
  N   N1        1.0  0.39927  0.25256  0.14479  1.0000
  C   C49       1.0  0.49617  0.49028  0.19667  1.0000
  H   H49       1.0  0.33115  0.39509  0.05179  1.0000
  H   H50       1.0  0.23229  0.50775  0.26203  1.0000
  H   H51       1.0  0.35312  0.24097  0.13790  1.0000
  H   H52       1.0  0.03627  0.32313  0.45604  1.0000
  C   C50       1.0  0.43837  0.08858  0.42405  1.0000
  C   C51       1.0  0.13610  0.51562  0.28566  1.0000
  H   H53       1.0  0.37110  0.21319  0.17434  1.0000
  H   H54       1.0  0.33173  0.47552  0.39540  1.0000
  C   C52       1.0  0.13295  0.51276  0.34373  1.0000
  C   C53       1.0  0.25962  0.46372  0.16358  1.0000
  H   H55       1.0  0.32003  0.41855  0.07293  1.0000
  H   H56       1.0  0.36040  0.06752  0.46290  1.0000
  S   S21       1.0  0.48290  0.06861  0.47034  1.0000
  H   H57       1.0  0.43426  0.29664  0.12791  1.0000
  H   H58       1.0  0.38068  0.10301  0.42221  1.0000
  S   S22       1.0  0.47476  0.21484  0.01004  1.0000
  C   C54       1.0  0.24644  0.37790  0.05013  1.0000
  C   C55       1.0  0.34211  0.44797  0.32504  1.0000
  H   H59       1.0  0.40780  0.27286  0.08158  1.0000
  S   S23       1.0  0.25689  0.50463  0.44418  1.0000
  H   H60       1.0  0.29467  0.50075  0.13663  1.0000
  H   H61       1.0  0.27016  0.39473  0.34140  1.0000
  C   C56       1.0  0.29363  0.50424  0.49253  1.0000
  H   H62       1.0  0.13664  0.49302  0.34427  1.0000
  H   H63       1.0  0.30036  0.33959  0.05619  1.0000
  H   H64       1.0  0.29734  0.36364  0.01198  1.0000
  C   C57       1.0  0.52292  0.42919  0.15270  1.0000
  H   H65       1.0  0.37813  0.07050  0.37582  1.0000
  C   C58       1.0  0.51640  0.23939  0.37542  1.0000
  C   C59       1.0  0.40343  0.10657  0.42799  1.0000
  C   C60       1.0  0.32619  0.45976  0.37561  1.0000
  C   C61       1.0  0.23088  0.37866  0.02262  1.0000
  N   N2        1.0  0.40682  0.08056  0.41737  1.0000
  H   H66       1.0  0.03755  0.34883  0.40439  1.0000
  H   H67       1.0  0.40416  0.02551  0.41113  1.0000
  H   H68       1.0  0.38021  0.27752  0.12189  1.0000
  H   H69       1.0  0.40653  0.05991  0.37154  1.0000
  Fe  Fe12      1.0  0.40425  0.50574  0.13407  1.0000
  C   C62       1.0  0.40433  0.25024  0.08421  1.0000
  H   H70       1.0  0.33301  0.39684  0.09502  1.0000
  H   H71       1.0  0.35882  0.45404  0.30593  1.0000
  H   H72       1.0  0.43041  0.29281  0.17111  1.0000
  C   C63       1.0  0.34820  0.46686  0.35170  1.0000
  C   C64       1.0  0.39609  0.20671  0.11616  1.0000
  H   H73       1.0  0.39301  0.24734  0.19689  1.0000
  C   C65       1.0  0.27064  0.37183  0.04764  1.0000
  C   C66       1.0  0.37569  0.26126  0.14208  1.0000
  C   C67       1.0  0.39329  0.23453  0.17515  1.0000
  C   C68       1.0  0.48890  0.50951  0.17991  1.0000
  H   H74       1.0  0.52572  0.24070  0.39927  1.0000
  C   C69       1.0  0.39725  0.19234  0.08777  1.0000
  H   H75       1.0  0.07284  0.48141  0.33247  1.0000
  H   H76       1.0  0.27656  0.39631  0.10982  1.0000
  S   S24       1.0  0.52031  0.14040  0.42280  1.0000
  H   H77       1.0  0.30900  0.40796  0.30073  1.0000
  H   H78       1.0  0.25130  0.35567  0.11081  1.0000
  N   N3        1.0  0.27414  0.42677  0.39882  1.0000
  C   C70       1.0  0.08844  0.48354  0.31247  1.0000
  H   H79       1.0  0.07642  0.47986  0.28909  1.0000
  N   N4        1.0  0.11696  0.51315  0.31386  1.0000
  C   C71       1.0  0.29731  0.43329  0.37359  1.0000
  H   H80       1.0  0.39354  0.19461  0.13857  1.0000
  H   H81       1.0  0.23964  0.38313  0.07289  1.0000
  H   H82       1.0  0.22578  0.43114  0.19580  1.0000
  H   H83       1.0  0.39553  0.17026  0.08910  1.0000
  H   H84       1.0  0.05219  0.35370  0.31114  1.0000
  H   H85       1.0  0.51260  0.40406  0.15396  1.0000
  C   C72       1.0  0.51494  0.26475  0.32527  1.0000
  H   H86       1.0  0.29564  0.41132  0.43265  1.0000
  C   C73       1.0  0.28131  0.49402  0.15880  1.0000
  H   H87       1.0  0.52142  0.43489  0.12693  1.0000
  C   C74       1.0  0.40566  0.23572  0.05603  1.0000
  H   H88       1.0  0.40423  0.19604  0.03607  1.0000
  H   H89       1.0  0.45933  0.18236  0.12460  1.0000
  C   C75       1.0  0.38748  0.02507  0.42756  1.0000
  C   C76       1.0  0.39955  0.23621  0.11521  1.0000
  C   C77       1.0  0.05174  0.37157  0.32482  1.0000
  N   N5        1.0  0.28781  0.37104  0.07617  1.0000
  C   C78       1.0  0.26928  0.50721  0.21192  1.0000
  H   H90       1.0  0.25627  0.44715  0.14521  1.0000
  H   H91       1.0  0.14277  0.49789  0.28635  1.0000
  Fe  Fe13      1.0  0.51786  0.30586  0.25040  1.0000
  H   H92       1.0  0.28489  0.47359  0.40211  1.0000
  H   H93       1.0  0.44988  0.06096  0.02203  1.0000
  H   H94       1.0  0.12454  0.51334  0.26218  1.0000
  H   H95       1.0  0.26076  0.50040  0.27823  1.0000
  C   C79       1.0  0.45004  0.03804  0.48789  1.0000
  C   C80       1.0  0.24705  0.47611  0.21589  1.0000
  H   H96       1.0  0.23322  0.46745  0.23746  1.0000
  C   C81       1.0  0.24246  0.45481  0.19198  1.0000
  H   H97       1.0  0.52544  0.48716  0.23176  1.0000
  C   C82       1.0  0.34418  0.02100  0.47170  1.0000
  C   C83       1.0  0.52651  0.02031  0.01998  1.0000
  C   C84       1.0  0.25686  0.51786  0.26681  1.0000
  Fe  Fe14      1.0  0.46154  0.11338  0.96544  1.0000
  S   S25       1.0  0.50634  0.12724  0.94202  1.0000
  S   S26       1.0  0.42377  0.06438  0.96002  1.0000
  C   C85       1.0  0.52115  0.47102  0.64947  1.0000
  H   H98       1.0  0.26146  0.42428  0.83134  1.0000
  C   C86       1.0  0.34981  0.42791  0.76892  1.0000
  Fe  Fe15      1.0  0.50440  0.16800  0.92307  1.0000
  H   H99       1.0  0.32292  0.50514  0.53090  1.0000
  C   C87       1.0  0.26131  0.51652  0.67744  1.0000
  S   S27       1.0  0.45814  0.15227  0.94321  1.0000
  C   C88       1.0  0.35062  0.44665  0.82301  1.0000
  C   C89       1.0  0.51701  0.22136  0.57129  1.0000
  S   S28       1.0  0.39790  0.47960  0.65428  1.0000
  Fe  Fe16      1.0  0.33309  0.46196  0.59292  1.0000
  S   S29       1.0  0.32719  0.43209  0.63638  1.0000
  S   S30       1.0  0.29081  0.44478  0.56138  1.0000
  Fe  Fe17      1.0  0.35282  0.47561  0.66384  1.0000
  S   S31       1.0  0.34472  0.48811  0.71411  1.0000
  Fe  Fe18      1.0  0.37278  0.43856  0.62327  1.0000
  S   S32       1.0  0.38376  0.40071  0.61871  1.0000
  C   C90       1.0  0.44201  0.16623  0.80468  1.0000
  S   S33       1.0  0.37685  0.46509  0.57788  1.0000
  Fe  Fe19      1.0  0.49174  0.29377  0.74638  1.0000
  S   S34       1.0  0.45516  0.28880  0.71245  1.0000
  S   S35       1.0  0.47970  0.27032  0.79597  1.0000
  H   H100      1.0  0.23856  0.44983  0.59595  1.0000
  S   S36       1.0  0.50860  0.33945  0.66436  1.0000
  Fe  Fe20      1.0  0.48071  0.33948  0.70662  1.0000
  S   S37       1.0  0.46424  0.37298  0.71491  1.0000
  Fe  Fe21      1.0  0.48576  0.28887  0.67287  1.0000
  S   S38       1.0  0.46375  0.25272  0.63427  1.0000
  H   H101      1.0  0.28645  0.49410  0.59568  1.0000
  H   H102      1.0  0.05635  0.46615  0.83202  1.0000
  Fe  Fe22      1.0  0.22648  0.44601  0.90601  1.0000
  S   S39       1.0  0.19109  0.40713  0.87658  1.0000
  S   S40       1.0  0.26060  0.44005  0.93686  1.0000
  Fe  Fe23      1.0  0.21478  0.49186  0.86921  1.0000
  S   S41       1.0  0.17936  0.45690  0.83688  1.0000
  Fe  Fe24      1.0  0.16235  0.42890  0.88241  1.0000
  S   S42       1.0  0.11260  0.40623  0.89671  1.0000
  Fe  Fe25      1.0  0.21071  0.43808  0.83325  1.0000
  S   S43       1.0  0.21800  0.41958  0.78619  1.0000
  S   S44       1.0  0.19618  0.46542  0.91554  1.0000
  S   S45       1.0  0.24758  0.47538  0.86183  1.0000
  N   N6        1.0  0.09398  0.47669  0.86352  1.0000
  C   C91       1.0  0.05252  0.37810  0.88033  1.0000
  C   C92       1.0  0.08186  0.38668  0.86965  1.0000
  C   C93       1.0  0.08593  0.37963  0.83794  1.0000
  S   S46       1.0  0.51915  0.18582  0.87130  1.0000
  H   H103      1.0  0.04906  0.38315  0.90491  1.0000
  H   H104      1.0  0.10833  0.38596  0.82941  1.0000
  C   C94       1.0  0.30904  0.46904  0.73315  1.0000
  C   C95       1.0  0.28646  0.44057  0.72271  1.0000
  C   C96       1.0  0.25849  0.42576  0.73893  1.0000
  C   C97       1.0  0.25297  0.43927  0.76572  1.0000
  C   C98       1.0  0.27547  0.46785  0.77594  1.0000
  C   C99       1.0  0.30348  0.48257  0.75986  1.0000
  H   H105      1.0  0.29081  0.42965  0.70264  1.0000
  H   H106      1.0  0.24120  0.40356  0.73103  1.0000
  H   H107      1.0  0.27124  0.47873  0.79608  1.0000
  H   H108      1.0  0.22678  0.50820  0.75064  1.0000
  C   C100      1.0  0.51840  0.21905  0.81869  1.0000
  H   H109      1.0  0.45589  0.13678  0.82640  1.0000
  H   H110      1.0  0.43452  0.17069  0.82760  1.0000
  C   C101      1.0  0.28253  0.46158  0.52802  1.0000
  C   C102      1.0  0.07540  0.48594  0.84424  1.0000
  C   C103      1.0  0.27423  0.45911  0.64798  1.0000
  C   C104      1.0  0.30289  0.41365  0.79695  1.0000
  S   S47       1.0  0.52066  0.29072  0.70729  1.0000
  H   H111      1.0  0.38659  0.02058  0.53128  1.0000
  H   H112      1.0  0.31209  0.44598  0.97088  1.0000
  C   C105      1.0  0.44080  0.37939  0.68843  1.0000
  C   C106      1.0  0.43150  0.36471  0.65859  1.0000
  C   C107      1.0  0.41390  0.37140  0.63764  1.0000
  C   C108      1.0  0.40563  0.39296  0.64616  1.0000
  C   C109      1.0  0.41503  0.40775  0.67599  1.0000
  C   C110      1.0  0.43244  0.40088  0.69707  1.0000
  H   H113      1.0  0.43781  0.34817  0.65163  1.0000
  H   H114      1.0  0.40666  0.35983  0.61463  1.0000
  H   H115      1.0  0.40874  0.42431  0.68284  1.0000
  H   H116      1.0  0.43958  0.41235  0.72013  1.0000
  C   C111      1.0  0.50094  0.04269  0.99158  1.0000
  C   C112      1.0  0.48675  0.21154  0.56463  1.0000
  C   C113      1.0  0.47072  0.22148  0.58402  1.0000
  C   C114      1.0  0.48491  0.24158  0.60983  1.0000
  C   C115      1.0  0.46425  0.14169  0.77485  1.0000
  C   C116      1.0  0.26959  0.41574  0.85150  1.0000
  H   H117      1.0  0.47563  0.19608  0.54481  1.0000
  H   H118      1.0  0.44724  0.21364  0.57891  1.0000
  C   C117      1.0  0.31202  0.46534  0.85979  1.0000
  Fe  Fe26      1.0  0.48223  0.17826  0.98807  1.0000
  Fe  Fe27      1.0  0.52443  0.18213  0.50172  1.0000
  H   H119      1.0  0.06411  0.35726  0.79342  1.0000
  H   H120      1.0  0.23336  0.45175  0.99401  1.0000
  C   C118      1.0  0.49089  0.24654  0.81597  1.0000
  C   C119      1.0  0.47985  0.23605  0.84746  1.0000
  C   C120      1.0  0.48805  0.21726  0.86455  1.0000
  H   H121      1.0  0.08641  0.44238  0.82808  1.0000
  H   H122      1.0  0.06592  0.46465  0.90619  1.0000
  H   H123      1.0  0.46488  0.24255  0.85882  1.0000
  H   H124      1.0  0.47948  0.20952  0.88883  1.0000
  H   H125      1.0  0.50097  0.40835  0.65389  1.0000
  C   C121      1.0  0.27164  0.44840  0.97826  1.0000
  H   H126      1.0  0.49945  0.43614  0.70179  1.0000
  C   C122      1.0  0.44082  0.18078  0.77633  1.0000
  H   H127      1.0  0.49840  0.22518  0.72149  1.0000
  H   H128      1.0  0.51850  0.24525  0.77722  1.0000
  H   H129      1.0  0.06513  0.49617  0.85991  1.0000
  H   H130      1.0  0.47566  0.43176  0.64672  1.0000
  C   C123      1.0  0.49302  0.50174  0.62154  1.0000
  H   H131      1.0  0.30667  0.47526  0.83847  1.0000
  H   H132      1.0  0.26093  0.39112  0.84794  1.0000
  H   H133      1.0  0.33596  0.43512  0.88813  1.0000
  C   C124      1.0  0.25516  0.44435  0.51137  1.0000
  H   H134      1.0  0.25849  0.41772  0.87385  1.0000
  C   C125      1.0  0.47622  0.47076  0.62794  1.0000
  H   H135      1.0  0.36160  0.42690  0.74747  1.0000
  C   C126      1.0  0.41565  0.03411  0.98721  1.0000
  C   C127      1.0  0.48995  0.45564  0.64181  1.0000
  H   H136      1.0  0.23998  0.42117  0.51882  1.0000
  C   C128      1.0  0.31156  0.42139  0.88250  1.0000
  C   C129      1.0  0.50750  0.20875  0.85031  1.0000
  H   H137      1.0  0.08545  0.44394  0.90158  1.0000
  C   C130      1.0  0.30183  0.49158  0.51834  1.0000
  H   H138      1.0  0.12082  0.47820  0.82247  1.0000
  H   H139      1.0  0.29934  0.42170  0.90481  1.0000
  H   H140      1.0  0.21931  0.46811  0.61284  1.0000
  H   H141      1.0  0.43770  0.51411  0.70779  1.0000
  C   C131      1.0  0.51012  0.23779  0.80154  1.0000
  H   H142      1.0  0.21639  0.43489  0.63177  1.0000
  C   C132      1.0  0.42904  0.04235  0.50533  1.0000
  C   C133      1.0  0.24980  0.48563  0.66890  1.0000
  H   H143      1.0  0.26964  0.36531  0.96455  1.0000
  C   C134      1.0  0.36590  0.44509  0.79555  1.0000
  C   C135      1.0  0.31859  0.43105  0.82454  1.0000
  H   H144      1.0  0.30599  0.39893  0.74882  1.0000
  H   H145      1.0  0.47368  0.12681  0.77457  1.0000
  C   C136      1.0  0.31842  0.41208  0.76974  1.0000
  Fe  Fe28      1.0  0.39908  0.50598  0.61017  1.0000
  C   C137      1.0  0.52448  0.44894  0.69995  1.0000
  N   N7        1.0  0.25900  0.47627  0.63896  1.0000
  H   H146      1.0  0.27856  0.40136  0.79546  1.0000
  H   H147      1.0  0.43282  0.06500  0.50893  1.0000
  N   N8        1.0  0.30302  0.43319  0.85391  1.0000
  H   H148      1.0  0.26987  0.51564  0.60956  1.0000
  H   H149      1.0  0.36406  0.46022  0.84309  1.0000
  N   N9        1.0  0.45159  0.19191  0.71580  1.0000
  C   C138      1.0  0.44023  0.21338  0.72022  1.0000
  H   H150      1.0  0.22008  0.43950  0.68677  1.0000
  C   C139      1.0  0.43233  0.16943  0.69114  1.0000
  C   C140      1.0  0.45148  0.17617  0.74616  1.0000
  C   C141      1.0  0.46284  0.15581  0.74624  1.0000
  C   C142      1.0  0.03380  0.51646  0.80314  1.0000
  Fe  Fe29      1.0  0.52598  0.15426  0.98734  1.0000
  H   H151      1.0  0.44063  0.22490  0.69702  1.0000
  H   H152      1.0  0.41640  0.20164  0.72881  1.0000
  H   H153      1.0  0.45433  0.23156  0.73777  1.0000
  C   C143      1.0  0.29817  0.44900  0.98851  1.0000
  C   C144      1.0  0.23210  0.45645  0.61913  1.0000
  H   H154      1.0  0.30167  0.51714  0.63072  1.0000
  H   H155      1.0  0.40875  0.15534  0.70018  1.0000
  H   H156      1.0  0.43158  0.18078  0.66819  1.0000
  H   H157      1.0  0.44070  0.15384  0.68438  1.0000
  H   H158      1.0  0.47117  0.15104  0.72424  1.0000
  H   H159      1.0  0.30610  0.39758  0.87852  1.0000
  C   C145      1.0  0.23291  0.50202  0.72787  1.0000
  C   C146      1.0  0.22935  0.46343  0.69114  1.0000
  C   C147      1.0  0.48280  0.20948  0.70282  1.0000
  C   C148      1.0  0.10520  0.46186  0.84094  1.0000
  H   H160      1.0  0.28214  0.45220  0.62626  1.0000
  C   C149      1.0  0.06079  0.36341  0.81755  1.0000
  C   C150      1.0  0.52522  0.42514  0.64979  1.0000
  H   H161      1.0  0.22757  0.37556  0.97064  1.0000
  H   H162      1.0  0.39034  0.45720  0.79487  1.0000
  C   C151      1.0  0.22104  0.47161  0.72007  1.0000
  S   S48       1.0  0.35580  0.50531  0.62175  1.0000
  H   H163      1.0  0.20581  0.45421  0.73697  1.0000
  H   H164      1.0  0.32080  0.50465  0.76799  1.0000
  H   H165      1.0  0.49179  0.19476  0.69472  1.0000
  C   C152      1.0  0.07392  0.45413  0.88801  1.0000
  H   H166      1.0  0.25908  0.43782  0.66134  1.0000
  H   H167      1.0  0.08903  0.50239  0.82477  1.0000
  H   H168      1.0  0.29422  0.47299  0.66352  1.0000
  S   S49       1.0  0.51481  0.34448  0.74387  1.0000
  H   H169      1.0  0.43224  0.19619  0.77905  1.0000
  C   C153      1.0  0.51525  0.25161  0.61628  1.0000
  H   H170      1.0  0.48408  0.22331  0.68120  1.0000
  H   H171      1.0  0.11776  0.45240  0.85366  1.0000
  H   H172      1.0  0.30003  0.46769  0.88123  1.0000
  H   H173      1.0  0.33645  0.47972  0.86489  1.0000
  C   C154      1.0  0.45402  0.14705  0.80404  1.0000
  C   C155      1.0  0.26290  0.36824  0.98858  1.0000
  H   H174      1.0  0.45230  0.45828  0.62218  1.0000
  H   H175      1.0  0.48344  0.04210  0.97643  1.0000
  H   H176      1.0  0.05377  0.43485  0.87660  1.0000
  H   H177      1.0  0.13684  0.47448  0.90176  1.0000
  C   C156      1.0  0.03145  0.35481  0.82824  1.0000
  H   H178      1.0  0.04467  0.51312  0.78238  1.0000
  C   C157      1.0  0.11977  0.50222  0.88011  1.0000
  C   C158      1.0  0.23907  0.37384  0.99194  1.0000
  C   C159      1.0  0.02750  0.36268  0.85962  1.0000
  H   H179      1.0  0.17859  0.51354  0.82667  1.0000
  H   H180      1.0  0.48360  0.51536  0.68945  1.0000
  C   C160      1.0  0.28014  0.50207  0.61798  1.0000
  H   H181      1.0  0.40704  0.51129  0.74868  1.0000
  H   H182      1.0  0.48218  0.51336  0.61085  1.0000
  C   C161      1.0  0.13988  0.49699  0.89905  1.0000
  C   C162      1.0  0.52365  0.51770  0.62908  1.0000
  H   H183      1.0  0.52641  0.26711  0.63605  1.0000
  H   H184      1.0  0.18052  0.51641  0.92757  1.0000
  H   H185      1.0  0.51984  0.09080  0.99821  1.0000
  Fe  Fe30      1.0  0.36211  0.90374  0.04504  1.0000
  S   S50       1.0  0.35927  0.87013  0.08287  1.0000
  S   S51       1.0  0.39518  0.95365  0.05467  1.0000
  H   H186      1.0  0.15731  0.53801  0.28531  1.0000
  S   S52       1.0  0.31197  0.81616  0.03416  1.0000
  C   C163      1.0  0.17717  0.67738  0.43903  1.0000
  Fe  Fe31      1.0  0.30920  0.84481  0.07388  1.0000
  S   S53       1.0  0.27030  0.82746  0.11050  1.0000
  Fe  Fe32      1.0  0.36220  0.84437  0.04018  1.0000
  S   S54       1.0  0.38915  0.82044  0.03763  1.0000
  S   S55       1.0  0.31182  0.88055  0.03925  1.0000
  C   C164      1.0  0.44400  0.82923  0.01702  1.0000
  H   H187      1.0  0.08355  0.52337  0.26860  1.0000
  H   H188      1.0  0.48137  0.73321  0.16279  1.0000
  C   C165      1.0  0.10030  0.58826  0.30732  1.0000
  Fe  Fe33      1.0  0.19093  0.74043  0.33084  1.0000
  S   S56       1.0  0.22245  0.72439  0.31556  1.0000
  S   S57       1.0  0.20779  0.78298  0.36118  1.0000
  Fe  Fe34      1.0  0.13651  0.68662  0.29900  1.0000
  S   S58       1.0  0.16501  0.66736  0.28075  1.0000
  S   S59       1.0  0.08621  0.65882  0.28791  1.0000
  Fe  Fe35      1.0  0.18546  0.67837  0.33035  1.0000
  S   S60       1.0  0.19288  0.64891  0.36575  1.0000
  Fe  Fe36      1.0  0.19951  0.71562  0.26704  1.0000
  S   S61       1.0  0.23216  0.72866  0.22400  1.0000
  S   S62       1.0  0.15525  0.69490  0.34937  1.0000
  S   S63       1.0  0.16951  0.73422  0.28150  1.0000
  C   C166      1.0  0.52518  0.75816  0.11603  1.0000
  C   C167      1.0  0.20118  0.62226  0.34899  1.0000
  C   C168      1.0  0.20277  0.61949  0.31541  1.0000
  C   C169      1.0  0.20857  0.59737  0.30268  1.0000
  C   C170      1.0  0.21259  0.57785  0.32348  1.0000
  C   C171      1.0  0.21146  0.58096  0.35706  1.0000
  C   C172      1.0  0.20568  0.60306  0.36978  1.0000
  H   H189      1.0  0.19943  0.63431  0.29922  1.0000
  H   H190      1.0  0.20953  0.59516  0.27667  1.0000
  H   H191      1.0  0.21503  0.56635  0.37327  1.0000
  H   H192      1.0  0.20465  0.60524  0.39579  1.0000
  C   C173      1.0  0.05683  0.64865  0.31678  1.0000
  H   H193      1.0  0.43975  0.62617  0.11989  1.0000
  H   H194      1.0  0.30863  0.85483  0.30302  1.0000
  C   C174      1.0  0.06285  0.65803  0.34908  1.0000
  C   C175      1.0  0.08767  0.56480  0.28489  1.0000
  C   C176      1.0  0.12335  0.56301  0.33507  1.0000
  H   H195      1.0  0.08591  0.67214  0.35689  1.0000
  C   C177      1.0  0.49077  0.63094  0.18399  1.0000
  C   C178      1.0  0.46134  0.60723  0.19024  1.0000
  C   C179      1.0  0.44825  0.58118  0.17071  1.0000
  C   C180      1.0  0.46425  0.57908  0.14427  1.0000
  C   C181      1.0  0.49334  0.60320  0.13747  1.0000
  H   H196      1.0  0.49097  0.80308  0.41529  1.0000
  H   H197      1.0  0.44882  0.60873  0.21065  1.0000
  H   H198      1.0  0.42582  0.56269  0.17617  1.0000
  C   C182      1.0  0.30747  0.54581  0.24630  1.0000
  C   C183      1.0  0.11812  0.58738  0.33228  1.0000
  C   C184      1.0  0.24193  0.75593  0.19231  1.0000
  C   C185      1.0  0.22664  0.77197  0.18752  1.0000
  C   C186      1.0  0.23559  0.79365  0.16231  1.0000
  C   C187      1.0  0.25977  0.79951  0.14151  1.0000
  C   C188      1.0  0.27486  0.78326  0.14605  1.0000
  C   C189      1.0  0.26598  0.76166  0.17134  1.0000
  H   H199      1.0  0.20776  0.76750  0.20299  1.0000
  H   H200      1.0  0.22373  0.80605  0.15899  1.0000
  H   H201      1.0  0.29348  0.78747  0.13026  1.0000
  H   H202      1.0  0.27787  0.74929  0.17469  1.0000
  C   C190      1.0  0.28638  0.80870  0.43124  1.0000
  C   C191      1.0  0.28199  0.78977  0.40475  1.0000
  C   C192      1.0  0.25831  0.78221  0.38291  1.0000
  C   C193      1.0  0.23907  0.79399  0.38696  1.0000
  C   C194      1.0  0.24424  0.81406  0.41266  1.0000
  C   C195      1.0  0.26768  0.82119  0.43498  1.0000
  H   H203      1.0  0.29649  0.78016  0.40163  1.0000
  H   H204      1.0  0.25487  0.76701  0.36322  1.0000
  H   H205      1.0  0.22950  0.82337  0.41593  1.0000
  H   H206      1.0  0.27091  0.83587  0.45533  1.0000
  C   C196      1.0  0.42645  0.84272  0.02349  1.0000
  H   H207      1.0  0.30856  0.52759  0.48547  1.0000
  H   H208      1.0  0.18912  0.72927  0.41212  1.0000
  C   C197      1.0  0.28378  0.83924  0.30311  1.0000
  H   H209      1.0  0.13807  0.56434  0.35451  1.0000
  C   C198      1.0  0.43857  0.87373  0.01781  1.0000
  C   C199      1.0  0.43901  0.82304  0.43795  1.0000
  C   C200      1.0  0.21611  0.71067  0.47880  1.0000
  C   C201      1.0  0.23881  0.80740  0.01983  1.0000
  C   C202      1.0  0.50473  0.54065  0.18585  1.0000
  H   H210      1.0  0.49550  0.71045  0.18043  1.0000
  C   C203      1.0  0.30276  0.83014  0.22144  1.0000
  H   H211      1.0  0.17968  0.78558  0.02841  1.0000
  H   H212      1.0  0.41494  0.96059  0.49290  1.0000
  C   C204      1.0  0.42506  0.01368  0.03645  1.0000
  C   C205      1.0  0.45074  0.64878  0.10930  1.0000
  C   C206      1.0  0.44347  0.65317  0.07797  1.0000
  H   H213      1.0  0.17132  0.75005  0.04639  1.0000
  H   H214      1.0  0.27127  0.57048  0.24195  1.0000
  C   C207      1.0  0.09288  0.54038  0.28732  1.0000
  H   H215      1.0  0.18003  0.73012  0.45418  1.0000
  H   H216      1.0  0.23332  0.69076  0.42594  1.0000
  H   H217      1.0  0.51922  0.75028  0.17850  1.0000
  H   H218      1.0  0.27881  0.78524  0.30504  1.0000
  C   C208      1.0  0.22838  0.70950  0.42218  1.0000
  H   H219      1.0  0.50255  0.58839  0.21062  1.0000
  H   H220      1.0  0.19610  0.78521  0.06649  1.0000
  S   S64       1.0  0.21725  0.54867  0.30694  1.0000
  C   C209      1.0  0.38909  0.81901  0.43909  1.0000
  C   C210      1.0  0.43748  0.82111  0.47237  1.0000
  H   H221      1.0  0.27784  0.88855  0.20027  1.0000
  N   N10       1.0  0.27520  0.53043  0.23682  1.0000
  C   C211      1.0  0.28516  0.87257  0.20655  1.0000
  H   H222      1.0  0.42669  0.63404  0.06426  1.0000
  H   H223      1.0  0.41297  0.82336  0.39567  1.0000
  H   H224      1.0  0.32494  0.84201  0.17468  1.0000
  C   C212      1.0  0.03893  0.64946  0.37131  1.0000
  N   N11       1.0  0.21569  0.77516  0.02539  1.0000
  H   H225      1.0  0.49777  0.55441  0.17253  1.0000
  H   H226      1.0  0.22128  0.70839  0.39644  1.0000
  H   H227      1.0  0.26197  0.86098  0.25181  1.0000
  H   H228      1.0  0.45098  0.77909  0.42219  1.0000
  C   C213      1.0  0.24107  0.79929  0.27543  1.0000
  C   C214      1.0  0.28476  0.83492  0.24438  1.0000
  H   H229      1.0  0.23308  0.78268  0.25523  1.0000
  H   H230      1.0  0.27835  0.77895  0.26256  1.0000
  C   C215      1.0  0.30295  0.86750  0.18476  1.0000
  C   C216      1.0  0.45803  0.68211  0.06422  1.0000
  H   H231      1.0  0.49772  0.85491  0.45716  1.0000
  H   H232      1.0  0.30326  0.53870  0.17762  1.0000
  H   H233      1.0  0.48474  0.92499  0.47824  1.0000
  C   C217      1.0  0.47255  0.67331  0.12694  1.0000
  H   H234      1.0  0.27737  0.82700  0.32687  1.0000
  H   H235      1.0  0.48482  0.83078  0.37257  1.0000
  H   H236      1.0  0.23244  0.78627  0.29843  1.0000
  H   H237      1.0  0.04386  0.65692  0.39622  1.0000
  H   H238      1.0  0.30946  0.81334  0.22492  1.0000
  N   N12       1.0  0.20482  0.70697  0.44508  1.0000
  H   H239      1.0  0.49078  0.72842  0.06920  1.0000
  H   H240      1.0  0.22984  0.82039  0.00694  1.0000
  N   N13       1.0  0.51263  0.72809  0.13220  1.0000
  C   C218      1.0  0.47106  0.80120  0.42855  1.0000
  H   H241      1.0  0.45244  0.68541  0.03973  1.0000
  H   H242      1.0  0.42546  0.88442  0.02338  1.0000
  C   C219      1.0  0.49284  0.85539  0.43102  1.0000
  H   H243      1.0  0.09687  0.60757  0.30489  1.0000
  C   C220      1.0  0.50671  0.62893  0.15743  1.0000
  H   H244      1.0  0.50573  0.60176  0.11688  1.0000
  H   H245      1.0  0.07444  0.56604  0.26503  1.0000
  H   H246      1.0  0.31236  0.56171  0.26687  1.0000
  C   C221      1.0  0.41882  0.98327  0.49660  1.0000
  C   C222      1.0  0.46413  0.82814  0.38472  1.0000
  C   C223      1.0  0.47348  0.84667  0.00460  1.0000
  H   H247      1.0  0.46078  0.00481  0.46999  1.0000
  C   C224      1.0  0.26828  0.55331  0.22339  1.0000
  H   H248      1.0  0.47755  0.66871  0.15097  1.0000
  H   H249      1.0  0.03319  0.56225  0.37777  1.0000
  H   H250      1.0  0.21230  0.73813  0.05442  1.0000
  C   C225      1.0  0.28645  0.79714  0.28123  1.0000
  S   S65       1.0  0.50669  0.66288  0.20949  1.0000
  H   H251      1.0  0.22992  0.81310  0.27292  1.0000
  H   H252      1.0  0.45526  0.97625  0.03220  1.0000
  C   C226      1.0  0.22896  0.76193  0.04760  1.0000
  H   H253      1.0  0.15814  0.67408  0.45489  1.0000
  H   H254      1.0  0.32286  0.55938  0.22620  1.0000
  H   H255      1.0  0.28299  0.56588  0.20241  1.0000
  H   H256      1.0  0.48952  0.87521  0.42734  1.0000
  C   C227      1.0  0.46479  0.96571  0.01592  1.0000
  H   H257      1.0  0.27273  0.85325  0.30286  1.0000
  H   H258      1.0  0.18135  0.65808  0.44237  1.0000
  H   H259      1.0  0.31153  0.80963  0.28142  1.0000
  C   C228      1.0  0.41392  0.82183  0.42171  1.0000
  H   H260      1.0  0.16934  0.67568  0.41351  1.0000
  H   H261      1.0  0.25384  0.75673  0.47150  1.0000
  C   C229      1.0  0.27620  0.85662  0.23597  1.0000
  H   H262      1.0  0.36929  0.81538  0.48616  1.0000
  H   H263      1.0  0.43472  0.80522  0.02140  1.0000
  H   H264      1.0  0.48001  0.96100  0.03090  1.0000
  C   C230      1.0  0.41244  0.81802  0.48939  1.0000
  H   H265      1.0  0.24993  0.73110  0.42479  1.0000
  C   C231      1.0  0.38840  0.81717  0.47282  1.0000
  H   H266      1.0  0.23660  0.77468  0.07082  1.0000
  H   H267      1.0  0.21749  0.75413  0.43932  1.0000
  C   C232      1.0  0.40187  0.98427  0.02871  1.0000
  C   C233      1.0  0.48813  0.70304  0.11365  1.0000
  H   H268      1.0  0.24844  0.81961  0.04301  1.0000
  H   H269      1.0  0.37071  0.97789  0.43906  1.0000
  C   C234      1.0  0.18952  0.77393  0.04234  1.0000
  N   N14       1.0  0.46609  0.82681  0.42059  1.0000
  H   H270      1.0  0.37025  0.81854  0.42650  1.0000
  H   H271      1.0  0.30918  0.87921  0.16152  1.0000
  S   S66       1.0  0.44918  0.54632  0.12001  1.0000
  H   H272      1.0  0.47713  0.91495  0.00103  1.0000
  H   H273      1.0  0.46202  0.84795  0.37695  1.0000
  C   C235      1.0  0.44478  0.00842  0.48361  1.0000
  H   H274      1.0  0.31412  0.52897  0.25382  1.0000
  H   H275      1.0  0.24445  0.54237  0.21503  1.0000
  C   C236      1.0  0.48012  0.70678  0.08161  1.0000
  H   H276      1.0  0.15581  0.53298  0.34526  1.0000
  S   S67       1.0  0.31391  0.81375  0.46003  1.0000
  C   C237      1.0  0.19755  0.73109  0.43741  1.0000
  H   H277      1.0  0.45592  0.82261  0.48654  1.0000
  H   H278      1.0  0.44475  0.80699  0.37507  1.0000
  C   C238      1.0  0.31187  0.84650  0.19227  1.0000
  H   H279      1.0  0.50758  0.76458  0.11241  1.0000
  H   H280      1.0  0.12869  0.60618  0.34909  1.0000
  N   N15       1.0  0.27440  0.81790  0.27540  1.0000
  H   H281      1.0  0.24917  0.76264  0.03659  1.0000
  C   C239      1.0  0.48160  0.90905  0.49736  1.0000
  H   H282      1.0  0.26259  0.53568  0.28547  1.0000
  C   C240      1.0  0.11069  0.53856  0.31267  1.0000
  C   C241      1.0  0.50160  0.73057  0.16478  1.0000
  H   H283      1.0  0.51371  0.86004  0.41771  1.0000
  C   C242      1.0  0.38557  0.97989  0.00011  1.0000
  H   H284      1.0  0.47573  0.80037  0.45475  1.0000
  H   H285      1.0  0.50943  0.98573  0.49133  1.0000
  H   H286      1.0  0.43781  0.01730  0.05851  1.0000
  C   C243      1.0  0.24182  0.73823  0.48846  1.0000
  H   H287      1.0  0.33245  0.97437  0.47793  1.0000
  H   H288      1.0  0.51010  0.58157  0.25106  1.0000
  H   H289      1.0  0.25767  0.80922  0.00478  1.0000
  H   H290      1.0  0.44563  0.94330  0.00853  1.0000
  C   C244      1.0  0.46788  0.89105  0.00529  1.0000
  H   H291      1.0  0.02760  0.53505  0.32822  1.0000
  S   S68       1.0  0.36842  0.87941  0.00313  1.0000
  H   H292      1.0  0.32768  0.01932  0.48936  1.0000
  H   H293      1.0  0.52228  0.67478  0.48083  1.0000
  C   C245      1.0  0.52092  0.59413  0.22825  1.0000
  C   C246      1.0  0.36825  0.99757  0.44314  1.0000
  C   C247      1.0  0.02664  0.63043  0.30705  1.0000
  C   C248      1.0  0.34665  0.99554  0.46515  1.0000
  H   H294      1.0  0.49653  0.62079  0.49752  1.0000
  H   H295      1.0  0.18286  0.66575  0.49780  1.0000
  Fe  Fe37      1.0  0.31789  0.85326  0.00028  1.0000
  C   C249      1.0  0.50261  0.01632  0.99935  1.0000
  H   H296      1.0  0.48681  0.83610  0.99934  1.0000
  H   H297      1.0  0.21663  0.72315  0.00312  1.0000
  Fe  Fe38      1.0  0.35502  0.90813  0.53273  1.0000
  S   S69       1.0  0.36413  0.89288  0.58045  1.0000
  C   C250      1.0  0.43295  0.78564  0.90502  1.0000
  H   H298      1.0  0.29861  0.78868  0.74757  1.0000
  S   S70       1.0  0.33492  0.82493  0.54927  1.0000
  S   S71       1.0  0.44463  0.54639  0.59788  1.0000
  Fe  Fe39      1.0  0.31798  0.85173  0.57603  1.0000
  S   S72       1.0  0.28905  0.83845  0.62224  1.0000
  Fe  Fe40      1.0  0.38039  0.86716  0.55052  1.0000
  S   S73       1.0  0.41903  0.86077  0.56681  1.0000
  S   S74       1.0  0.30726  0.86865  0.53000  1.0000
  H   H299      1.0  0.33117  0.79241  0.90807  1.0000
  H   H300      1.0  0.48116  0.81526  0.90595  1.0000
  S   S75       1.0  0.49126  0.66419  0.68364  1.0000
  H   H301      1.0  0.35002  0.82633  0.95169  1.0000
  Fe  Fe41      1.0  0.21266  0.70526  0.83355  1.0000
  S   S76       1.0  0.22498  0.68186  0.79517  1.0000
  S   S77       1.0  0.24156  0.71978  0.87887  1.0000
  Fe  Fe42      1.0  0.15348  0.68970  0.80071  1.0000
  S   S78       1.0  0.16173  0.66537  0.76036  1.0000
  S   S79       1.0  0.10969  0.69060  0.79593  1.0000
  Fe  Fe43      1.0  0.17669  0.64498  0.79907  1.0000
  S   S80       1.0  0.15725  0.59418  0.79727  1.0000
  Fe  Fe44      1.0  0.20930  0.70457  0.75937  1.0000
  S   S81       1.0  0.23123  0.71802  0.70904  1.0000
  S   S82       1.0  0.16507  0.66650  0.83968  1.0000
  S   S83       1.0  0.20035  0.73082  0.79749  1.0000
  C   C251      1.0  0.35683  0.77798  0.95826  1.0000
  C   C252      1.0  0.17915  0.58024  0.81519  1.0000
  C   C253      1.0  0.20519  0.59934  0.83264  1.0000
  C   C254      1.0  0.22156  0.58747  0.84797  1.0000
  C   C255      1.0  0.21194  0.55645  0.84610  1.0000
  C   C256      1.0  0.18609  0.53740  0.82827  1.0000
  C   C257      1.0  0.16978  0.54929  0.81278  1.0000
  H   H302      1.0  0.21256  0.62321  0.83470  1.0000
  H   H303      1.0  0.24153  0.60231  0.86172  1.0000
  C   C258      1.0  0.40477  0.78243  0.91222  1.0000
  H   H304      1.0  0.14974  0.53448  0.79918  1.0000
  C   C259      1.0  0.07840  0.66679  0.82106  1.0000
  C   C260      1.0  0.04925  0.66036  0.81229  1.0000
  C   C261      1.0  0.05682  0.63418  0.86838  1.0000
  C   C262      1.0  0.08205  0.65375  0.84932  1.0000
  H   H305      1.0  0.36491  0.81040  0.88392  1.0000
  H   H306      1.0  0.05992  0.62422  0.89023  1.0000
  H   H307      1.0  0.10435  0.65887  0.85669  1.0000
  C   C263      1.0  0.47826  0.63093  0.66067  1.0000
  C   C264      1.0  0.44896  0.61679  0.64799  1.0000
  C   C265      1.0  0.43819  0.59036  0.62929  1.0000
  C   C266      1.0  0.45681  0.57817  0.62299  1.0000
  C   C267      1.0  0.48624  0.59259  0.63520  1.0000
  C   C268      1.0  0.49688  0.61879  0.65418  1.0000
  H   H308      1.0  0.43449  0.62617  0.65277  1.0000
  H   H309      1.0  0.41561  0.57958  0.61945  1.0000
  H   H310      1.0  0.50068  0.58321  0.63035  1.0000
  H   H311      1.0  0.48075  0.71370  0.61697  1.0000
  C   C269      1.0  0.24807  0.75217  0.68596  1.0000
  C   C270      1.0  0.24994  0.77888  0.69734  1.0000
  C   C271      1.0  0.26302  0.80520  0.67771  1.0000
  C   C272      1.0  0.27444  0.80515  0.64660  1.0000
  C   C273      1.0  0.27283  0.77852  0.63538  1.0000
  C   C274      1.0  0.25971  0.75222  0.65498  1.0000
  H   H312      1.0  0.24138  0.77930  0.72119  1.0000
  H   H313      1.0  0.26398  0.82564  0.68651  1.0000
  H   H314      1.0  0.28118  0.77800  0.61140  1.0000
  H   H315      1.0  0.25845  0.73168  0.64603  1.0000
  C   C275      1.0  0.27888  0.81021  0.93227  1.0000
  C   C276      1.0  0.26434  0.80619  0.90232  1.0000
  C   C277      1.0  0.25261  0.77854  0.88561  1.0000
  C   C278      1.0  0.25555  0.75484  0.89877  1.0000
  C   C279      1.0  0.27002  0.75885  0.92876  1.0000
  C   C280      1.0  0.28146  0.78635  0.94558  1.0000
  H   H316      1.0  0.26223  0.82458  0.89197  1.0000
  H   H317      1.0  0.24145  0.77563  0.86256  1.0000
  H   H318      1.0  0.27211  0.74045  0.93915  1.0000
  H   H319      1.0  0.29235  0.78908  0.96872  1.0000
  C   C281      1.0  0.45149  0.87651  0.54190  1.0000
  Fe  Fe45      1.0  0.32814  0.84502  0.50352  1.0000
  H   H320      1.0  0.37960  0.00114  0.95752  1.0000
  H   H321      1.0  0.20149  0.69976  0.95021  1.0000
  H   H322      1.0  0.47816  0.85791  0.93003  1.0000
  C   C282      1.0  0.51391  0.66845  0.50550  1.0000
  C   C283      1.0  0.39241  0.00472  0.97954  1.0000
  H   H323      1.0  0.18198  0.72027  0.90869  1.0000
  H   H324      1.0  0.03019  0.56840  0.85262  1.0000
  C   C284      1.0  0.20538  0.80546  0.63156  1.0000
  H   H325      1.0  0.44785  0.60737  0.73628  1.0000
  C   C285      1.0  0.39764  0.98749  0.51375  1.0000
  H   H326      1.0  0.08095  0.59747  0.84702  1.0000
  H   H327      1.0  0.42350  0.57298  0.69097  1.0000
  H   H328      1.0  0.45125  0.59249  0.77508  1.0000
  C   C286      1.0  0.49256  0.65194  0.56886  1.0000
  C   C287      1.0  0.09015  0.59113  0.82599  1.0000
  C   C288      1.0  0.49608  0.97275  0.96894  1.0000
  H   H329      1.0  0.51192  0.96907  0.98410  1.0000
  S   S84       1.0  0.29395  0.84542  0.95214  1.0000
  N   N16       1.0  0.37196  0.80236  0.93358  1.0000
  H   H330      1.0  0.39047  0.55281  0.71574  1.0000
  C   C289      1.0  0.41216  0.55425  0.70866  1.0000
  H   H331      1.0  0.24691  0.72327  0.56794  1.0000
  H   H332      1.0  0.39460  0.53311  0.76989  1.0000
  C   C290      1.0  0.31197  0.75957  0.72455  1.0000
  C   C291      1.0  0.08259  0.56896  0.77332  1.0000
  C   C292      1.0  0.42948  0.83394  0.93225  1.0000
  H   H333      1.0  0.10026  0.57772  0.83541  1.0000
  C   C293      1.0  0.51739  0.69074  0.52765  1.0000
  H   H334      1.0  0.43448  0.76688  0.89476  1.0000
  H   H335      1.0  0.41193  0.81695  0.51569  1.0000
  H   H336      1.0  0.34771  0.77093  0.89469  1.0000
  N   N17       1.0  0.48040  0.98568  0.98765  1.0000
  C   C294      1.0  0.51314  0.56121  0.70475  1.0000
  C   C295      1.0  0.17030  0.55033  0.91145  1.0000
  C   C296      1.0  0.48511  0.53523  0.70083  1.0000
  H   H337      1.0  0.44364  0.99395  0.97913  1.0000
  H   H338      1.0  0.50930  0.98799  0.94846  1.0000
  H   H339      1.0  0.47985  0.95023  0.95856  1.0000
  H   H340      1.0  0.52539  0.68760  0.62114  1.0000
  H   H341      1.0  0.27708  0.53504  0.66226  1.0000
  H   H342      1.0  0.21937  0.82059  0.61228  1.0000
  C   C297      1.0  0.45890  0.53473  0.71143  1.0000
  H   H343      1.0  0.15577  0.57947  0.89057  1.0000
  C   C298      1.0  0.45753  0.83693  0.92474  1.0000
  H   H344      1.0  0.48465  0.64446  0.59325  1.0000
  C   C299      1.0  0.40213  0.80652  0.92598  1.0000
  H   H345      1.0  0.38502  0.76079  0.90723  1.0000
  C   C300      1.0  0.51500  0.58674  0.71916  1.0000
  C   C301      1.0  0.35324  0.79363  0.90380  1.0000
  C   C302      1.0  0.45995  0.56040  0.72617  1.0000
  H   H346      1.0  0.49220  0.60751  0.73984  1.0000
  H   H347      1.0  0.36768  0.95741  0.99385  1.0000
  H   H348      1.0  0.46145  0.69005  0.58272  1.0000
  C   C303      1.0  0.49909  0.87967  0.52687  1.0000
  H   H349      1.0  0.29704  0.74003  0.73934  1.0000
  H   H350      1.0  0.17743  0.76536  0.92051  1.0000
  N   N18       1.0  0.43177  0.55923  0.73702  1.0000
  H   H351      1.0  0.09305  0.55528  0.78078  1.0000
  C   C304      1.0  0.50335  0.90042  0.50224  1.0000
  C   C305      1.0  0.47331  0.86793  0.54681  1.0000
  H   H352      1.0  0.47023  0.85208  0.56602  1.0000
  C   C306      1.0  0.04234  0.54574  0.81541  1.0000
  C   C307      1.0  0.23843  0.71972  0.54331  1.0000
  H   H353      1.0  0.27234  0.76404  0.52675  1.0000
  H   H354      1.0  0.06700  0.55762  0.75271  1.0000
  H   H355      1.0  0.47770  0.60608  0.55385  1.0000
  C   C308      1.0  0.19895  0.71913  0.95601  1.0000
  H   H356      1.0  0.21093  0.76860  0.61543  1.0000
  S   S85       1.0  0.36344  0.95635  0.52816  1.0000
  H   H357      1.0  0.51582  0.87296  0.53083  1.0000
  H   H358      1.0  0.41535  0.58584  0.76115  1.0000
  N   N19       1.0  0.06703  0.57404  0.80101  1.0000
  C   C309      1.0  0.25268  0.74264  0.52020  1.0000
  H   H359      1.0  0.19697  0.83860  0.65358  1.0000
  C   C310      1.0  0.20226  0.68759  0.50288  1.0000
  H   H360      1.0  0.33474  0.77521  0.96602  1.0000
  C   C311      1.0  0.37303  0.83001  0.94663  1.0000
  H   H361      1.0  0.50368  0.73468  0.54936  1.0000
  C   C312      1.0  0.45565  0.89701  0.51702  1.0000
  H   H362      1.0  0.19030  0.56879  0.92231  1.0000
  S   S86       1.0  0.37507  0.88554  0.50296  1.0000
  H   H363      1.0  0.35228  0.75557  0.94923  1.0000
  C   C313      1.0  0.12582  0.53266  0.87804  1.0000
  C   C314      1.0  0.20785  0.73308  0.98632  1.0000
  H   H364      1.0  0.43907  0.90387  0.51313  1.0000
  H   H365      1.0  0.10150  0.59075  0.76371  1.0000
  H   H366      1.0  0.03708  0.58104  0.77030  1.0000
  C   C315      1.0  0.43691  0.58748  0.75313  1.0000
  H   H367      1.0  0.04617  0.67047  0.79057  1.0000
  C   C316      1.0  0.47978  0.69587  0.60062  1.0000
  C   C317      1.0  0.21335  0.69223  0.53464  1.0000
  H   H368      1.0  0.47292  0.67591  0.61670  1.0000
  H   H369      1.0  0.38532  0.83687  0.97010  1.0000
  N   N20       1.0  0.15390  0.74726  0.71162  1.0000
  C   C318      1.0  0.16858  0.76241  0.74241  1.0000
  C   C319      1.0  0.12272  0.74215  0.71140  1.0000
  C   C320      1.0  0.15167  0.71706  0.71160  1.0000
  C   C321      1.0  0.17117  0.76664  0.68367  1.0000
  C   C322      1.0  0.18394  0.75690  0.65907  1.0000
  C   C323      1.0  0.17593  0.79651  0.68062  1.0000
  C   C324      1.0  0.20057  0.77608  0.63338  1.0000
  C   C325      1.0  0.19295  0.81561  0.65503  1.0000
  H   H370      1.0  0.40621  0.53296  0.69562  1.0000
  H   H371      1.0  0.16864  0.78401  0.74611  1.0000
  H   H372      1.0  0.15674  0.74790  0.76394  1.0000
  H   H373      1.0  0.19243  0.76760  0.74305  1.0000
  H   H374      1.0  0.12216  0.76353  0.71425  1.0000
  H   H375      1.0  0.10894  0.72695  0.73178  1.0000
  H   H376      1.0  0.11111  0.73146  0.68829  1.0000
  H   H377      1.0  0.17437  0.71915  0.71314  1.0000
  H   H378      1.0  0.13843  0.70304  0.73278  1.0000
  H   H379      1.0  0.14002  0.70384  0.68960  1.0000
  H   H380      1.0  0.18228  0.73492  0.65955  1.0000
  H   H381      1.0  0.16690  0.80549  0.69829  1.0000
  H   H382      1.0  0.42998  0.85328  0.94350  1.0000
  H   H383      1.0  0.38387  0.84931  0.92920  1.0000
  H   H384      1.0  0.32857  0.73544  0.69678  1.0000
  N   N21       1.0  0.36794  0.83571  0.66195  1.0000
  C   C326      1.0  0.40011  0.84444  0.66547  1.0000
  C   C327      1.0  0.35885  0.82647  0.62791  1.0000
  C   C328      1.0  0.36552  0.86318  0.66787  1.0000
  C   C329      1.0  0.34899  0.81007  0.68404  1.0000
  C   C330      1.0  0.34802  0.78187  0.68055  1.0000
  C   C331      1.0  0.33088  0.81198  0.70913  1.0000
  C   C332      1.0  0.32960  0.75700  0.70040  1.0000
  C   C333      1.0  0.31287  0.78706  0.72912  1.0000
  H   H385      1.0  0.26212  0.54808  0.71285  1.0000
  H   H386      1.0  0.40432  0.82578  0.65871  1.0000
  H   H387      1.0  0.41495  0.86389  0.64921  1.0000
  H   H388      1.0  0.40784  0.85106  0.69089  1.0000
  H   H389      1.0  0.36300  0.80811  0.61984  1.0000
  H   H390      1.0  0.37179  0.84562  0.61084  1.0000
  H   H391      1.0  0.33456  0.81870  0.62439  1.0000
  H   H392      1.0  0.37310  0.87226  0.69269  1.0000
  H   H393      1.0  0.37978  0.88187  0.65060  1.0000
  H   H394      1.0  0.34196  0.85843  0.66434  1.0000
  H   H395      1.0  0.36117  0.77871  0.66205  1.0000
  H   H396      1.0  0.32961  0.83220  0.71337  1.0000
  C   C334      1.0  0.45928  0.81286  0.91126  1.0000
  C   C335      1.0  0.48886  0.62980  0.54649  1.0000
  C   C336      1.0  0.41526  0.53376  0.76025  1.0000
  H   H397      1.0  0.10897  0.61267  0.81597  1.0000
  C   C337      1.0  0.16479  0.52076  0.91431  1.0000
  C   C338      1.0  0.18556  0.75617  0.93913  1.0000
  H   H398      1.0  0.19225  0.79012  0.97324  1.0000
  C   C339      1.0  0.18794  0.73069  0.93246  1.0000
  S   S87       1.0  0.23229  0.54226  0.86709  1.0000
  H   H399      1.0  0.37102  0.78315  0.98041  1.0000
  C   C340      1.0  0.48893  0.58662  0.72956  1.0000
  H   H400      1.0  0.11224  0.53910  0.86387  1.0000
  H   H401      1.0  0.07268  0.61487  0.77821  1.0000
  H   H402      1.0  0.20246  0.67438  0.55268  1.0000
  C   C341      1.0  0.19427  0.77025  0.96937  1.0000
  C   C342      1.0  0.15079  0.55625  0.89352  1.0000
  C   C343      1.0  0.45693  0.98538  0.96624  1.0000
  H   H403      1.0  0.46692  0.99941  0.94401  1.0000
  H   H404      1.0  0.44026  0.96205  0.95819  1.0000
  S   S88       1.0  0.52129  0.90016  0.98104  1.0000
  C   C344      1.0  0.20594  0.75931  0.99386  1.0000
  C   C345      1.0  0.49947  0.63804  0.51483  1.0000
  H   H405      1.0  0.42982  0.53555  0.78110  1.0000
  C   C346      1.0  0.50619  0.68300  0.55998  1.0000
  H   H406      1.0  0.51940  0.62933  0.66401  1.0000
  C   C347      1.0  0.40293  0.01714  0.51812  1.0000
  H   H407      1.0  0.51866  0.75225  0.58735  1.0000
  N   N22       1.0  0.50913  0.70586  0.58404  1.0000
  H   H408      1.0  0.04413  0.59948  0.80862  1.0000
  C   C348      1.0  0.02759  0.62717  0.85934  1.0000
  C   C349      1.0  0.05473  0.59314  0.78897  1.0000
  C   C350      1.0  0.51888  0.73611  0.56939  1.0000
  C   C351      1.0  0.25289  0.52442  0.70655  1.0000
  C   C352      1.0  0.48534  0.87760  0.99847  1.0000
  H   H409      1.0  0.61694  0.04411  0.04827  1.0000
  C   C353      1.0  0.68147  0.19310  0.47456  1.0000
  C   C354      1.0  0.54475  0.07408  0.02446  1.0000
  C   C355      1.0  0.98923  0.30739  0.46515  1.0000
  Fe  Fe46      1.0  0.75589  0.18187  0.06718  1.0000
  S   S89       1.0  0.77363  0.15090  0.05351  1.0000
  S   S90       1.0  0.76596  0.21170  0.11231  1.0000
  H   H410      1.0  0.54289  0.30669  0.04953  1.0000
  C   C356      1.0  0.75179  0.51504  0.49180  1.0000
  Fe  Fe47      1.0  0.72607  0.11739  0.03765  1.0000
  S   S91       1.0  0.69611  0.06734  0.05108  1.0000
  S   S92       1.0  0.76384  0.20385  0.01779  1.0000
  S   S93       1.0  0.70777  0.14690  0.05535  1.0000
  S   S94       1.0  0.67859  0.50481  0.19341  1.0000
  S   S95       1.0  0.59271  0.36691  0.15822  1.0000
  S   S96       1.0  0.86850  0.47288  0.36288  1.0000
  Fe  Fe48      1.0  0.89393  0.30879  0.24842  1.0000
  S   S97       1.0  0.90471  0.29501  0.29638  1.0000
  S   S98       1.0  0.87898  0.27316  0.20829  1.0000
  Fe  Fe49      1.0  0.91428  0.37284  0.27347  1.0000
  S   S99       1.0  0.92603  0.36359  0.32302  1.0000
  S   S100      1.0  0.92304  0.41988  0.26135  1.0000
  Fe  Fe50      1.0  0.94732  0.34070  0.29638  1.0000
  S   S101      1.0  0.99185  0.34308  0.30844  1.0000
  Fe  Fe51      1.0  0.88270  0.31906  0.31879  1.0000
  S   S102      1.0  0.84845  0.30223  0.35968  1.0000
  S   S103      1.0  0.93841  0.35268  0.24669  1.0000
  S   S104      1.0  0.86910  0.33020  0.27104  1.0000
  H   H411      1.0  0.82805  0.45416  0.29081  1.0000
  H   H412      1.0  0.78740  0.51049  0.46915  1.0000
  H   H413      1.0  0.00417  0.39716  0.34566  1.0000
  C   C357      1.0  0.90702  0.43459  0.28852  1.0000
  C   C358      1.0  0.88723  0.41622  0.31290  1.0000
  C   C359      1.0  0.87556  0.42842  0.33527  1.0000
  C   C360      1.0  0.88360  0.45905  0.33356  1.0000
  C   C361      1.0  0.90295  0.47741  0.30881  1.0000
  C   C362      1.0  0.91468  0.46516  0.28634  1.0000
  H   H414      1.0  0.88107  0.39261  0.31467  1.0000
  H   H415      1.0  0.86040  0.41404  0.35421  1.0000
  H   H416      1.0  0.90884  0.50091  0.30690  1.0000
  H   H417      1.0  0.92994  0.47941  0.26742  1.0000
  C   C363      1.0  0.65655  0.46618  0.18390  1.0000
  C   C364      1.0  0.63492  0.44667  0.20649  1.0000
  C   C365      1.0  0.61551  0.41604  0.19904  1.0000
  C   C366      1.0  0.61784  0.40471  0.16902  1.0000
  C   C367      1.0  0.63993  0.42405  0.14668  1.0000
  C   C368      1.0  0.65918  0.45481  0.15401  1.0000
  H   H418      1.0  0.63299  0.45537  0.22974  1.0000
  H   H419      1.0  0.59887  0.40122  0.21657  1.0000
  H   H420      1.0  0.64184  0.41535  0.12342  1.0000
  H   H421      1.0  0.67580  0.46976  0.13647  1.0000
  C   C369      1.0  0.82638  0.22359  0.42967  1.0000
  C   C370      1.0  0.81388  0.24219  0.43421  1.0000
  C   C371      1.0  0.82045  0.26583  0.41214  1.0000
  C   C372      1.0  0.83947  0.27103  0.38538  1.0000
  C   C373      1.0  0.85152  0.25205  0.38042  1.0000
  C   C374      1.0  0.84511  0.22851  0.40263  1.0000
  H   H422      1.0  0.79944  0.23858  0.45497  1.0000
  H   H423      1.0  0.81103  0.28043  0.41611  1.0000
  H   H424      1.0  0.86588  0.25557  0.35969  1.0000
  H   H425      1.0  0.85474  0.21407  0.39899  1.0000
  C   C375      1.0  0.84715  0.25634  0.18214  1.0000
  C   C376      1.0  0.82432  0.26379  0.18326  1.0000
  C   C377      1.0  0.79972  0.24993  0.16169  1.0000
  C   C378      1.0  0.79758  0.22847  0.13881  1.0000
  C   C379      1.0  0.82014  0.22065  0.13815  1.0000
  C   C380      1.0  0.84481  0.23462  0.15954  1.0000
  H   H426      1.0  0.82574  0.28044  0.20043  1.0000
  H   H427      1.0  0.78224  0.25594  0.16267  1.0000
  H   H428      1.0  0.81829  0.20341  0.12161  1.0000
  H   H429      1.0  0.86220  0.22849  0.15867  1.0000
  C   C381      1.0  0.83653  0.49860  0.01527  1.0000
  C   C382      1.0  0.68685  0.03550  0.02612  1.0000
  H   H430      1.0  0.61674  0.20929  0.35870  1.0000
  H   H431      1.0  0.58394  0.20029  0.07580  1.0000
  C   C383      1.0  0.74666  0.49595  0.25897  1.0000
  H   H432      1.0  0.81377  0.47030  0.33869  1.0000
  H   H433      1.0  0.93381  0.31795  0.11823  1.0000
  H   H434      1.0  0.82241  0.26646  0.03028  1.0000
  C   C384      1.0  0.57166  0.43475  0.14378  1.0000
  C   C385      1.0  0.85170  0.28614  0.08867  1.0000
  H   H435      1.0  0.76310  0.47199  0.03948  1.0000
  H   H436      1.0  0.60783  0.23839  0.08896  1.0000
  S   S105      1.0  0.52965  0.29886  0.30210  1.0000
  C   C386      1.0  0.53519  0.03450  0.49143  1.0000
  H   H437      1.0  0.56045  0.09610  0.03443  1.0000
  H   H438      1.0  0.99233  0.34748  0.38427  1.0000
  H   H439      1.0  0.59059  0.26439  0.12101  1.0000
  N   N23       1.0  0.80975  0.21982  0.28071  1.0000
  C   C387      1.0  0.83706  0.21669  0.28223  1.0000
  C   C388      1.0  0.82009  0.25268  0.28029  1.0000
  C   C389      1.0  0.79201  0.20624  0.31082  1.0000
  C   C390      1.0  0.79072  0.20526  0.25191  1.0000
  C   C391      1.0  0.79819  0.19003  0.22794  1.0000
  C   C392      1.0  0.76389  0.20646  0.24695  1.0000
  C   C393      1.0  0.77976  0.17682  0.20093  1.0000
  C   C394      1.0  0.74587  0.19351  0.21962  1.0000
  C   C395      1.0  0.75380  0.17872  0.19666  1.0000
  H   H440      1.0  0.85222  0.22779  0.26095  1.0000
  H   H441      1.0  0.85080  0.22778  0.30417  1.0000
  H   H442      1.0  0.83106  0.19248  0.28332  1.0000
  H   H443      1.0  0.83274  0.26346  0.25749  1.0000
  H   H444      1.0  0.83516  0.26460  0.30111  1.0000
  H   H445      1.0  0.80122  0.25745  0.28201  1.0000
  H   H446      1.0  0.78286  0.18130  0.31153  1.0000
  H   H447      1.0  0.80595  0.21607  0.33298  1.0000
  H   H448      1.0  0.77271  0.21030  0.31325  1.0000
  H   H449      1.0  0.81853  0.18866  0.22893  1.0000
  H   H450      1.0  0.75695  0.21793  0.26391  1.0000
  H   H451      1.0  0.78622  0.16599  0.18248  1.0000
  H   H452      1.0  0.72594  0.19539  0.21581  1.0000
  H   H453      1.0  0.74031  0.16949  0.17496  1.0000
  S   S106      1.0  0.81977  0.19455  0.45760  1.0000
  Fe  Fe52      1.0  0.55009  0.33980  0.18762  1.0000
  H   H454      1.0  0.60481  0.24343  0.38618  1.0000
  C   C396      1.0  0.56788  0.25857  0.07414  1.0000
  S   S107      1.0  0.53592  0.35388  0.23254  1.0000
  H   H455      1.0  0.56166  0.40964  0.14459  1.0000
  H   H456      1.0  0.91733  0.28713  0.06970  1.0000
  C   C397      1.0  0.76430  0.48943  0.27975  1.0000
  C   C398      1.0  0.00836  0.51331  0.33437  1.0000
  C   C399      1.0  0.80456  0.48065  0.01622  1.0000
  H   H457      1.0  0.85807  0.29192  0.01130  1.0000
  C   C400      1.0  0.90113  0.29153  0.08158  1.0000
  C   C401      1.0  0.58016  0.27273  0.10437  1.0000
  H   H458      1.0  0.57868  0.25331  0.36944  1.0000
  H   H459      1.0  0.65982  0.16355  0.03575  1.0000
  H   H460      1.0  0.82833  0.21085  0.03484  1.0000
  H   H461      1.0  0.56474  0.05116  0.04873  1.0000
  C   C402      1.0  0.58403  0.23756  0.03108  1.0000
  C   C403      1.0  0.79257  0.49326  0.26943  1.0000
  C   C404      1.0  0.53687  0.20604  0.05920  1.0000
  H   H462      1.0  0.84842  0.21966  0.07237  1.0000
  H   H463      1.0  0.98092  0.43956  0.31307  1.0000
  H   H464      1.0  0.61494  0.26614  0.35012  1.0000
  N   N24       1.0  0.93620  0.32175  0.41218  1.0000
  C   C405      1.0  0.90927  0.30587  0.43365  1.0000
  C   C406      1.0  0.94287  0.35350  0.40821  1.0000
  C   C407      1.0  0.92806  0.30676  0.38009  1.0000
  C   C408      1.0  0.96317  0.32153  0.42470  1.0000
  C   C409      1.0  0.02494  0.37280  0.32634  1.0000
  H   H465      1.0  0.54369  0.26153  0.03188  1.0000
  C   C410      1.0  0.63310  0.18823  0.45996  1.0000
  S   S108      1.0  0.60724  0.18530  0.43005  1.0000
  C   C411      1.0  0.52710  0.26577  0.35615  1.0000
  H   H466      1.0  0.91362  0.31622  0.45819  1.0000
  H   H467      1.0  0.88965  0.30709  0.42379  1.0000
  H   H468      1.0  0.90162  0.28127  0.43612  1.0000
  H   H469      1.0  0.95067  0.36611  0.43145  1.0000
  H   H470      1.0  0.92259  0.35447  0.40012  1.0000
  H   H471      1.0  0.96062  0.36617  0.38960  1.0000
  H   H472      1.0  0.90794  0.30670  0.36992  1.0000
  H   H473      1.0  0.94636  0.31836  0.36176  1.0000
  H   H474      1.0  0.92297  0.28285  0.38186  1.0000
  S   S109      1.0  0.56074  0.15388  0.02097  1.0000
  H   H475      1.0  0.75531  0.48162  0.30378  1.0000
  H   H476      1.0  0.93992  0.43307  0.34965  1.0000
  H   H477      1.0  0.82694  0.46831  0.25148  1.0000
  C   C412      1.0  0.55416  0.43473  0.19822  1.0000
  H   H478      1.0  0.64535  0.06339  0.48484  1.0000
  C   C413      1.0  0.99075  0.33640  0.40713  1.0000
  C   C414      1.0  0.96023  0.48065  0.36048  1.0000
  C   C415      1.0  0.80177  0.50757  0.06315  1.0000
  H   H479      1.0  0.89897  0.32893  0.14895  1.0000
  C   C416      1.0  0.55436  0.27158  0.05471  1.0000
  S   S110      1.0  0.54603  0.20730  0.45514  1.0000
  H   H480      1.0  0.56478  0.33042  0.10223  1.0000
  H   H481      1.0  0.82808  0.27639  0.08273  1.0000
  H   H482      1.0  0.58163  0.26992  0.31611  1.0000
  H   H483      1.0  0.53932  0.19812  0.36712  1.0000
  N   N25       1.0  0.81145  0.48568  0.29032  1.0000
  H   H484      1.0  0.61415  0.11554  0.47323  1.0000
  C   C417      1.0  0.84185  0.51262  0.29419  1.0000
  C   C418      1.0  0.78427  0.51091  0.21687  1.0000
  H   H485      1.0  0.94307  0.29438  0.46890  1.0000
  C   C419      1.0  0.98249  0.45909  0.32538  1.0000
  C   C420      1.0  0.61601  0.15913  0.02886  1.0000
  C   C421      1.0  0.89148  0.31581  0.12679  1.0000
  Fe  Fe53      1.0  0.77896  0.17120  0.00324  1.0000
  C   C422      1.0  0.57108  0.24954  0.30172  1.0000
  H   H486      1.0  0.78843  0.51171  0.08071  1.0000
  H   H487      1.0  0.66449  0.26170  0.43729  1.0000
  C   C423      1.0  0.56947  0.47845  0.16317  1.0000
  C   C424      1.0  0.02464  0.39597  0.34422  1.0000
  H   H488      1.0  0.85356  0.45687  0.01737  1.0000
  H   H489      1.0  0.79241  0.44077  0.27072  1.0000
  C   C425      1.0  0.60615  0.21135  0.33589  1.0000
  C   C426      1.0  0.55358  0.29736  0.06467  1.0000
  H   H490      1.0  0.66479  0.10335  0.48167  1.0000
  H   H491      1.0  0.59723  0.18932  0.32319  1.0000
  H   H492      1.0  0.84664  0.30886  0.13016  1.0000
  N   N26       1.0  0.58223  0.21888  0.34280  1.0000
  C   C427      1.0  0.59577  0.24677  0.36288  1.0000
  C   C428      1.0  0.55847  0.19415  0.36275  1.0000
  C   C429      1.0  0.56915  0.22193  0.31194  1.0000
  C   C430      1.0  0.80199  0.50427  0.23732  1.0000
  C   C431      1.0  0.54713  0.04877  0.03241  1.0000
  C   C432      1.0  0.58382  0.22068  0.08543  1.0000
  H   H493      1.0  0.58545  0.21770  0.02216  1.0000
  Fe  Fe54      1.0  0.71745  0.16626  0.00501  1.0000
  C   C433      1.0  0.91102  0.30943  0.10949  1.0000
  S   S111      1.0  0.53599  0.29337  0.20706  1.0000
  C   C434      1.0  0.64392  0.16323  0.01832  1.0000
  H   H494      1.0  0.56723  0.19235  0.38681  1.0000
  H   H495      1.0  0.54259  0.40955  0.20007  1.0000
  H   H496      1.0  0.89581  0.51106  0.01660  1.0000
  H   H497      1.0  0.95332  0.51330  0.40962  1.0000
  H   H498      1.0  0.56466  0.08184  0.49246  1.0000
  C   C435      1.0  0.96307  0.30673  0.45409  1.0000
  C   C436      1.0  0.84310  0.26813  0.01955  1.0000
  N   N27       1.0  0.56831  0.23123  0.06290  1.0000
  C   C437      1.0  0.65998  0.18912  0.45095  1.0000
  H   H499      1.0  0.61050  0.15616  0.05447  1.0000
  C   C438      1.0  0.64719  0.26585  0.48357  1.0000
  H   H500      1.0  0.81778  0.22690  0.06712  1.0000
  H   H501      1.0  0.90021  0.27892  0.01421  1.0000
  H   H502      1.0  0.57219  0.21392  0.10941  1.0000
  H   H503      1.0  0.62424  0.22909  0.32037  1.0000
  C   C439      1.0  0.57898  0.29838  0.11420  1.0000
  C   C440      1.0  0.87101  0.27927  0.07032  1.0000
  C   C441      1.0  0.00695  0.48795  0.31959  1.0000
  H   H504      1.0  0.55956  0.27264  0.26555  1.0000
  C   C442      1.0  0.54307  0.22618  0.25276  1.0000
  H   H505      1.0  0.57227  0.24291  0.01181  1.0000
  H   H506      1.0  0.57715  0.44332  0.20813  1.0000
  C   C443      1.0  0.77094  0.51781  0.46608  1.0000
  C   C444      1.0  0.79880  0.47531  0.32345  1.0000
  Fe  Fe55      1.0  0.56140  0.17334  0.44992  1.0000
  C   C445      1.0  0.59536  0.15907  0.00650  1.0000
  H   H507      1.0  0.79643  0.49313  0.33653  1.0000
  C   C446      1.0  0.86200  0.30447  0.11619  1.0000
  C   C447      1.0  0.75657  0.50658  0.22761  1.0000
  H   H508      1.0  0.66440  0.18715  0.42565  1.0000
  C   C448      1.0  0.64187  0.08291  0.48009  1.0000
  N   N28       1.0  0.85906  0.25837  0.04239  1.0000
  C   C449      1.0  0.59975  0.49656  0.17369  1.0000
  C   C450      1.0  0.83746  0.22766  0.05473  1.0000
  C   C451      1.0  0.98503  0.51036  0.35559  1.0000
  H   H509      1.0  0.57238  0.44174  0.11803  1.0000
  C   C452      1.0  0.62760  0.19086  0.49267  1.0000
  H   H510      1.0  0.77655  0.45407  0.32276  1.0000
  C   C453      1.0  0.56575  0.31065  0.09439  1.0000
  H   H511      1.0  0.60744  0.25707  0.03273  1.0000
  H   H512      1.0  0.87304  0.24137  0.00182  1.0000
  H   H513      1.0  0.70245  0.19442  0.46742  1.0000
  H   H514      1.0  0.94070  0.47667  0.37452  1.0000
  C   C454      1.0  0.55398  0.19671  0.29089  1.0000
  H   H515      1.0  0.54916  0.17152  0.35138  1.0000
  C   C455      1.0  0.55488  0.49411  0.15140  1.0000
  H   H516      1.0  0.71138  0.26670  0.46002  1.0000
  H   H517      1.0  0.53258  0.22776  0.23056  1.0000
  C   C456      1.0  0.95935  0.45546  0.34601  1.0000
  C   C457      1.0  0.66878  0.26539  0.46308  1.0000
  C   C458      1.0  0.01677  0.33708  0.41841  1.0000
  H   H518      1.0  0.65659  0.08666  0.02908  1.0000
  H   H519      1.0  0.54475  0.28722  0.36533  1.0000
  H   H520      1.0  0.85653  0.50734  0.30954  1.0000
  H   H521      1.0  0.52896  0.17915  0.24652  1.0000
  H   H522      1.0  0.61249  0.48643  0.18278  1.0000
  H   H523      1.0  0.59541  0.44445  0.15170  1.0000
  C   C459      1.0  0.78753  0.48524  0.03975  1.0000
  S   S112      1.0  0.73592  0.15814  0.49047  1.0000
  C   C460      1.0  0.81482  0.46118  0.27513  1.0000
  H   H524      1.0  0.63384  0.08113  0.45469  1.0000
  H   H525      1.0  0.58827  0.30889  0.13741  1.0000
  H   H526      1.0  0.74291  0.51191  0.21182  1.0000
  H   H527      1.0  0.67131  0.50848  0.48449  1.0000
  C   C461      1.0  0.01603  0.32263  0.44741  1.0000
  H   H528      1.0  0.62350  0.09092  0.02810  1.0000
  C   C462      1.0  0.56379  0.06026  0.49426  1.0000
  H   H529      1.0  0.89361  0.24598  0.03793  1.0000
  H   H530      1.0  0.65645  0.11533  0.00494  1.0000
  C   C463      1.0  0.55833  0.25148  0.27248  1.0000
  C   C464      1.0  0.69518  0.26811  0.47582  1.0000
  C   C465      1.0  0.88270  0.25628  0.02343  1.0000
  H   H531      1.0  0.62686  0.26262  0.47213  1.0000
  H   H532      1.0  0.54191  0.44225  0.21462  1.0000
  N   N29       1.0  0.55460  0.44492  0.16434  1.0000
  H   H533      1.0  0.55172  0.17501  0.29692  1.0000
  H   H534      1.0  0.82329  0.50809  0.22778  1.0000
  H   H535      1.0  0.53192  0.48242  0.14282  1.0000
  C   C466      1.0  0.54099  0.19884  0.26188  1.0000
  C   C467      1.0  0.64195  0.09152  0.01325  1.0000
  H   H536      1.0  0.72522  0.49302  0.26718  1.0000
  H   H537      1.0  0.73606  0.06193  0.49717  1.0000
  H   H538      1.0  0.53588  0.18440  0.05280  1.0000
  C   C468      1.0  0.70416  0.03739  0.99895  1.0000
  C   C469      1.0  0.60649  0.02852  0.02844  1.0000
  H   H539      1.0  0.98871  0.29596  0.48759  1.0000
  S   S113      1.0  0.54294  0.15039  0.49757  1.0000
  C   C470      1.0  0.62172  0.11384  0.49808  1.0000
  H   H540      1.0  0.02452  0.49071  0.30289  1.0000
  H   H541      1.0  0.53259  0.43510  0.71286  1.0000
  Fe  Fe56      1.0  0.73604  0.18724  0.53122  1.0000
  H   H542      1.0  0.80806  0.25575  0.73409  1.0000
  H   H543      1.0  0.67112  0.09803  0.95840  1.0000
  Fe  Fe57      1.0  0.78054  0.17799  0.57309  1.0000
  S   S114      1.0  0.78372  0.14779  0.53519  1.0000
  S   S115      1.0  0.79895  0.18068  0.62451  1.0000
  H   H544      1.0  0.64511  0.13324  0.50072  1.0000
  H   H545      1.0  0.73398  0.04126  0.56922  1.0000
  Fe  Fe58      1.0  0.73349  0.12589  0.52929  1.0000
  S   S116      1.0  0.69517  0.07684  0.53279  1.0000
  S   S117      1.0  0.78660  0.21420  0.53725  1.0000
  S   S118      1.0  0.73010  0.15357  0.56953  1.0000
  S   S119      1.0  0.64890  0.49175  0.61656  1.0000
  S   S120      1.0  0.59127  0.37335  0.70480  1.0000
  S   S121      1.0  0.86949  0.47203  0.87716  1.0000
  Fe  Fe59      1.0  0.90281  0.31399  0.75590  1.0000
  S   S122      1.0  0.90994  0.28761  0.79538  1.0000
  S   S123      1.0  0.88642  0.30137  0.70337  1.0000
  Fe  Fe60      1.0  0.92764  0.37146  0.79919  1.0000
  S   S124      1.0  0.93656  0.34942  0.84166  1.0000
  S   S125      1.0  0.93976  0.42062  0.79632  1.0000
  Fe  Fe61      1.0  0.95479  0.33041  0.80435  1.0000
  S   S126      1.0  0.00033  0.33243  0.80252  1.0000
  Fe  Fe62      1.0  0.89132  0.30885  0.82955  1.0000
  S   S127      1.0  0.85093  0.28684  0.86369  1.0000
  S   S128      1.0  0.94867  0.35522  0.76263  1.0000
  S   S129      1.0  0.88171  0.33273  0.78924  1.0000
  C   C471      1.0  0.65127  0.16725  0.98531  1.0000
  N   N30       1.0  0.62898  0.26903  0.54031  1.0000
  C   C472      1.0  0.57053  0.31188  0.83681  1.0000
  C   C473      1.0  0.91953  0.43405  0.81882  1.0000
  C   C474      1.0  0.92511  0.46353  0.81288  1.0000
  C   C475      1.0  0.91016  0.47543  0.83092  1.0000
  C   C476      1.0  0.88919  0.45781  0.85482  1.0000
  C   C477      1.0  0.88353  0.42824  0.86079  1.0000
  C   C478      1.0  0.89879  0.41642  0.84296  1.0000
  H   H546      1.0  0.94123  0.47735  0.79436  1.0000
  H   H547      1.0  0.91469  0.49816  0.82604  1.0000
  H   H548      1.0  0.86763  0.41465  0.87955  1.0000
  H   H549      1.0  0.89490  0.39392  0.84812  1.0000
  C   C479      1.0  0.63302  0.45883  0.64100  1.0000
  C   C480      1.0  0.64834  0.45696  0.66815  1.0000
  C   C481      1.0  0.63536  0.43060  0.68746  1.0000
  C   C482      1.0  0.60681  0.40611  0.68004  1.0000
  C   C483      1.0  0.59144  0.40799  0.65289  1.0000
  C   C484      1.0  0.60460  0.43422  0.63330  1.0000
  H   H550      1.0  0.67033  0.47575  0.67422  1.0000
  H   H551      1.0  0.64747  0.42927  0.70829  1.0000
  H   H552      1.0  0.56974  0.38899  0.64656  1.0000
  H   H553      1.0  0.59277  0.43542  0.61214  1.0000
  C   C485      1.0  0.82958  0.21460  0.94234  1.0000
  C   C486      1.0  0.80934  0.22467  0.93534  1.0000
  C   C487      1.0  0.81633  0.24679  0.91117  1.0000
  C   C488      1.0  0.84350  0.25896  0.89361  1.0000
  C   C489      1.0  0.86380  0.24889  0.90051  1.0000
  C   C490      1.0  0.85685  0.22680  0.92487  1.0000
  H   H554      1.0  0.78818  0.21531  0.94839  1.0000
  H   H555      1.0  0.80047  0.25437  0.90594  1.0000
  H   H556      1.0  0.88481  0.25814  0.88715  1.0000
  H   H557      1.0  0.87262  0.21911  0.93014  1.0000
  C   C491      1.0  0.86061  0.26748  0.68282  1.0000
  C   C492      1.0  0.84730  0.23888  0.69767  1.0000
  C   C493      1.0  0.82839  0.21259  0.67958  1.0000
  C   C494      1.0  0.82220  0.21456  0.64661  1.0000
  C   C495      1.0  0.83519  0.24321  0.63199  1.0000
  C   C496      1.0  0.85438  0.26941  0.64994  1.0000
  H   H558      1.0  0.85176  0.23700  0.72297  1.0000
  H   H559      1.0  0.81844  0.19058  0.69120  1.0000
  H   H560      1.0  0.83074  0.24518  0.60670  1.0000
  H   H561      1.0  0.86456  0.29137  0.63814  1.0000
  C   C497      1.0  0.55815  0.34962  0.81431  1.0000
  H   H562      1.0  0.59183  0.07632  0.97787  1.0000
  C   C498      1.0  0.56099  0.26895  0.88628  1.0000
  S   S130      1.0  0.70381  0.20501  0.53703  1.0000
  H   H563      1.0  0.00504  0.35588  0.86834  1.0000
  H   H564      1.0  0.60030  0.02056  0.94602  1.0000
  C   C499      1.0  0.60261  0.16297  0.97348  1.0000
  H   H565      1.0  0.65586  0.31704  0.54848  1.0000
  C   C500      1.0  0.60402  0.27045  0.52358  1.0000
  C   C501      1.0  0.94004  0.23839  0.79622  1.0000
  S   S131      1.0  0.73324  0.13511  0.98662  1.0000
  C   C502      1.0  0.88716  0.51361  0.99275  1.0000
  H   H566      1.0  0.58028  0.30663  0.77284  1.0000
  S   S132      1.0  0.82178  0.18756  0.97342  1.0000
  H   H567      1.0  0.79306  0.24296  0.79177  1.0000
  C   C503      1.0  0.71638  0.51261  0.54673  1.0000
  H   H568      1.0  0.65957  0.29413  0.57942  1.0000
  H   H569      1.0  0.52951  0.42801  0.62317  1.0000
  H   H570      1.0  0.82068  0.48196  0.95234  1.0000
  H   H571      1.0  0.53337  0.33333  0.81363  1.0000
  H   H572      1.0  0.74837  0.09167  0.57205  1.0000
  H   H573      1.0  0.63283  0.06388  0.54201  1.0000
  N   N31       1.0  0.85401  0.49316  0.99012  1.0000
  C   C504      1.0  0.69077  0.04298  0.51564  1.0000
  C   C505      1.0  0.64344  0.29545  0.56246  1.0000
  H   H574      1.0  0.53734  0.41386  0.65974  1.0000
  N   N32       1.0  0.95309  0.27083  0.71048  1.0000
  C   C506      1.0  0.93411  0.26156  0.68084  1.0000
  C   C507      1.0  0.96081  0.30228  0.71814  1.0000
  C   C508      1.0  0.98128  0.27060  0.70260  1.0000
  C   C509      1.0  0.93805  0.25111  0.73900  1.0000
  C   C510      1.0  0.90734  0.22750  0.73880  1.0000
  C   C511      1.0  0.95393  0.25596  0.76861  1.0000
  H   H575      1.0  0.97556  0.47204  0.85405  1.0000
  H   H576      1.0  0.57794  0.45854  0.67645  1.0000
  H   H577      1.0  0.86150  0.45700  0.97468  1.0000
  H   H578      1.0  0.94023  0.30310  0.72501  1.0000
  H   H579      1.0  0.56373  0.36250  0.83741  1.0000
  H   H580      1.0  0.58788  0.27132  0.54115  1.0000
  C   C512      1.0  0.53763  0.50273  0.64292  1.0000
  H   H581      1.0  0.95255  0.24320  0.81873  1.0000
  C   C513      1.0  0.99429  0.49240  0.84367  1.0000
  H   H582      1.0  0.55453  0.24901  0.60256  1.0000
  H   H583      1.0  0.82398  0.44462  0.98789  1.0000
  H   H584      1.0  0.60369  0.22042  0.54431  1.0000
  H   H585      1.0  0.57756  0.47804  0.64039  1.0000
  C   C514      1.0  0.90994  0.21551  0.79525  1.0000
  H   H586      1.0  0.79201  0.50914  0.76360  1.0000
  H   H587      1.0  0.79241  0.46324  0.99843  1.0000
  H   H588      1.0  0.68298  0.27252  0.55560  1.0000
  N   N33       1.0  0.73577  0.07784  0.62172  1.0000
  C   C515      1.0  0.71885  0.09438  0.62409  1.0000
  C   C516      1.0  0.75182  0.08134  0.65273  1.0000
  C   C517      1.0  0.75899  0.09289  0.59595  1.0000
  C   C518      1.0  0.71459  0.04530  0.61543  1.0000
  H   H589      1.0  0.67564  0.47837  0.50138  1.0000
  H   H590      1.0  0.91351  0.26339  0.68434  1.0000
  H   H591      1.0  0.68747  0.03789  0.65909  1.0000
  H   H592      1.0  0.53332  0.21244  0.80742  1.0000
  H   H593      1.0  0.89908  0.20236  0.81692  1.0000
  H   H594      1.0  0.70298  0.08677  0.64498  1.0000
  H   H595      1.0  0.73430  0.11924  0.62728  1.0000
  C   C519      1.0  0.54531  0.28472  0.88706  1.0000
  H   H596      1.0  0.76417  0.06853  0.65226  1.0000
  H   H597      1.0  0.73622  0.07311  0.67391  1.0000
  H   H598      1.0  0.76860  0.10563  0.65754  1.0000
  H   H599      1.0  0.77361  0.08261  0.59363  1.0000
  H   H600      1.0  0.61263  0.29083  0.50768  1.0000
  H   H601      1.0  0.77429  0.11744  0.60110  1.0000
  H   H602      1.0  0.62275  0.34778  0.80254  1.0000
  H   H603      1.0  0.99845  0.28099  0.72207  1.0000
  H   H604      1.0  0.89322  0.22237  0.71767  1.0000
  C   C520      1.0  0.84490  0.49770  0.95739  1.0000
  C   C521      1.0  0.65641  0.07407  0.96647  1.0000
  N   N34       1.0  0.57570  0.33380  0.81037  1.0000
  C   C522      1.0  0.56697  0.31772  0.77891  1.0000
  S   S133      1.0  0.68570  0.17163  0.97105  1.0000
  H   H605      1.0  0.64518  0.19818  0.54131  1.0000
  C   C523      1.0  0.53115  0.24137  0.59719  1.0000
  C   C524      1.0  0.58617  0.29542  0.83686  1.0000
  Fe  Fe63      1.0  0.54104  0.34131  0.70215  1.0000
  C   C525      1.0  0.58130  0.27421  0.86119  1.0000
  C   C526      1.0  0.61113  0.03813  0.99540  1.0000
  H   H606      1.0  0.60545  0.06741  0.94166  1.0000
  S   S134      1.0  0.52847  0.19624  0.96656  1.0000
  C   C527      1.0  0.69061  0.02786  0.63745  1.0000
  H   H607      1.0  0.60177  0.29828  0.81764  1.0000
  H   H608      1.0  0.61247  0.37466  0.78959  1.0000
  C   C528      1.0  0.61557  0.24081  0.55999  1.0000
  H   H609      1.0  0.60784  0.11771  0.51619  1.0000
  H   H610      1.0  0.85779  0.49401  0.93787  1.0000
  H   H611      1.0  0.62591  0.10441  0.95841  1.0000
  H   H612      1.0  0.99223  0.28387  0.68017  1.0000
  H   H613      1.0  0.67056  0.06765  0.98125  1.0000
  H   H614      1.0  0.72368  0.05887  0.99244  1.0000
  C   C529      1.0  0.71687  0.03000  0.58768  1.0000
  N   N35       1.0  0.81233  0.34066  0.81573  1.0000
  C   C530      1.0  0.82788  0.34047  0.84610  1.0000
  C   C531      1.0  0.82908  0.37201  0.80228  1.0000
  C   C532      1.0  0.78139  0.33374  0.82409  1.0000
  C   C533      1.0  0.81041  0.31741  0.79276  1.0000
  C   C534      1.0  0.81771  0.32359  0.75917  1.0000
  C   C535      1.0  0.80039  0.28730  0.80352  1.0000
  C   C536      1.0  0.81682  0.30146  0.73843  1.0000
  C   C537      1.0  0.79960  0.26540  0.78256  1.0000
  C   C538      1.0  0.80802  0.27253  0.75015  1.0000
  H   H615      1.0  0.85015  0.34258  0.84076  1.0000
  H   H616      1.0  0.83197  0.35942  0.86252  1.0000
  H   H617      1.0  0.81486  0.31944  0.86073  1.0000
  H   H618      1.0  0.85226  0.37794  0.79433  1.0000
  H   H619      1.0  0.83182  0.38929  0.82053  1.0000
  H   H620      1.0  0.81713  0.37520  0.78148  1.0000
  H   H621      1.0  0.76821  0.31110  0.83596  1.0000
  H   H622      1.0  0.78164  0.35080  0.84112  1.0000
  H   H623      1.0  0.76883  0.33351  0.80196  1.0000
  H   H624      1.0  0.82532  0.34562  0.74850  1.0000
  H   H625      1.0  0.79384  0.28051  0.82845  1.0000
  H   H626      1.0  0.82391  0.30696  0.71328  1.0000
  H   H627      1.0  0.63278  0.23844  0.57406  1.0000
  H   H628      1.0  0.54277  0.29992  0.77913  1.0000
  H   H629      1.0  0.53589  0.31617  0.86417  1.0000
  H   H630      1.0  0.97682  0.31191  0.73873  1.0000
  H   H631      1.0  0.94614  0.27651  0.65973  1.0000
  H   H632      1.0  0.72002  0.27181  0.51910  1.0000
  H   H633      1.0  0.71281  0.48925  0.54509  1.0000
  H   H634      1.0  0.59852  0.23977  0.57760  1.0000
  H   H635      1.0  0.56297  0.36628  0.79433  1.0000
  C   C539      1.0  0.65164  0.26925  0.51772  1.0000
  N   N36       1.0  0.63010  0.07030  0.98546  1.0000
  H   H636      1.0  0.53245  0.47046  0.71347  1.0000
  C   C540      1.0  0.89365  0.21006  0.76661  1.0000
  H   H637      1.0  0.59011  0.24979  0.50886  1.0000
  N   N37       1.0  0.53479  0.45473  0.66571  1.0000
  H   H638      1.0  0.97702  0.27408  0.77103  1.0000
  C   C541      1.0  0.63055  0.16708  0.96293  1.0000
  H   H639      1.0  0.61542  0.08509  0.55517  1.0000
  H   H640      1.0  0.57032  0.33345  0.75848  1.0000
  C   C542      1.0  0.84796  0.46154  0.99270  1.0000
  H   H641      1.0  0.60407  0.02400  0.50574  1.0000
  C   C543      1.0  0.70009  0.27117  0.50914  1.0000
  S   S135      1.0  0.53808  0.20888  0.54864  1.0000
  C   C544      1.0  0.67864  0.27153  0.52987  1.0000
  H   H642      1.0  0.66250  0.49829  0.52640  1.0000
  H   H643      1.0  0.61589  0.36933  0.83235  1.0000
  C   C545      1.0  0.64920  0.19529  0.51615  1.0000
  H   H644      1.0  0.89966  0.50874  0.97377  1.0000
  H   H645      1.0  0.97666  0.24701  0.69897  1.0000
  H   H646      1.0  0.75454  0.50540  0.51400  1.0000
  H   H647      1.0  0.52867  0.27965  0.90600  1.0000
  C   C546      1.0  0.63105  0.08437  0.53685  1.0000
  C   C547      1.0  0.54972  0.30575  0.86266  1.0000
  H   H648      1.0  0.56135  0.51649  0.64827  1.0000
  H   H649      1.0  0.63615  0.17015  0.93734  1.0000
  H   H650      1.0  0.58676  0.16288  0.95609  1.0000
  H   H651      1.0  0.57769  0.49292  0.68034  1.0000
  H   H652      1.0  0.55643  0.25165  0.90441  1.0000
  C   C548      1.0  0.60809  0.35735  0.80876  1.0000
  C   C549      1.0  0.61247  0.07984  0.96497  1.0000
  H   H653      1.0  0.59257  0.26100  0.86016  1.0000
  H   H654      1.0  0.97132  0.31793  0.69714  1.0000
  H   H655      1.0  0.87007  0.19257  0.76611  1.0000
  H   H656      1.0  0.64973  0.05993  0.94427  1.0000
  H   H657      1.0  0.92719  0.23793  0.67372  1.0000
  H   H658      1.0  0.62651  0.29704  0.57813  1.0000
  H   H659      1.0  0.70543  0.09120  0.60171  1.0000
  H   H660      1.0  0.65396  0.10425  0.54103  1.0000
  C   C550      1.0  0.56836  0.47195  0.66555  1.0000
  C   C551      1.0  0.01006  0.49029  0.81718  1.0000
  C   C552      1.0  0.71431  0.04159  0.49994  1.0000
  C   C553      1.0  0.67629  0.19671  0.50717  1.0000
  H   H661      1.0  0.00317  0.46814  0.80700  1.0000
  H   H662      1.0  0.83528  0.25354  0.99754  1.0000
  C   C554      1.0  0.67853  0.50113  0.50647  1.0000
  H   H663      1.0  0.70104  0.51179  0.56648  1.0000
  H   H664      1.0  0.60720  0.19062  0.49974  1.0000
  C   C555      1.0  0.58990  0.05768  0.49934  1.0000
  C   C556      1.0  0.58543  0.02785  0.50147  1.0000
  N   N38       1.0  0.62045  0.08435  0.50340  1.0000
  Fe  Fe64      1.0  0.78617  0.18236  0.49896  1.0000
  H   H665      1.0  0.73358  0.89285  0.04544  1.0000
  C   C557      1.0  0.64114  0.85235  0.29938  1.0000
  Fe  Fe65      1.0  0.58502  0.85613  0.43949  1.0000
  H   H666      1.0  0.85395  0.52145  0.27078  1.0000
  S   S136      1.0  0.57312  0.83413  0.38930  1.0000
  H   H667      1.0  0.68575  0.90161  0.09041  1.0000
  S   S137      1.0  0.57376  0.80086  0.02094  1.0000
  C   C558      1.0  0.65973  0.83972  0.30094  1.0000
  H   H668      1.0  0.54107  0.59906  0.16628  1.0000
  Fe  Fe66      1.0  0.56406  0.89342  0.47975  1.0000
  S   S138      1.0  0.59852  0.90544  0.44049  1.0000
  Fe  Fe67      1.0  0.78241  0.58150  0.16105  1.0000
  H   H669      1.0  0.66201  0.92931  0.03911  1.0000
  S   S139      1.0  0.82702  0.59496  0.18514  1.0000
  Fe  Fe68      1.0  0.73939  0.60293  0.13707  1.0000
  S   S140      1.0  0.70863  0.55811  0.11355  1.0000
  S   S141      1.0  0.73387  0.64470  0.13567  1.0000
  C   C559      1.0  0.82595  0.64523  0.30037  1.0000
  Fe  Fe69      1.0  0.75133  0.55946  0.09590  1.0000
  S   S142      1.0  0.75570  0.54478  0.04463  1.0000
  S   S143      1.0  0.74324  0.58263  0.18384  1.0000
  S   S144      1.0  0.78156  0.60593  0.11582  1.0000
  Fe  Fe70      1.0  0.55729  0.69392  0.21118  1.0000
  S   S145      1.0  0.59009  0.70203  0.17086  1.0000
  Fe  Fe71      1.0  0.60615  0.73634  0.25907  1.0000
  S   S146      1.0  0.64309  0.74676  0.22257  1.0000
  S   S147      1.0  0.61798  0.75555  0.31066  1.0000
  Fe  Fe72      1.0  0.61210  0.75097  0.18654  1.0000
  S   S148      1.0  0.62821  0.79432  0.15715  1.0000
  Fe  Fe73      1.0  0.61834  0.69696  0.20979  1.0000
  S   S149      1.0  0.63187  0.66021  0.20855  1.0000
  S   S150      1.0  0.57674  0.74308  0.22383  1.0000
  S   S151      1.0  0.58381  0.68627  0.24933  1.0000
  Fe  Fe74      1.0  0.86669  0.57087  0.36246  1.0000
  H   H670      1.0  0.71503  0.92321  0.38092  1.0000
  S   S152      1.0  0.83093  0.57710  0.33713  1.0000
  Fe  Fe75      1.0  0.92921  0.58745  0.38612  1.0000
  S   S153      1.0  0.91103  0.54527  0.41692  1.0000
  S   S154      1.0  0.97983  0.61968  0.39133  1.0000
  H   H671      1.0  0.86627  0.60385  0.02882  1.0000
  Fe  Fe76      1.0  0.87443  0.55484  0.43234  1.0000
  H   H672      1.0  0.63436  0.95982  0.02225  1.0000
  S   S155      1.0  0.90289  0.56285  0.34150  1.0000
  S   S156      1.0  0.89446  0.59890  0.40479  1.0000
  H   H673      1.0  0.53056  0.70068  0.15096  1.0000
  H   H674      1.0  0.57812  0.62131  0.24575  1.0000
  H   H675      1.0  0.97960  0.60795  0.32144  1.0000
  H   H676      1.0  0.64835  0.00555  0.05545  1.0000
  H   H677      1.0  0.70424  0.94130  0.35053  1.0000
  H   H678      1.0  0.67636  0.88049  0.41298  1.0000
  H   H679      1.0  0.69914  0.87377  0.36858  1.0000
  S   S157      1.0  0.53533  0.91548  0.47679  1.0000
  C   C560      1.0  0.81802  0.57861  0.03601  1.0000
  H   H680      1.0  0.78031  0.68264  0.17952  1.0000
  H   H681      1.0  0.96686  0.54521  0.32699  1.0000
  H   H682      1.0  0.83363  0.72278  0.22412  1.0000
  H   H683      1.0  0.81884  0.58872  0.05929  1.0000
  C   C561      1.0  0.82747  0.58851  0.22717  1.0000
  C   C562      1.0  0.80196  0.57987  0.24651  1.0000
  C   C563      1.0  0.80315  0.57568  0.28007  1.0000
  C   C564      1.0  0.82985  0.58023  0.29456  1.0000
  C   C565      1.0  0.85527  0.58838  0.27519  1.0000
  C   C566      1.0  0.85408  0.59260  0.24158  1.0000
  H   H684      1.0  0.78137  0.57666  0.23570  1.0000
  H   H685      1.0  0.62188  0.89674  0.37114  1.0000
  H   H686      1.0  0.87604  0.59221  0.28619  1.0000
  H   H687      1.0  0.87392  0.59939  0.22672  1.0000
  C   C567      1.0  0.70500  0.64837  0.15566  1.0000
  C   C568      1.0  0.70377  0.67517  0.15141  1.0000
  C   C569      1.0  0.68154  0.67922  0.16720  1.0000
  C   C570      1.0  0.66031  0.65650  0.18760  1.0000
  C   C571      1.0  0.66153  0.62968  0.19183  1.0000
  C   C572      1.0  0.68368  0.62559  0.17596  1.0000
  H   H688      1.0  0.72010  0.69291  0.13573  1.0000
  H   H689      1.0  0.68091  0.69994  0.16367  1.0000
  H   H690      1.0  0.64535  0.61202  0.20767  1.0000
  H   H691      1.0  0.68438  0.60491  0.17955  1.0000
  C   C573      1.0  0.59003  0.80019  0.05845  1.0000
  C   C574      1.0  0.60144  0.82462  0.07987  1.0000
  C   C575      1.0  0.61334  0.82263  0.10995  1.0000
  C   C576      1.0  0.61334  0.79602  0.11908  1.0000
  C   C577      1.0  0.60212  0.77170  0.09755  1.0000
  C   C578      1.0  0.59055  0.77381  0.06735  1.0000
  H   H692      1.0  0.60054  0.84475  0.07350  1.0000
  H   H693      1.0  0.62211  0.84157  0.12650  1.0000
  H   H694      1.0  0.60275  0.75142  0.10402  1.0000
  H   H695      1.0  0.58186  0.75485  0.05081  1.0000
  C   C579      1.0  0.58527  0.81147  0.36845  1.0000
  C   C580      1.0  0.57408  0.80097  0.33712  1.0000
  C   C581      1.0  0.58346  0.78350  0.31928  1.0000
  C   C582      1.0  0.60429  0.77636  0.33255  1.0000
  C   C583      1.0  0.61529  0.78666  0.36400  1.0000
  C   C584      1.0  0.60584  0.80405  0.38190  1.0000
  H   H696      1.0  0.55815  0.80650  0.32645  1.0000
  H   H697      1.0  0.57479  0.77578  0.29516  1.0000
  H   H698      1.0  0.63136  0.78125  0.37451  1.0000
  H   H699      1.0  0.61446  0.81161  0.40604  1.0000
  H   H700      1.0  0.01491  0.58410  0.38154  1.0000
  C   C585      1.0  0.79860  0.64384  0.29393  1.0000
  H   H701      1.0  0.78087  0.63458  0.31213  1.0000
  C   C586      1.0  0.68052  0.84776  0.32596  1.0000
  H   H702      1.0  0.54368  0.77649  0.13044  1.0000
  H   H703      1.0  0.66154  0.90371  0.42621  1.0000
  C   C587      1.0  0.64306  0.87293  0.32295  1.0000
  C   C588      1.0  0.65381  0.98129  0.01562  1.0000
  H   H704      1.0  0.57555  0.59999  0.17664  1.0000
  H   H705      1.0  0.84014  0.66356  0.17956  1.0000
  C   C589      1.0  0.97704  0.53145  0.40534  1.0000
  H   H706      1.0  0.64987  0.92762  0.34645  1.0000
  C   C590      1.0  0.68291  0.86859  0.34946  1.0000
  C   C591      1.0  0.66172  0.00730  0.03435  1.0000
  C   C592      1.0  0.00875  0.63134  0.36160  1.0000
  H   H707      1.0  0.63726  0.86798  0.40686  1.0000
  S   S158      1.0  0.58722  0.88732  0.00929  1.0000
  C   C593      1.0  0.81651  0.66539  0.23947  1.0000
  C   C594      1.0  0.70021  0.91863  0.07170  1.0000
  C   C595      1.0  0.65954  0.85144  0.02341  1.0000
  H   H708      1.0  0.64864  0.93164  0.38943  1.0000
  H   H709      1.0  0.62434  0.84518  0.28040  1.0000
  H   H710      1.0  0.70037  0.94016  0.07689  1.0000
  C   C596      1.0  0.84395  0.66608  0.24676  1.0000
  H   H711      1.0  0.61144  0.56744  0.15931  1.0000
  H   H712      1.0  0.63797  0.54136  0.17989  1.0000
  H   H713      1.0  0.87432  0.53703  0.03999  1.0000
  H   H714      1.0  0.81139  0.66546  0.15691  1.0000
  H   H715      1.0  0.86932  0.65613  0.28151  1.0000
  C   C597      1.0  0.53760  0.72162  0.13644  1.0000
  H   H716      1.0  0.56838  0.62910  0.19040  1.0000
  C   C598      1.0  0.81676  0.65957  0.18112  1.0000
  C   C599      1.0  0.00268  0.62179  0.32932  1.0000
  H   H717      1.0  0.77191  0.65158  0.26049  1.0000
  H   H718      1.0  0.82935  0.63685  0.32331  1.0000
  C   C600      1.0  0.79376  0.65370  0.26397  1.0000
  H   H719      1.0  0.54578  0.71837  0.11257  1.0000
  H   H720      1.0  0.85889  0.71316  0.20415  1.0000
  H   H721      1.0  0.86195  0.67381  0.22907  1.0000
  C   C601      1.0  0.71207  0.87393  0.03844  1.0000
  H   H722      1.0  0.76404  0.64957  0.20439  1.0000
  H   H723      1.0  0.83277  0.71869  0.18067  1.0000
  N   N39       1.0  0.68891  0.90740  0.03857  1.0000
  H   H724      1.0  0.69429  0.83714  0.32748  1.0000
  H   H725      1.0  0.63898  0.85177  0.01869  1.0000
  C   C602      1.0  0.78241  0.67374  0.20353  1.0000
  C   C603      1.0  0.53167  0.00560  0.49345  1.0000
  S   S159      1.0  0.67681  0.95172  0.47798  1.0000
  H   H726      1.0  0.96211  0.56209  0.36305  1.0000
  C   C604      1.0  0.65970  0.90663  0.03509  1.0000
  C   C605      1.0  0.53588  0.53345  0.22493  1.0000
  H   H727      1.0  0.74816  0.55065  0.40979  1.0000
  H   H728      1.0  0.73331  0.93309  0.01678  1.0000
  C   C606      1.0  0.55760  0.60425  0.18601  1.0000
  H   H729      1.0  0.53114  0.61884  0.23323  1.0000
  N   N40       1.0  0.98504  0.53685  0.37029  1.0000
  S   S160      1.0  0.85646  0.54257  0.48431  1.0000
  C   C607      1.0  0.59969  0.54286  0.16063  1.0000
  H   H730      1.0  0.56277  0.95211  0.01951  1.0000
  H   H731      1.0  0.64261  0.89062  0.05271  1.0000
  H   H732      1.0  0.77788  0.68676  0.22210  1.0000
  H   H733      1.0  0.78341  0.56938  0.29492  1.0000
  H   H734      1.0  0.71173  0.95199  0.01657  1.0000
  H   H735      1.0  0.72372  0.92358  0.07534  1.0000
  S   S161      1.0  0.75467  0.53502  0.14003  1.0000
  C   C608      1.0  0.55675  0.00227  0.49837  1.0000
  H   H736      1.0  0.70044  0.94685  0.39312  1.0000
  N   N41       1.0  0.81260  0.67669  0.20771  1.0000
  H   H737      1.0  0.58640  0.59306  0.23265  1.0000
  C   C609      1.0  0.71012  0.92941  0.01436  1.0000
  C   C610      1.0  0.84850  0.65616  0.27677  1.0000
  N   N42       1.0  0.54355  0.58647  0.21602  1.0000
  C   C611      1.0  0.96228  0.54177  0.35356  1.0000
  S   S162      1.0  0.84462  0.52776  0.39143  1.0000
  S   S163      1.0  0.54762  0.84374  0.47569  1.0000
  S   S164      1.0  0.61906  0.86138  0.47740  1.0000
  Fe  Fe77      1.0  0.62979  0.91027  0.48078  1.0000
  C   C612      1.0  0.83549  0.70924  0.20403  1.0000
  H   H738      1.0  0.80185  0.63481  0.18481  1.0000
  H   H739      1.0  0.62714  0.88085  0.32083  1.0000
  N   N43       1.0  0.66688  0.90343  0.37428  1.0000
  C   C613      1.0  0.64588  0.91533  0.36994  1.0000
  C   C614      1.0  0.66029  0.88825  0.40643  1.0000
  C   C615      1.0  0.69800  0.92979  0.37465  1.0000
  C   C616      1.0  0.66421  0.88181  0.34874  1.0000
  Fe  Fe78      1.0  0.71502  0.53779  0.15934  1.0000
  C   C617      1.0  0.84490  0.58717  0.01862  1.0000
  H   H740      1.0  0.65726  0.82283  0.28334  1.0000
  H   H741      1.0  0.55715  0.74037  0.14926  1.0000
  H   H742      1.0  0.55386  0.54118  0.24243  1.0000
  C   C618      1.0  0.58886  0.99787  0.03687  1.0000
  H   H743      1.0  0.71345  0.54508  0.45361  1.0000
  H   H744      1.0  0.81787  0.63703  0.00056  1.0000
  H   H745      1.0  0.99213  0.52522  0.41850  1.0000
  C   C619      1.0  0.79022  0.55677  0.02340  1.0000
  C   C620      1.0  0.01471  0.56526  0.36773  1.0000
  C   C621      1.0  0.56763  0.59655  0.24086  1.0000
  H   H746      1.0  0.84391  0.54364  0.08057  1.0000
  H   H747      1.0  0.55868  0.58485  0.26453  1.0000
  H   H748      1.0  0.58617  0.99097  0.06215  1.0000
  C   C622      1.0  0.61459  0.52821  0.17226  1.0000
  Fe  Fe79      1.0  0.88252  0.52159  0.37379  1.0000
  H   H749      1.0  0.72988  0.84346  0.03886  1.0000
  H   H750      1.0  0.97881  0.55195  0.41718  1.0000
  H   H751      1.0  0.76338  0.59996  0.00389  1.0000
  H   H752      1.0  0.53538  0.75854  0.09207  1.0000
  C   C623      1.0  0.83381  0.58125  0.49521  1.0000
  C   C624      1.0  0.72938  0.53749  0.45809  1.0000
  C   C625      1.0  0.74895  0.54054  0.43271  1.0000
  C   C626      1.0  0.68324  0.82060  0.02515  1.0000
  C   C627      1.0  0.52844  0.55361  0.20889  1.0000
  H   H753      1.0  0.63697  0.80388  0.01197  1.0000
  H   H754      1.0  0.02177  0.62318  0.28207  1.0000
  C   C628      1.0  0.68658  0.87752  0.03356  1.0000
  H   H755      1.0  0.84035  0.53140  0.30599  1.0000
  H   H756      1.0  0.02033  0.57365  0.34223  1.0000
  H   H757      1.0  0.52923  0.64722  0.15212  1.0000
  H   H758      1.0  0.68175  0.79874  0.02237  1.0000
  C   C629      1.0  0.65804  0.82350  0.01936  1.0000
  C   C630      1.0  0.71027  0.84580  0.03450  1.0000
  H   H759      1.0  0.55834  0.53733  0.14122  1.0000
  C   C631      1.0  0.57572  0.97592  0.01289  1.0000
  H   H760      1.0  0.93906  0.52221  0.35692  1.0000
  C   C632      1.0  0.73061  0.52522  0.48870  1.0000
  H   H761      1.0  0.72820  0.01258  0.47652  1.0000
  C   C633      1.0  0.70979  0.01359  0.48824  1.0000
  C   C634      1.0  0.68165  0.98690  0.49173  1.0000
  H   H762      1.0  0.65071  0.90006  0.01011  1.0000
  H   H763      1.0  0.84469  0.59246  0.47272  1.0000
  C   C635      1.0  0.76984  0.53092  0.43680  1.0000
  C   C636      1.0  0.85032  0.52145  0.03933  1.0000
  C   C637      1.0  0.83306  0.52557  0.06297  1.0000
  C   C638      1.0  0.56987  0.52585  0.15033  1.0000
  H   H764      1.0  0.78540  0.53382  0.41734  1.0000
  H   H765      1.0  0.52901  0.00125  0.02716  1.0000
  H   H766      1.0  0.79232  0.52010  0.19276  1.0000
  Fe  Fe80      1.0  0.55166  0.88033  0.97284  1.0000
  C   C639      1.0  0.86682  0.58571  0.62074  1.0000
  Fe  Fe81      1.0  0.57614  0.85470  0.92077  1.0000
  S   S165      1.0  0.61436  0.86118  0.95276  1.0000
  S   S166      1.0  0.56559  0.83668  0.86885  1.0000
  C   C640      1.0  0.85652  0.56557  0.67719  1.0000
  S   S167      1.0  0.56393  0.81957  0.55647  1.0000
  Fe  Fe82      1.0  0.61910  0.90627  0.96678  1.0000
  H   H767      1.0  0.73693  0.57063  0.52547  1.0000
  C   C641      1.0  0.53162  0.70944  0.60878  1.0000
  S   S168      1.0  0.58399  0.90149  0.93123  1.0000
  Fe  Fe83      1.0  0.74633  0.54937  0.68065  1.0000
  H   H768      1.0  0.65153  0.98449  0.64863  1.0000
  H   H769      1.0  0.54580  0.80287  0.80959  1.0000
  Fe  Fe84      1.0  0.72450  0.59335  0.66234  1.0000
  S   S169      1.0  0.71309  0.57530  0.61168  1.0000
  S   S170      1.0  0.72154  0.63453  0.67826  1.0000
  H   H770      1.0  0.53661  0.54184  0.62414  1.0000
  Fe  Fe85      1.0  0.75690  0.57509  0.61180  1.0000
  S   S171      1.0  0.78704  0.59432  0.56716  1.0000
  S   S172      1.0  0.70151  0.54727  0.68612  1.0000
  S   S173      1.0  0.77033  0.59699  0.66092  1.0000
  C   C642      1.0  0.83580  0.55627  0.50599  1.0000
  S   S174      1.0  0.57460  0.68732  0.66575  1.0000
  Fe  Fe86      1.0  0.58588  0.72196  0.75181  1.0000
  S   S175      1.0  0.62430  0.72436  0.72226  1.0000
  S   S176      1.0  0.59715  0.74261  0.80237  1.0000
  Fe  Fe87      1.0  0.60319  0.73568  0.68071  1.0000
  S   S177      1.0  0.63248  0.77034  0.64290  1.0000
  Fe  Fe88      1.0  0.59257  0.67556  0.70975  1.0000
  S   S178      1.0  0.59880  0.63452  0.70402  1.0000
  S   S179      1.0  0.56699  0.73648  0.71083  1.0000
  S   S180      1.0  0.55572  0.67195  0.74273  1.0000
  Fe  Fe89      1.0  0.89012  0.57862  0.84603  1.0000
  S   S181      1.0  0.85794  0.54304  0.88106  1.0000
  S   S182      1.0  0.87530  0.60228  0.80993  1.0000
  Fe  Fe90      1.0  0.94650  0.58382  0.87758  1.0000
  S   S183      1.0  0.91834  0.54939  0.91573  1.0000
  S   S184      1.0  0.99674  0.60044  0.88312  1.0000
  H   H771      1.0  0.57009  0.96711  0.96183  1.0000
  Fe  Fe91      1.0  0.89060  0.57220  0.91936  1.0000
  S   S185      1.0  0.87934  0.58507  0.96848  1.0000
  S   S186      1.0  0.91746  0.55586  0.83612  1.0000
  S   S187      1.0  0.92151  0.60918  0.88481  1.0000
  H   H772      1.0  0.69974  0.55271  0.54289  1.0000
  H   H773      1.0  0.88106  0.57661  0.68255  1.0000
  H   H774      1.0  0.00150  0.63530  0.82405  1.0000
  C   C643      1.0  0.80435  0.57817  0.54348  1.0000
  H   H775      1.0  0.59995  0.86500  0.80553  1.0000
  C   C644      1.0  0.81656  0.55257  0.97557  1.0000
  Fe  Fe92      1.0  0.69335  0.52942  0.63520  1.0000
  C   C645      1.0  0.88185  0.56918  0.61412  1.0000
  C   C646      1.0  0.80551  0.55259  0.55378  1.0000
  C   C647      1.0  0.88090  0.60723  0.56573  1.0000
  H   H776      1.0  0.83596  0.53751  0.79995  1.0000
  H   H777      1.0  0.85373  0.66118  0.89710  1.0000
  C   C648      1.0  0.59721  0.01512  0.97161  1.0000
  C   C649      1.0  0.79391  0.54914  0.74341  1.0000
  C   C650      1.0  0.80909  0.58082  0.74379  1.0000
  C   C651      1.0  0.83412  0.59686  0.76421  1.0000
  C   C652      1.0  0.84395  0.58134  0.78453  1.0000
  C   C653      1.0  0.82858  0.54967  0.78438  1.0000
  C   C654      1.0  0.89525  0.59064  0.55994  1.0000
  H   H778      1.0  0.80152  0.59293  0.72840  1.0000
  C   C655      1.0  0.76062  0.58517  0.95454  1.0000
  H   H779      1.0  0.63930  0.89385  0.84586  1.0000
  H   H780      1.0  0.73984  0.52829  0.55496  1.0000
  C   C656      1.0  0.68717  0.63375  0.68621  1.0000
  C   C657      1.0  0.68801  0.65997  0.69820  1.0000
  C   C658      1.0  0.66119  0.66043  0.70444  1.0000
  C   C659      1.0  0.63323  0.63473  0.69830  1.0000
  C   C660      1.0  0.63237  0.60848  0.68643  1.0000
  C   C661      1.0  0.65920  0.60796  0.68037  1.0000
  H   H781      1.0  0.70958  0.67991  0.70304  1.0000
  H   H782      1.0  0.66219  0.68056  0.71426  1.0000
  H   H783      1.0  0.61085  0.58845  0.68178  1.0000
  H   H784      1.0  0.65829  0.58765  0.67121  1.0000
  C   C662      1.0  0.58558  0.80946  0.58121  1.0000
  C   C663      1.0  0.61267  0.81193  0.57051  1.0000
  C   C664      1.0  0.62736  0.80041  0.58985  1.0000
  C   C665      1.0  0.61484  0.78617  0.61969  1.0000
  C   C666      1.0  0.58819  0.78442  0.63060  1.0000
  C   C667      1.0  0.57377  0.79620  0.61156  1.0000
  H   H785      1.0  0.62193  0.82211  0.54712  1.0000
  H   H786      1.0  0.64815  0.80207  0.58138  1.0000
  H   H787      1.0  0.57870  0.77413  0.65380  1.0000
  H   H788      1.0  0.55317  0.79482  0.62028  1.0000
  C   C668      1.0  0.57322  0.80919  0.85169  1.0000
  C   C669      1.0  0.56072  0.79655  0.82135  1.0000
  C   C670      1.0  0.56752  0.77594  0.80602  1.0000
  C   C671      1.0  0.58698  0.76777  0.82089  1.0000
  C   C672      1.0  0.59932  0.78027  0.85127  1.0000
  C   C673      1.0  0.59249  0.80083  0.86662  1.0000
  H   H789      1.0  0.76828  0.52720  0.98296  1.0000
  H   H790      1.0  0.55762  0.76634  0.78280  1.0000
  H   H791      1.0  0.61432  0.77405  0.86306  1.0000
  H   H792      1.0  0.60236  0.81043  0.88986  1.0000
  C   C674      1.0  0.57508  0.66919  0.57451  1.0000
  H   H793      1.0  0.81750  0.61200  0.50579  1.0000
  H   H794      1.0  0.84491  0.56464  0.70045  1.0000
  H   H795      1.0  0.70236  0.92146  0.98915  1.0000
  H   H796      1.0  0.63633  0.96827  0.50987  1.0000
  N   N44       1.0  0.65730  0.82696  0.75658  1.0000
  C   C675      1.0  0.68132  0.84685  0.73335  1.0000
  C   C676      1.0  0.66690  0.80758  0.77396  1.0000
  C   C677      1.0  0.65231  0.84595  0.78015  1.0000
  C   C678      1.0  0.62536  0.84751  0.78111  1.0000
  C   C679      1.0  0.67499  0.86384  0.80301  1.0000
  C   C680      1.0  0.62117  0.86507  0.80429  1.0000
  C   C681      1.0  0.67036  0.88100  0.82634  1.0000
  C   C682      1.0  0.64336  0.88135  0.82716  1.0000
  H   H797      1.0  0.68551  0.83337  0.71495  1.0000
  H   H798      1.0  0.70311  0.86168  0.74570  1.0000
  H   H799      1.0  0.69023  0.82060  0.78345  1.0000
  H   H800      1.0  0.65179  0.79590  0.79506  1.0000
  H   H801      1.0  0.60669  0.83467  0.76499  1.0000
  H   H802      1.0  0.69627  0.86425  0.80339  1.0000
  C   C683      1.0  0.57987  0.98450  0.98034  1.0000
  H   H803      1.0  0.68755  0.89373  0.84425  1.0000
  C   C684      1.0  0.67161  0.98299  0.98900  1.0000
  C   C685      1.0  0.66995  0.99725  0.63175  1.0000
  H   H804      1.0  0.90646  0.55837  0.57909  1.0000
  H   H805      1.0  0.54246  0.74716  0.55999  1.0000
  H   H806      1.0  0.86761  0.62468  0.91735  1.0000
  C   C686      1.0  0.69621  0.99935  0.58234  1.0000
  H   H807      1.0  0.89352  0.53783  0.98936  1.0000
  C   C687      1.0  0.67269  0.98307  0.60417  1.0000
  H   H808      1.0  0.65644  0.95947  0.59947  1.0000
  H   H809      1.0  0.52884  0.71385  0.51880  1.0000
  H   H810      1.0  0.86356  0.60824  0.87840  1.0000
  Fe  Fe93      1.0  0.57931  0.84178  0.99257  1.0000
  H   H811      1.0  0.98899  0.52241  0.87608  1.0000
  C   C688      1.0  0.77552  0.60299  0.98127  1.0000
  N   N45       1.0  0.71014  0.52297  0.51544  1.0000
  C   C689      1.0  0.81832  0.59223  0.51400  1.0000
  H   H812      1.0  0.81959  0.64877  0.87452  1.0000
  H   H813      1.0  0.56450  0.67753  0.55787  1.0000
  H   H814      1.0  0.85006  0.62477  0.64967  1.0000
  C   C690      1.0  0.69679  0.01117  0.98079  1.0000
  C   C691      1.0  0.55808  0.64038  0.58816  1.0000
  C   C692      1.0  0.82141  0.54189  0.53525  1.0000
  H   H815      1.0  0.73681  0.56855  0.95655  1.0000
  H   H816      1.0  0.76342  0.57330  0.90612  1.0000
  N   N46       1.0  0.85034  0.58230  0.65150  1.0000
  S   S188      1.0  0.59608  0.90131  0.52036  1.0000
  C   C693      1.0  0.89575  0.57168  0.58406  1.0000
  H   H817      1.0  0.67496  0.86189  0.72005  1.0000
  H   H818      1.0  0.78876  0.59448  0.85865  1.0000
  H   H819      1.0  0.63418  0.79203  0.72058  1.0000
  H   H820      1.0  0.88338  0.62707  0.66717  1.0000
  H   H821      1.0  0.84838  0.61064  0.68931  1.0000
  H   H822      1.0  0.55388  0.97966  0.49989  1.0000
  H   H823      1.0  0.82154  0.59408  0.84495  1.0000
  H   H824      1.0  0.79820  0.56707  0.87486  1.0000
  H   H825      1.0  0.84611  0.64320  0.95061  1.0000
  N   N47       1.0  0.65194  0.69603  0.61414  1.0000
  C   C694      1.0  0.65253  0.70633  0.64779  1.0000
  C   C695      1.0  0.66795  0.67842  0.61318  1.0000
  C   C696      1.0  0.66925  0.72342  0.59343  1.0000
  C   C697      1.0  0.62007  0.67695  0.60406  1.0000
  C   C698      1.0  0.60557  0.68747  0.58249  1.0000
  C   C699      1.0  0.60192  0.64754  0.61758  1.0000
  H   H826      1.0  0.55806  0.60758  0.62109  1.0000
  C   C700      1.0  0.57145  0.62966  0.60977  1.0000
  H   H827      1.0  0.81561  0.54239  0.95235  1.0000
  H   H828      1.0  0.63894  0.68704  0.66445  1.0000
  H   H829      1.0  0.67586  0.71894  0.65760  1.0000
  H   H830      1.0  0.64274  0.72142  0.64924  1.0000
  H   H831      1.0  0.65985  0.66041  0.63213  1.0000
  H   H832      1.0  0.69254  0.69288  0.61803  1.0000
  H   H833      1.0  0.66536  0.66750  0.58915  1.0000
  H   H834      1.0  0.66085  0.73972  0.59605  1.0000
  H   H835      1.0  0.69347  0.73639  0.60046  1.0000
  H   H836      1.0  0.66832  0.71722  0.56742  1.0000
  H   H837      1.0  0.61718  0.70985  0.57178  1.0000
  H   H838      1.0  0.61085  0.63839  0.63517  1.0000
  C   C701      1.0  0.85849  0.61251  0.66484  1.0000
  S   S189      1.0  0.54064  0.83317  0.95969  1.0000
  H   H839      1.0  0.84584  0.62138  0.76439  1.0000
  C   C702      1.0  0.63002  0.80660  0.73746  1.0000
  C   C703      1.0  0.65807  0.98853  0.50695  1.0000
  C   C704      1.0  0.86654  0.60459  0.59545  1.0000
  H   H840      1.0  0.87969  0.62118  0.54649  1.0000
  H   H841      1.0  0.85088  0.64686  0.85700  1.0000
  H   H842      1.0  0.85416  0.61654  0.59783  1.0000
  C   C705      1.0  0.71296  0.55303  0.52124  1.0000
  H   H843      1.0  0.82287  0.52255  0.54376  1.0000
  Fe  Fe94      1.0  0.58240  0.85218  0.51379  1.0000
  C   C706      1.0  0.80625  0.62384  0.97935  1.0000
  C   C707      1.0  0.81756  0.56542  0.64488  1.0000
  H   H844      1.0  0.84250  0.58500  0.91250  1.0000
  H   H845      1.0  0.62256  0.81949  0.72190  1.0000
  C   C708      1.0  0.02389  0.64048  0.83124  1.0000
  H   H846      1.0  0.66629  0.78961  0.75814  1.0000
  H   H847      1.0  0.80418  0.56243  0.66729  1.0000
  H   H848      1.0  0.61106  0.79108  0.75370  1.0000
  N   N48       1.0  0.82543  0.61256  0.89306  1.0000
  C   C709      1.0  0.85082  0.60744  0.90066  1.0000
  C   C710      1.0  0.80750  0.59104  0.86691  1.0000
  C   C711      1.0  0.83792  0.64371  0.87991  1.0000
  C   C712      1.0  0.80782  0.60907  0.92296  1.0000
  C   C713      1.0  0.82222  0.62699  0.95067  1.0000
  C   C714      1.0  0.77636  0.58806  0.92570  1.0000
  C   C715      1.0  0.84442  0.57409  0.98845  1.0000
  H   H849      1.0  0.90516  0.59174  0.53629  1.0000
  H   H850      1.0  0.71080  0.01272  0.96034  1.0000
  S   S190      1.0  0.66453  0.95019  0.96689  1.0000
  H   H851      1.0  0.88271  0.55374  0.63147  1.0000
  H   H852      1.0  0.81032  0.54242  0.63523  1.0000
  H   H853      1.0  0.81099  0.57728  0.62674  1.0000
  H   H854      1.0  0.69806  0.98830  0.56069  1.0000
  C   C716      1.0  0.02557  0.54700  0.84229  1.0000
  H   H855      1.0  0.53440  0.62637  0.58234  1.0000
  H   H856      1.0  0.53361  0.72549  0.62818  1.0000
  C   C717      1.0  0.80370  0.53366  0.76379  1.0000
  Fe  Fe95      1.0  0.53997  0.68668  0.69927  1.0000
  H   H857      1.0  0.53687  0.60693  0.72208  1.0000
  C   C718      1.0  0.66272  0.01632  0.51908  1.0000
  H   H858      1.0  0.70467  0.56090  0.50066  1.0000
  H   H859      1.0  0.79480  0.54144  0.57630  1.0000
  S   S191      1.0  0.76333  0.52804  0.71715  1.0000
  S   S192      1.0  0.73616  0.52771  0.63125  1.0000
  H   H860      1.0  0.55443  0.71823  0.59784  1.0000
  H   H861      1.0  0.64449  0.01700  0.53159  1.0000
  H   H862      1.0  0.53355  0.56173  0.69662  1.0000
  C   C719      1.0  0.78968  0.54397  0.99300  1.0000
  Fe  Fe96      1.0  0.88805  0.52283  0.87480  1.0000
  H   H863      1.0  0.84788  0.54146  0.67054  1.0000
  H   H864      1.0  0.84905  0.52117  0.95454  1.0000
  C   C720      1.0  0.00190  0.52071  0.85608  1.0000
