data_image0
_chemical_formula_structural       FeSHCH2FeS2FeS2FeSFeS3FeSHSFeSFeSH2C6H4C6HCH2C6H4CHC3HC4HCH2SC2HCH4CH3CHN2CSH3C2H2CSH2CHCFeC2NC9H21CNCHCHCHCH4C2HCNC8H11CHCHCH2CSHC2H3C2HCH2CH5NHCHCH3FeS2FeS2FeSFeS3FeCH2FeHSHCFeS2FeS2FeSFeS3H2SHSCFeHC6H2CHC6HFeH2C7HC8H4C4FeC2HC7H4CHC3H2CH3CHC2HCH5CH2CH3SHCHSH2CHC4HCH5CH2NH2C2NC4H4CNH3C2H4C3H4CH2CS2H7C2FeHCH2CHC2HCHCH2NCH3NH3SH3C2HFeS2FeSFeSFeS2FeS2FeSFeS3FeS2HCHCH3C3H4C10H4C4H2C6H3NH3CNCH3CSC2H4C2H6C2HC3H2CHSCHC4H2CH2CFeCH2NCH2NCHC2SH2CH3C2H7C2HCH3CNC6HC2H12C2HCH3CH5C2H2CSH3SH2CHC2FeSFe2S2FeS2FeS2FeS2FeSFeS3H3C7H4CHC4H4C6H5SHCH2NHC2HSHC2SHCH3CFeCNHCH2CHSH9C2H3CH2CH3CH3C2HC2HC2H3CHCNC8H14CNHCHC6HCHCHCHC3HNHC4H2CHC2SCSFeS2FeS2FeSFeS3HFeSHFe2SC2HFe2HCSHFeS2FeS2FeSFeS3C3HCNH2C2HC6H2CH3C3H4C6H5CHCHC2H2C7H3NC6H5SHC2H2CHC3H2SHC2H4C2H5CH2CSH5CH3C2S2HC2HC4SH6C2H2SH2C2HCNC2HCH5SNCH3CNCFeH3CH2SH4CHCNC6H2CH3C3H5CHCHCH3CHC2NH6CHC3H3C3HC4HCH2CHFeS2FeS2FeSFeS3CFeS3Fe2S2HCH4FeSHC5H3CFeH2C2HC6H2CHC6HCH2C6H4NC9H16SCHNCHC2HNC2HCHC3HCH5SCHCHCH2CSNH5C3H4NCSHCH2C2H6SHCH2CH2CH2SCH5CH5CHCHCH2CHC2NHSC3H2FeHFeSFeSFeSFeS3FeS2FeS2FeSFeS3C6H5C3H4CH2C4H7C3H2C3HSC3H2SH3CHCH3C2H3SC4HC3H2C2H2CHCH2C2HC2H4CH5CH4C4NCNC2HCHCH4NHC3HCH2SH3C4H3CH2C3H2CHFeH2C2SFeS2FeS2FeSFeS3H2CHSH2FeS2FeS2FeSFeS3C6H5C3HCNHC8H4C6H4C6H4C7H2CHC6H4SH3CH2CH11CHSHC2HCH6C2H3CHFeCH2C2H2SHC2HC2NHNHC5FeC2HNH4CHC2NH3CH2C2H2C2HCH6CH2NHC3H4CNHCH3CH2C3HC2H2FeHCH2CHCHCHNHS2HSHCHSHSH2FeCHFeSFeS2FeSFeS3FeS2FeS2FeSFeS3CFe2H2CH2C3HCHCHC6H4C6H3C2H2SC3H5NC5H2CHCH2SH3C3H3CSC2HCHSC2H2C2HCHC3H2CHC2H3CH2C2NC9H13NCNH4CHC3H11CH3SH3C2H3CH4CHFeHFeS2FeS2FeSFeS3HFeS2FeS2Fe2S3C3H2SCHC2HC6H4C6H5C6H3CSC4H3CNC7H12NC4NCH2CH10C2HCHC3HSH2C2H2CSCH2CHC2H2CH2CH2C2H4CHCH4C2H4CH2CH4CHCHCH4C2NH3CSHCH3C2NCHCHFeS2FeS2FeSFeS3FeS2CH2SHCFeS2FeS2FeSFeS3HSHFeSHNCH2C6H4C6H2CHC6H4C6H4C6HCH2C3H2SH3C6H4CH2CH4CFeH4C2HCH4CH5FeSHNC6HCHCH6CFeH4CH2C5NH2CHCNC9H15C2HCNC3H2CSC2FeCH2C2HCH5CHC2FeS2FeS2FeSFeS3FeS2FeS2Fe2S2HC2H3CHC3H8CHC2H2C3HC2H2CH3NC2HCHC6H3NHC2SHC3H3CH2CH3CHC2HCH2CH2C2HCHCH4C3HCH10FeCHCH3CNSHCHC2HC3HCHCHNCHNS2HCHC2SC2HCH2S
_chemical_formula_sum              "Fe128 S256 H1152 C960 N64"
_cell_length_a       41.736
_cell_length_b       41.619
_cell_length_c       70.0709
_cell_angle_alpha    90.0661
_cell_angle_beta     90.5459
_cell_angle_gamma    89.9775

_space_group_name_H-M_alt    "P 1"
_space_group_IT_number       1

loop_
  _space_group_symop_operation_xyz
  'x, y, z'

loop_
  _atom_site_type_symbol
  _atom_site_label
  _atom_site_symmetry_multiplicity
  _atom_site_fract_x
  _atom_site_fract_y
  _atom_site_fract_z
  _atom_site_occupancy
  Fe  Fe1       1.0  0.09136  0.41069  0.30609  1.0000
  S   S1        1.0  0.10236  0.41917  0.27445  1.0000
  H   H1        1.0  0.46904  0.09890  0.17099  1.0000
  C   C1        1.0  0.43198  0.28467  0.10692  1.0000
  H   H2        1.0  0.48896  0.00117  0.32436  1.0000
  H   H3        1.0  0.45026  0.03319  0.07540  1.0000
  Fe  Fe2       1.0  0.26828  0.32772  0.06258  1.0000
  S   S2        1.0  0.24309  0.30723  0.08794  1.0000
  S   S3        1.0  0.24137  0.31425  0.03505  1.0000
  Fe  Fe3       1.0  0.32671  0.34574  0.08804  1.0000
  S   S4        1.0  0.30464  0.32615  0.11479  1.0000
  S   S5        1.0  0.37982  0.35838  0.08571  1.0000
  Fe  Fe4       1.0  0.28955  0.28439  0.09648  1.0000
  S   S6        1.0  0.28780  0.23053  0.10153  1.0000
  Fe  Fe5       1.0  0.25952  0.35078  0.10404  1.0000
  S   S7        1.0  0.22159  0.36842  0.12484  1.0000
  S   S8        1.0  0.31406  0.30218  0.07032  1.0000
  S   S9        1.0  0.28240  0.37332  0.07818  1.0000
  Fe  Fe6       1.0  0.41786  0.03709  0.16158  1.0000
  S   S10       1.0  0.39684  0.06868  0.18420  1.0000
  H   H4        1.0  0.08653  0.42757  0.03266  1.0000
  S   S11       1.0  0.32589  0.04647  0.16836  1.0000
  Fe  Fe7       1.0  0.36229  0.08461  0.16119  1.0000
  S   S12       1.0  0.35692  0.13914  0.16179  1.0000
  Fe  Fe8       1.0  0.36231  0.02854  0.18996  1.0000
  S   S13       1.0  0.38546  0.05503  0.13820  1.0000
  H   H5        1.0  0.02053  0.37900  0.27718  1.0000
  H   H6        1.0  0.45531  0.07306  0.12733  1.0000
  C   C2        1.0  0.30847  0.20596  0.11812  1.0000
  C   C3        1.0  0.32302  0.21845  0.13458  1.0000
  C   C4        1.0  0.33801  0.19761  0.14774  1.0000
  C   C5        1.0  0.33856  0.16423  0.14455  1.0000
  C   C6        1.0  0.32434  0.15182  0.12800  1.0000
  C   C7        1.0  0.30925  0.17263  0.11490  1.0000
  H   H7        1.0  0.32250  0.24400  0.13731  1.0000
  H   H8        1.0  0.34890  0.20731  0.16057  1.0000
  H   H9        1.0  0.32458  0.12618  0.12542  1.0000
  H   H10       1.0  0.29790  0.16279  0.10222  1.0000
  C   C8        1.0  0.40688  0.37373  0.10328  1.0000
  C   C9        1.0  0.43987  0.37402  0.09928  1.0000
  C   C10       1.0  0.46241  0.38551  0.11277  1.0000
  C   C11       1.0  0.45216  0.39767  0.13030  1.0000
  C   C12       1.0  0.41915  0.39744  0.13432  1.0000
  C   C13       1.0  0.39665  0.38515  0.12100  1.0000
  H   H11       1.0  0.44810  0.36537  0.08561  1.0000
  C   C14       1.0  0.40937  0.01214  0.28574  1.0000
  H   H12       1.0  0.41090  0.40691  0.14778  1.0000
  H   H13       1.0  0.37138  0.38516  0.12429  1.0000
  C   C15       1.0  0.16166  0.46164  0.12334  1.0000
  C   C16       1.0  0.18502  0.45594  0.10936  1.0000
  C   C17       1.0  0.20416  0.42800  0.10987  1.0000
  C   C18       1.0  0.19979  0.40514  0.12423  1.0000
  C   C19       1.0  0.17646  0.41084  0.13821  1.0000
  C   C20       1.0  0.15760  0.43898  0.13784  1.0000
  H   H14       1.0  0.22763  0.48795  0.30676  1.0000
  H   H15       1.0  0.22225  0.42419  0.09916  1.0000
  H   H16       1.0  0.17287  0.39336  0.14940  1.0000
  H   H17       1.0  0.13970  0.44298  0.14866  1.0000
  C   C21       1.0  0.09676  0.45222  0.25856  1.0000
  H   H18       1.0  0.00664  0.37796  0.25306  1.0000
  C   C22       1.0  0.01138  0.49217  0.23191  1.0000
  C   C23       1.0  0.09572  0.47221  0.22557  1.0000
  C   C24       1.0  0.46346  0.18748  0.09859  1.0000
  H   H19       1.0  0.09733  0.46753  0.21042  1.0000
  C   C25       1.0  0.48783  0.18385  0.15143  1.0000
  C   C26       1.0  0.22926  0.36359  0.00893  1.0000
  C   C27       1.0  0.22787  0.33070  0.01295  1.0000
  C   C28       1.0  0.40814  0.26784  0.07703  1.0000
  H   H20       1.0  0.24019  0.37983  0.01914  1.0000
  C   C29       1.0  0.09198  0.48368  0.26503  1.0000
  H   H21       1.0  0.40028  0.15698  0.12276  1.0000
  H   H22       1.0  0.16832  0.42309  0.29302  1.0000
  S   S14       1.0  0.05721  0.37091  0.31323  1.0000
  C   C30       1.0  0.17665  0.48817  0.28323  1.0000
  C   C31       1.0  0.21327  0.31005  0.99953  1.0000
  H   H23       1.0  0.36941  0.29313  0.10274  1.0000
  C   C32       1.0  0.48091  0.06916  0.12740  1.0000
  H   H24       1.0  0.21043  0.43365  0.29245  1.0000
  H   H25       1.0  0.10218  0.42251  0.23356  1.0000
  H   H26       1.0  0.43803  0.19414  0.15704  1.0000
  H   H27       1.0  0.48766  0.38576  0.10940  1.0000
  C   C33       1.0  0.37712  0.26790  0.10556  1.0000
  H   H28       1.0  0.43513  0.01088  0.12721  1.0000
  H   H29       1.0  0.39877  0.29244  0.07393  1.0000
  H   H30       1.0  0.12875  0.46255  0.30296  1.0000
  C   C34       1.0  0.18766  0.43708  0.30032  1.0000
  H   H31       1.0  0.99877  0.49249  0.20207  1.0000
  N   N1        1.0  0.40956  0.26144  0.09785  1.0000
  N   N2        1.0  0.17924  0.47169  0.30193  1.0000
  C   C35       1.0  0.14803  0.47391  0.31170  1.0000
  S   S15       1.0  0.47172  0.03000  0.15891  1.0000
  H   H32       1.0  0.17823  0.44547  0.26470  1.0000
  H   H33       1.0  0.45615  0.28432  0.10041  1.0000
  H   H34       1.0  0.46706  0.23482  0.08729  1.0000
  C   C36       1.0  0.47444  0.12276  0.16565  1.0000
  C   C37       1.0  0.17654  0.47131  0.26554  1.0000
  H   H35       1.0  0.45682  0.42558  0.21203  1.0000
  H   H36       1.0  0.48682  0.18038  0.09339  1.0000
  C   C38       1.0  0.44504  0.16551  0.10870  1.0000
  S   S16       1.0  0.34262  0.01667  0.21951  1.0000
  H   H37       1.0  0.10217  0.40215  0.00215  1.0000
  H   H38       1.0  0.49170  0.20762  0.14570  1.0000
  C   C39       1.0  0.17270  0.48752  0.24819  1.0000
  H   H39       1.0  0.04243  0.39961  0.25898  1.0000
  C   C40       1.0  0.20415  0.48716  0.31414  1.0000
  Fe  Fe9       1.0  0.35199  0.01512  0.14731  1.0000
  C   C41       1.0  0.99835  0.99633  0.27359  1.0000
  C   C42       1.0  0.01787  0.39374  0.26401  1.0000
  N   N3        1.0  0.22769  0.25971  0.14700  1.0000
  C   C43       1.0  0.25454  0.28264  0.14480  1.0000
  C   C44       1.0  0.21040  0.25806  0.12838  1.0000
  C   C45       1.0  0.20504  0.27281  0.16125  1.0000
  C   C46       1.0  0.24043  0.22830  0.15355  1.0000
  C   C47       1.0  0.23787  0.19971  0.14248  1.0000
  C   C48       1.0  0.25685  0.22586  0.17135  1.0000
  C   C49       1.0  0.25086  0.17067  0.14898  1.0000
  C   C50       1.0  0.26990  0.19672  0.17763  1.0000
  C   C51       1.0  0.26693  0.16920  0.16646  1.0000
  H   H40       1.0  0.27227  0.27318  0.13446  1.0000
  H   H41       1.0  0.24610  0.30644  0.13946  1.0000
  H   H42       1.0  0.26751  0.28731  0.15844  1.0000
  H   H43       1.0  0.22654  0.25004  0.11672  1.0000
  H   H44       1.0  0.20108  0.28205  0.12394  1.0000
  H   H45       1.0  0.18957  0.24144  0.12901  1.0000
  H   H46       1.0  0.21686  0.27807  0.17517  1.0000
  H   H47       1.0  0.19427  0.29596  0.15637  1.0000
  H   H48       1.0  0.18517  0.25559  0.16392  1.0000
  H   H49       1.0  0.22691  0.19924  0.12847  1.0000
  H   H50       1.0  0.26030  0.24662  0.18040  1.0000
  H   H51       1.0  0.24951  0.14937  0.14007  1.0000
  H   H52       1.0  0.28304  0.19551  0.19104  1.0000
  H   H53       1.0  0.27799  0.14687  0.17108  1.0000
  H   H54       1.0  0.19081  0.42568  0.31461  1.0000
  H   H55       1.0  0.17165  0.47412  0.23491  1.0000
  H   H56       1.0  0.37890  0.20979  0.11623  1.0000
  H   H57       1.0  0.35861  0.25217  0.09879  1.0000
  H   H58       1.0  0.38567  0.02032  0.28972  1.0000
  H   H59       1.0  0.42640  0.14006  0.16966  1.0000
  H   H60       1.0  0.42321  0.30978  0.10542  1.0000
  C   C52       1.0  0.47001  0.02070  0.08210  1.0000
  N   N4        1.0  0.49238  0.45891  0.20162  1.0000
  C   C53       1.0  0.99831  0.47898  0.21532  1.0000
  H   H61       1.0  0.37649  0.26466  0.12131  1.0000
  C   C54       1.0  0.41470  0.17420  0.11495  1.0000
  H   H62       1.0  0.21188  0.28459  0.00253  1.0000
  C   C55       1.0  0.45035  0.14588  0.16486  1.0000
  H   H63       1.0  0.43488  0.27985  0.12247  1.0000
  C   C56       1.0  0.45702  0.17637  0.15777  1.0000
  H   H64       1.0  0.01355  0.42470  0.29721  1.0000
  H   H65       1.0  0.03929  0.44614  0.28163  1.0000
  H   H66       1.0  0.45417  0.14168  0.11173  1.0000
  H   H67       1.0  0.18844  0.47335  0.09812  1.0000
  C   C57       1.0  0.01375  0.44007  0.28419  1.0000
  C   C58       1.0  0.42110  0.01943  0.26774  1.0000
  H   H68       1.0  0.43204  0.26649  0.07024  1.0000
  C   C59       1.0  0.42107  0.22826  0.10136  1.0000
  N   N5        1.0  0.16187  0.36683  0.06767  1.0000
  C   C60       1.0  0.16262  0.33123  0.06938  1.0000
  C   C61       1.0  0.19524  0.37882  0.06689  1.0000
  C   C62       1.0  0.14709  0.37968  0.08534  1.0000
  C   C63       1.0  0.14471  0.37648  0.04997  1.0000
  C   C64       1.0  0.12033  0.40042  0.04967  1.0000
  C   C65       1.0  0.15312  0.36273  0.03217  1.0000
  C   C66       1.0  0.13781  0.37185  0.01519  1.0000
  C   C67       1.0  0.09844  0.44669  0.23877  1.0000
  H   H69       1.0  0.17247  0.32339  0.08344  1.0000
  H   H70       1.0  0.13818  0.32086  0.06773  1.0000
  H   H71       1.0  0.17835  0.31972  0.05858  1.0000
  H   H72       1.0  0.20862  0.36835  0.05468  1.0000
  H   H73       1.0  0.20888  0.37265  0.08012  1.0000
  H   H74       1.0  0.19586  0.40541  0.06527  1.0000
  H   H75       1.0  0.12153  0.37237  0.08646  1.0000
  H   H76       1.0  0.15960  0.37082  0.09843  1.0000
  H   H77       1.0  0.14868  0.40637  0.08612  1.0000
  H   H78       1.0  0.11262  0.41269  0.06241  1.0000
  H   H79       1.0  0.17190  0.34498  0.03118  1.0000
  C   C68       1.0  0.10512  0.40936  0.03259  1.0000
  H   H80       1.0  0.02743  0.02677  0.29235  1.0000
  C   C69       1.0  0.40270  0.20495  0.11125  1.0000
  H   H81       1.0  0.40661  0.03336  0.25781  1.0000
  C   C70       1.0  0.45182  0.21849  0.09505  1.0000
  H   H82       1.0  0.07311  0.00141  0.24017  1.0000
  H   H83       1.0  0.07371  0.02935  0.27138  1.0000
  C   C71       1.0  0.02616  0.01400  0.27890  1.0000
  S   S17       1.0  0.47948  0.41469  0.14717  1.0000
  H   H84       1.0  0.39203  0.25039  0.06962  1.0000
  C   C72       1.0  0.45951  0.44536  0.20154  1.0000
  C   C73       1.0  0.45093  0.00780  0.26225  1.0000
  H   H85       1.0  0.40781  0.02838  0.09686  1.0000
  H   H86       1.0  0.45307  0.43494  0.18730  1.0000
  H   H87       1.0  0.44148  0.46417  0.20493  1.0000
  C   C74       1.0  0.11384  0.39509  0.01540  1.0000
  C   C75       1.0  0.01152  0.47470  0.24898  1.0000
  H   H88       1.0  0.14478  0.36098  0.00176  1.0000
  C   C76       1.0  0.05246  0.99999  0.24940  1.0000
  H   H89       1.0  0.40616  0.00071  0.07681  1.0000
  H   H90       1.0  0.14867  0.46155  0.32580  1.0000
  C   C77       1.0  0.40655  0.00259  0.09265  1.0000
  H   H91       1.0  0.00049  0.46237  0.28790  1.0000
  H   H92       1.0  0.02261  0.48626  0.26114  1.0000
  H   H93       1.0  0.45956  0.01301  0.24804  1.0000
  H   H94       1.0  0.99876  0.99634  0.31267  1.0000
  H   H95       1.0  0.09074  0.48851  0.28015  1.0000
  N   N6        1.0  0.99911  0.42344  0.26748  1.0000
  H   H96       1.0  0.48917  0.09918  0.10283  1.0000
  C   C78       1.0  0.99843  0.44318  0.24987  1.0000
  H   H97       1.0  0.31860  0.00358  0.25685  1.0000
  C   C79       1.0  0.05277  0.01569  0.26697  1.0000
  H   H98       1.0  0.49370  0.42934  0.23668  1.0000
  H   H99       1.0  0.48905  0.46982  0.17148  1.0000
  H   H100      1.0  0.16361  0.25757  0.47341  1.0000
  Fe  Fe10      1.0  0.19379  0.09755  0.39554  1.0000
  S   S18       1.0  0.16518  0.06950  0.41693  1.0000
  S   S19       1.0  0.23501  0.07852  0.37749  1.0000
  Fe  Fe11      1.0  0.16205  0.16161  0.40594  1.0000
  S   S20       1.0  0.13244  0.13753  0.42820  1.0000
  S   S21       1.0  0.15489  0.21593  0.40595  1.0000
  Fe  Fe12      1.0  0.17654  0.11046  0.43703  1.0000
  S   S22       1.0  0.18539  0.10054  0.46886  1.0000
  Fe  Fe13      1.0  0.12325  0.09920  0.40632  1.0000
  S   S23       1.0  0.07003  0.08710  0.40649  1.0000
  S   S24       1.0  0.20725  0.13710  0.41624  1.0000
  S   S25       1.0  0.15089  0.12468  0.38342  1.0000
  Fe  Fe14      1.0  0.10611  0.42281  0.34823  1.0000
  C   C80       1.0  0.47229  0.13203  0.61440  1.0000
  H   H101      1.0  0.42372  0.20894  0.62609  1.0000
  H   H102      1.0  0.29620  0.05911  0.46336  1.0000
  Fe  Fe15      1.0  0.09280  0.35396  0.33530  1.0000
  H   H103      1.0  0.03006  0.23088  0.38280  1.0000
  S   S26       1.0  0.07176  0.38442  0.35853  1.0000
  H   H104      1.0  0.44742  0.46088  0.35708  1.0000
  C   C81       1.0  0.27233  0.04715  0.46312  1.0000
  Fe  Fe16      1.0  0.27489  0.10271  0.60309  1.0000
  S   S27       1.0  0.29697  0.07930  0.57731  1.0000
  S   S28       1.0  0.23759  0.08143  0.62329  1.0000
  Fe  Fe17      1.0  0.32061  0.16117  0.60187  1.0000
  S   S29       1.0  0.34512  0.14131  0.57596  1.0000
  S   S30       1.0  0.34698  0.20301  0.61644  1.0000
  Fe  Fe18      1.0  0.29585  0.12899  0.56449  1.0000
  S   S31       1.0  0.28830  0.14168  0.53280  1.0000
  Fe  Fe19      1.0  0.34427  0.09375  0.59083  1.0000
  S   S32       1.0  0.38835  0.06127  0.59112  1.0000
  S   S33       1.0  0.27108  0.15221  0.58965  1.0000
  S   S34       1.0  0.32237  0.11375  0.61725  1.0000
  H   H105      1.0  0.36296  0.31001  0.64447  1.0000
  H   H106      1.0  0.23082  0.18971  0.53723  1.0000
  S   S35       1.0  0.36464  0.41170  0.63020  1.0000
  H   H107      1.0  0.49091  0.02775  0.62000  1.0000
  S   S36       1.0  0.07050  0.44494  0.32754  1.0000
  C   C82       1.0  0.22239  0.21793  0.49191  1.0000
  Fe  Fe20      1.0  0.34474  0.45547  0.64506  1.0000
  H   H108      1.0  0.33313  0.02205  0.39368  1.0000
  C   C83       1.0  0.41663  0.05926  0.61017  1.0000
  C   C84       1.0  0.44589  0.04323  0.60737  1.0000
  C   C85       1.0  0.46862  0.04039  0.62232  1.0000
  C   C86       1.0  0.46196  0.05304  0.64035  1.0000
  C   C87       1.0  0.43276  0.06921  0.64311  1.0000
  C   C88       1.0  0.41033  0.07259  0.62808  1.0000
  H   H109      1.0  0.45097  0.03279  0.59358  1.0000
  H   H110      1.0  0.37969  0.25507  0.63459  1.0000
  C   C89       1.0  0.00123  0.05605  0.35816  1.0000
  H   H111      1.0  0.38810  0.08527  0.63042  1.0000
  C   C90       1.0  0.33329  0.24160  0.62348  1.0000
  C   C91       1.0  0.35525  0.26280  0.63219  1.0000
  C   C92       1.0  0.34588  0.29395  0.63775  1.0000
  C   C93       1.0  0.31433  0.30413  0.63482  1.0000
  C   C94       1.0  0.29218  0.28275  0.62645  1.0000
  C   C95       1.0  0.30162  0.25168  0.62069  1.0000
  H   H112      1.0  0.48717  0.42206  0.35150  1.0000
  Fe  Fe21      1.0  0.40240  0.41175  0.65337  1.0000
  H   H113      1.0  0.23624  0.23171  0.48188  1.0000
  H   H114      1.0  0.28445  0.23558  0.61407  1.0000
  C   C96       1.0  0.21978  0.19443  0.52343  1.0000
  C   C97       1.0  0.00770  0.14484  0.35772  1.0000
  C   C98       1.0  0.28366  0.02219  0.43262  1.0000
  C   C99       1.0  0.21607  0.02461  0.60624  1.0000
  C   C100      1.0  0.21423  0.04570  0.62175  1.0000
  C   C101      1.0  0.19335  0.03822  0.63678  1.0000
  C   C102      1.0  0.48313  0.30380  0.61725  1.0000
  H   H115      1.0  0.23177  0.03009  0.59449  1.0000
  C   C103      1.0  0.06997  0.16257  0.37150  1.0000
  C   C104      1.0  0.48415  0.15267  0.62906  1.0000
  C   C105      1.0  0.21501  0.11152  0.48620  1.0000
  C   C106      1.0  0.21130  0.10105  0.50515  1.0000
  C   C107      1.0  0.23383  0.10927  0.51951  1.0000
  C   C108      1.0  0.26039  0.12826  0.51510  1.0000
  C   C109      1.0  0.26440  0.13825  0.49606  1.0000
  C   C110      1.0  0.24202  0.12983  0.48167  1.0000
  H   H116      1.0  0.19067  0.08668  0.50883  1.0000
  H   H117      1.0  0.23035  0.10143  0.53406  1.0000
  H   H118      1.0  0.28487  0.15293  0.49249  1.0000
  H   H119      1.0  0.24577  0.13761  0.46717  1.0000
  C   C111      1.0  0.04811  0.21515  0.37598  1.0000
  C   C112      1.0  0.03440  0.05757  0.35487  1.0000
  C   C113      1.0  0.05586  0.06731  0.36942  1.0000
  C   C114      1.0  0.04427  0.07536  0.38747  1.0000
  Fe  Fe22      1.0  0.33468  0.38375  0.65093  1.0000
  C   C115      1.0  0.23582  0.21294  0.51004  1.0000
  C   C116      1.0  0.45930  0.26785  0.59389  1.0000
  H   H120      1.0  0.08134  0.06811  0.36677  1.0000
  C   C117      1.0  0.42457  0.48800  0.40020  1.0000
  C   C118      1.0  0.14078  0.23891  0.38623  1.0000
  C   C119      1.0  0.13394  0.27172  0.38888  1.0000
  C   C120      1.0  0.12244  0.29079  0.37365  1.0000
  C   C121      1.0  0.11759  0.27719  0.35558  1.0000
  C   C122      1.0  0.12429  0.24433  0.35297  1.0000
  C   C123      1.0  0.13597  0.22531  0.36816  1.0000
  H   H121      1.0  0.13764  0.28253  0.40276  1.0000
  H   H122      1.0  0.11737  0.31601  0.37587  1.0000
  H   H123      1.0  0.12078  0.23365  0.33902  1.0000
  H   H124      1.0  0.14157  0.20025  0.36582  1.0000
  C   C124      1.0  0.45248  0.31325  0.62290  1.0000
  H   H125      1.0  0.24598  0.07276  0.41983  1.0000
  C   C125      1.0  0.19038  0.18061  0.51872  1.0000
  C   C126      1.0  0.25070  0.03895  0.37526  1.0000
  C   C127      1.0  0.27718  0.03377  0.36334  1.0000
  H   H126      1.0  0.06521  0.17993  0.40709  1.0000
  H   H127      1.0  0.04360  0.05102  0.34102  1.0000
  C   C128      1.0  0.16504  0.48058  0.36763  1.0000
  H   H128      1.0  0.28710  0.05376  0.35549  1.0000
  H   H129      1.0  0.16617  0.24847  0.44830  1.0000
  H   H130      1.0  0.36653  0.00936  0.62975  1.0000
  C   C129      1.0  0.29103  0.00299  0.36149  1.0000
  H   H131      1.0  0.26968  0.47229  0.63697  1.0000
  C   C130      1.0  0.45347  0.48592  0.41020  1.0000
  C   C131      1.0  0.44419  0.13935  0.60425  1.0000
  H   H132      1.0  0.40482  0.17224  0.60078  1.0000
  C   C132      1.0  0.42544  0.30043  0.61397  1.0000
  H   H133      1.0  0.06255  0.49358  0.65741  1.0000
  H   H134      1.0  0.19145  0.19712  0.43831  1.0000
  H   H135      1.0  0.40751  0.26727  0.59297  1.0000
  H   H136      1.0  0.46060  0.25063  0.58237  1.0000
  H   H137      1.0  0.33636  0.05290  0.64100  1.0000
  C   C133      1.0  0.46590  0.18074  0.63295  1.0000
  H   H138      1.0  0.31144  0.99946  0.35232  1.0000
  H   H139      1.0  0.02334  0.18927  0.40753  1.0000
  C   C134      1.0  0.42704  0.16714  0.60837  1.0000
  H   H140      1.0  0.13667  0.20109  0.44988  1.0000
  H   H141      1.0  0.44759  0.39582  0.61040  1.0000
  H   H142      1.0  0.27466  0.02420  0.47108  1.0000
  S   S37       1.0  0.10300  0.30000  0.33592  1.0000
  H   H143      1.0  0.14582  0.16959  0.46623  1.0000
  C   C135      1.0  0.32149  0.01340  0.40646  1.0000
  H   H144      1.0  0.22952  0.00336  0.45190  1.0000
  S   S38       1.0  0.30136  0.34281  0.64210  1.0000
  H   H145      1.0  0.48639  0.38351  0.58476  1.0000
  H   H146      1.0  0.25435  0.47787  0.56302  1.0000
  C   C136      1.0  0.31580  0.03665  0.64403  1.0000
  H   H147      1.0  0.00191  0.08037  0.40459  1.0000
  C   C137      1.0  0.43787  0.18784  0.62266  1.0000
  C   C138      1.0  0.47754  0.48035  0.61249  1.0000
  C   C139      1.0  0.17676  0.18530  0.50061  1.0000
  C   C140      1.0  0.04164  0.17445  0.40021  1.0000
  H   H148      1.0  0.25562  0.06244  0.47149  1.0000
  C   C141      1.0  0.01098  0.17079  0.37083  1.0000
  H   H149      1.0  0.44967  0.33121  0.63401  1.0000
  H   H150      1.0  0.09301  0.17087  0.37797  1.0000
  H   H151      1.0  0.48366  0.10953  0.61081  1.0000
  H   H152      1.0  0.20764  0.47410  0.32790  1.0000
  H   H153      1.0  0.03614  0.14874  0.40325  1.0000
  C   C142      1.0  0.23803  0.01288  0.38525  1.0000
  H   H154      1.0  0.32979  0.03976  0.60779  1.0000
  H   H155      1.0  0.20064  0.16689  0.45576  1.0000
  N   N7        1.0  0.17904  0.20938  0.46718  1.0000
  H   H156      1.0  0.29385  0.05182  0.64269  1.0000
  H   H157      1.0  0.23814  0.08905  0.44295  1.0000
  C   C143      1.0  0.47237  0.39108  0.61401  1.0000
  C   C144      1.0  0.17762  0.24418  0.46255  1.0000
  N   N8        1.0  0.26063  0.04236  0.44326  1.0000
  C   C145      1.0  0.22892  0.02625  0.44380  1.0000
  C   C146      1.0  0.42117  0.46975  0.61707  1.0000
  C   C147      1.0  0.25565  0.07461  0.43469  1.0000
  C   C148      1.0  0.19229  0.20447  0.48667  1.0000
  H   H158      1.0  0.26763  0.29035  0.62422  1.0000
  H   H159      1.0  0.27823  0.08882  0.43448  1.0000
  H   H160      1.0  0.21054  0.04155  0.45086  1.0000
  H   H161      1.0  0.04808  0.22076  0.36042  1.0000
  C   C149      1.0  0.01109  0.07413  0.39068  1.0000
  N   N9        1.0  0.04219  0.18042  0.37935  1.0000
  H   H162      1.0  0.12912  0.20710  0.47478  1.0000
  H   H163      1.0  0.41650  0.46622  0.60158  1.0000
  H   H164      1.0  0.06849  0.13643  0.37470  1.0000
  C   C150      1.0  0.30014  0.03328  0.41621  1.0000
  C   C151      1.0  0.48013  0.46411  0.38184  1.0000
  H   H165      1.0  0.28717  0.03419  0.60951  1.0000
  H   H166      1.0  0.47254  0.19687  0.64440  1.0000
  H   H167      1.0  0.22512  0.20214  0.45392  1.0000
  H   H168      1.0  0.21745  0.01641  0.39425  1.0000
  C   C152      1.0  0.19735  0.99637  0.60585  1.0000
  C   C153      1.0  0.48087  0.47414  0.40123  1.0000
  C   C154      1.0  0.45023  0.46666  0.37202  1.0000
  H   H169      1.0  0.40059  0.48091  0.37334  1.0000
  H   H170      1.0  0.07195  0.16598  0.35580  1.0000
  H   H171      1.0  0.15449  0.17293  0.49779  1.0000
  H   H172      1.0  0.20174  0.25529  0.46171  1.0000
  C   C155      1.0  0.42878  0.27741  0.59971  1.0000
  H   H173      1.0  0.07174  0.22292  0.38191  1.0000
  H   H174      1.0  0.29638  0.05690  0.41020  1.0000
  C   C156      1.0  0.20005  0.19325  0.45322  1.0000
  S   S39       1.0  0.45648  0.40280  0.65203  1.0000
  S   S40       1.0  0.14018  0.44632  0.36984  1.0000
  H   H175      1.0  0.43505  0.12283  0.59348  1.0000
  H   H176      1.0  0.20082  0.46160  0.38693  1.0000
  H   H177      1.0  0.25928  0.22255  0.51361  1.0000
  H   H178      1.0  0.40183  0.30866  0.61797  1.0000
  H   H179      1.0  0.15874  0.00459  0.64807  1.0000
  H   H180      1.0  0.17865  0.16521  0.52898  1.0000
  H   H181      1.0  0.19166  0.05440  0.64882  1.0000
  C   C157      1.0  0.26563  0.49496  0.62981  1.0000
  C   C158      1.0  0.14620  0.19622  0.46453  1.0000
  Fe  Fe23      1.0  0.03811  0.40364  0.33592  1.0000
  H   H182      1.0  0.45370  0.47429  0.64951  1.0000
  C   C159      1.0  0.42294  0.47826  0.38121  1.0000
  H   H183      1.0  0.19311  0.47534  0.55792  1.0000
  H   H184      1.0  0.07638  0.01743  0.58491  1.0000
  C   C160      1.0  0.19362  0.48207  0.37839  1.0000
  H   H185      1.0  0.22004  0.02083  0.42911  1.0000
  C   C161      1.0  0.48748  0.28089  0.60241  1.0000
  C   C162      1.0  0.31078  0.02196  0.61113  1.0000
  H   H186      1.0  0.02782  0.13052  0.35319  1.0000
  C   C163      1.0  0.48260  0.39231  0.63308  1.0000
  H   H187      1.0  0.31213  0.00310  0.59994  1.0000
  C   C164      1.0  0.17460  0.00999  0.63639  1.0000
  H   H188      1.0  0.42686  0.44581  0.62327  1.0000
  H   H189      1.0  0.39817  0.47805  0.62336  1.0000
  N   N10       1.0  0.31475  0.00892  0.63065  1.0000
  C   C165      1.0  0.47986  0.47594  0.59243  1.0000
  H   H190      1.0  0.03852  0.00637  0.56062  1.0000
  H   H191      1.0  0.21413  0.49115  0.63080  1.0000
  H   H192      1.0  0.45988  0.48119  0.58304  1.0000
  N   N11       1.0  0.44753  0.49275  0.62092  1.0000
  H   H193      1.0  0.42743  0.07919  0.65699  1.0000
  H   H194      1.0  0.26445  0.01315  0.65728  1.0000
  H   H195      1.0  0.10569  0.49456  0.63824  1.0000
  S   S41       1.0  0.12888  0.39089  0.32623  1.0000
  H   H196      1.0  0.45467  0.49413  0.42489  1.0000
  H   H197      1.0  0.31856  0.02861  0.65909  1.0000
  H   H198      1.0  0.04654  0.29484  0.86060  1.0000
  C   C166      1.0  0.16671  0.02104  0.78059  1.0000
  C   C167      1.0  0.34116  0.47757  0.76791  1.0000
  H   H199      1.0  0.15096  0.07653  0.76625  1.0000
  Fe  Fe24      1.0  0.03242  0.06224  0.83726  1.0000
  S   S42       1.0  0.06148  0.09029  0.81631  1.0000
  S   S43       1.0  0.12164  0.04293  0.82706  1.0000
  Fe  Fe25      1.0  0.10041  0.08891  0.83858  1.0000
  S   S44       1.0  0.13196  0.13331  0.84148  1.0000
  Fe  Fe26      1.0  0.08056  0.04283  0.80597  1.0000
  S   S45       1.0  0.07005  0.06405  0.86047  1.0000
  Fe  Fe27      1.0  0.17260  0.35236  0.88811  1.0000
  S   S46       1.0  0.14994  0.38642  0.90868  1.0000
  S   S47       1.0  0.20685  0.36963  0.86521  1.0000
  Fe  Fe28      1.0  0.13637  0.29458  0.90405  1.0000
  S   S48       1.0  0.11248  0.32535  0.92634  1.0000
  S   S49       1.0  0.11670  0.24346  0.90424  1.0000
  Fe  Fe29      1.0  0.10413  0.35996  0.90230  1.0000
  S   S50       1.0  0.05515  0.38391  0.90068  1.0000
  Fe  Fe30      1.0  0.16057  0.34865  0.93093  1.0000
  S   S51       1.0  0.18212  0.37174  0.95789  1.0000
  S   S52       1.0  0.12583  0.32853  0.87991  1.0000
  S   S53       1.0  0.18552  0.31534  0.91042  1.0000
  Fe  Fe31      1.0  0.35355  0.42685  0.68525  1.0000
  S   S54       1.0  0.34871  0.42719  0.71796  1.0000
  S   S55       1.0  0.37357  0.38079  0.67313  1.0000
  H   H200      1.0  0.34312  0.42797  0.75882  1.0000
  C   C168      1.0  0.20080  0.35491  0.97850  1.0000
  H   H201      1.0  0.20433  0.05514  0.75738  1.0000
  C   C169      1.0  0.01128  0.18159  0.86448  1.0000
  H   H202      1.0  0.28419  0.30348  0.72757  1.0000
  H   H203      1.0  0.18847  0.30579  0.97234  1.0000
  H   H204      1.0  0.29379  0.34521  0.73105  1.0000
  C   C170      1.0  0.36639  0.28498  0.68593  1.0000
  C   C171      1.0  0.03555  0.37501  0.86297  1.0000
  C   C172      1.0  0.02747  0.38517  0.88135  1.0000
  H   H205      1.0  0.18266  0.99973  0.78060  1.0000
  H   H206      1.0  0.16833  0.43641  0.84297  1.0000
  H   H207      1.0  0.03675  0.00435  0.87439  1.0000
  H   H208      1.0  0.05921  0.36564  0.86023  1.0000
  C   C173      1.0  0.46691  0.44753  0.74098  1.0000
  C   C174      1.0  0.26795  0.31041  0.68992  1.0000
  C   C175      1.0  0.13108  0.45904  0.87295  1.0000
  C   C176      1.0  0.08884  0.44926  0.84959  1.0000
  C   C177      1.0  0.12605  0.16437  0.85850  1.0000
  C   C178      1.0  0.14294  0.19343  0.85661  1.0000
  C   C179      1.0  0.13988  0.21819  0.87025  1.0000
  C   C180      1.0  0.12029  0.21385  0.88612  1.0000
  C   C181      1.0  0.10328  0.18486  0.88796  1.0000
  C   C182      1.0  0.10586  0.16035  0.87415  1.0000
  H   H209      1.0  0.15869  0.19673  0.84460  1.0000
  H   H210      1.0  0.15323  0.24029  0.86869  1.0000
  H   H211      1.0  0.08836  0.18116  0.90029  1.0000
  H   H212      1.0  0.09292  0.13806  0.87586  1.0000
  C   C183      1.0  0.42955  0.48214  0.75730  1.0000
  C   C184      1.0  0.34567  0.45967  0.73456  1.0000
  C   C185      1.0  0.38970  0.29995  0.69717  1.0000
  C   C186      1.0  0.33427  0.29433  0.68715  1.0000
  H   H213      1.0  0.41776  0.45414  0.73229  1.0000
  H   H214      1.0  0.22520  0.07715  0.77584  1.0000
  C   C187      1.0  0.26058  0.46606  0.86847  1.0000
  C   C188      1.0  0.26413  0.44587  0.85265  1.0000
  C   C189      1.0  0.24721  0.41655  0.85168  1.0000
  C   C190      1.0  0.22646  0.40735  0.86640  1.0000
  C   C191      1.0  0.22221  0.42802  0.88188  1.0000
  C   C192      1.0  0.23944  0.45703  0.88299  1.0000
  H   H215      1.0  0.28032  0.45257  0.84136  1.0000
  H   H216      1.0  0.25058  0.40074  0.83960  1.0000
  H   H217      1.0  0.20591  0.42155  0.89310  1.0000
  N   N12       1.0  0.12167  0.44011  0.85588  1.0000
  H   H218      1.0  0.27300  0.31242  0.67437  1.0000
  H   H219      1.0  0.02452  0.16557  0.89255  1.0000
  H   H220      1.0  0.30317  0.38026  0.70378  1.0000
  C   C193      1.0  0.19997  0.32200  0.98236  1.0000
  N   N13       1.0  0.02329  0.27816  0.88625  1.0000
  C   C194      1.0  0.02340  0.21735  0.89090  1.0000
  H   H221      1.0  0.07276  0.27711  0.87808  1.0000
  H   H222      1.0  0.33926  0.47173  0.78289  1.0000
  H   H223      1.0  0.22279  0.04823  0.85910  1.0000
  C   C195      1.0  0.49065  0.45565  0.75426  1.0000
  S   S56       1.0  0.38494  0.45768  0.66692  1.0000
  C   C196      1.0  0.14348  0.44457  0.83944  1.0000
  C   C197      1.0  0.31458  0.40506  0.88071  1.0000
  H   H224      1.0  0.41462  0.29303  0.69591  1.0000
  H   H225      1.0  0.15573  0.02170  0.76604  1.0000
  H   H226      1.0  0.02937  0.99937  0.71789  1.0000
  H   H227      1.0  0.14035  0.07817  0.79078  1.0000
  C   C198      1.0  0.09009  0.00738  0.75757  1.0000
  C   C199      1.0  0.03023  0.28019  0.90707  1.0000
  H   H228      1.0  0.09445  0.03801  0.73292  1.0000
  H   H229      1.0  0.00030  0.20424  0.83772  1.0000
  H   H230      1.0  0.37323  0.26639  0.67589  1.0000
  H   H231      1.0  0.00930  0.15739  0.85875  1.0000
  H   H232      1.0  0.22872  0.03423  0.77454  1.0000
  H   H233      1.0  0.05318  0.26795  0.91088  1.0000
  C   C200      1.0  0.21568  0.04932  0.84419  1.0000
  C   C201      1.0  0.19068  0.07801  0.81794  1.0000
  H   H234      1.0  0.31772  0.28228  0.67761  1.0000
  C   C202      1.0  0.12184  0.40549  0.86070  1.0000
  C   C203      1.0  0.45310  0.49109  0.77106  1.0000
  C   C204      1.0  0.33267  0.43246  0.88455  1.0000
  H   H235      1.0  0.14591  0.39797  0.86595  1.0000
  H   H236      1.0  0.34511  0.46841  0.90526  1.0000
  C   C205      1.0  0.01085  0.00889  0.74524  1.0000
  H   H237      1.0  0.14693  0.01638  0.79076  1.0000
  S   S57       1.0  0.04844  0.01473  0.82530  1.0000
  C   C206      1.0  0.43638  0.46069  0.74253  1.0000
  H   H238      1.0  0.21692  0.00367  0.80433  1.0000
  C   C207      1.0  0.22144  0.02332  0.83217  1.0000
  C   C208      1.0  0.01319  0.01368  0.87931  1.0000
  C   C209      1.0  0.01299  0.37746  0.84796  1.0000
  C   C210      1.0  0.16120  0.07832  0.78096  1.0000
  H   H239      1.0  0.31523  0.39436  0.86661  1.0000
  H   H240      1.0  0.47210  0.43091  0.72948  1.0000
  C   C211      1.0  0.21172  0.05463  0.77270  1.0000
  H   H241      1.0  0.34370  0.35370  0.72054  1.0000
  H   H242      1.0  0.23661  0.47252  0.89526  1.0000
  C   C212      1.0  0.38101  0.32433  0.70973  1.0000
  Fe  Fe32      1.0  0.08833  0.01802  0.84721  1.0000
  C   C213      1.0  0.34331  0.45275  0.75418  1.0000
  H   H243      1.0  0.34724  0.44306  0.87348  1.0000
  H   H244      1.0  0.05667  0.31671  0.88177  1.0000
  N   N14       1.0  0.18367  0.05150  0.78534  1.0000
  C   C214      1.0  0.05094  0.29232  0.87619  1.0000
  H   H245      1.0  0.42758  0.47534  0.80450  1.0000
  H   H246      1.0  0.11574  0.39017  0.84815  1.0000
  N   N15       1.0  0.29084  0.32982  0.70153  1.0000
  C   C215      1.0  0.28831  0.36358  0.69500  1.0000
  H   H247      1.0  0.01953  0.37007  0.83371  1.0000
  C   C216      1.0  0.01823  0.24490  0.87926  1.0000
  C   C217      1.0  0.32454  0.31900  0.69993  1.0000
  S   S58       1.0  0.08620  0.04051  0.77345  1.0000
  H   H248      1.0  0.02492  0.03069  0.74687  1.0000
  H   H249      1.0  0.17516  0.48094  0.86179  1.0000
  C   C218      1.0  0.48398  0.47702  0.76917  1.0000
  H   H250      1.0  0.10437  0.39957  0.87202  1.0000
  H   H251      1.0  0.29655  0.36578  0.68003  1.0000
  H   H252      1.0  0.26326  0.37267  0.69548  1.0000
  C   C219      1.0  0.00613  0.20804  0.85268  1.0000
  C   C220      1.0  0.21159  0.02437  0.81304  1.0000
  H   H253      1.0  0.24280  0.31875  0.69164  1.0000
  H   H254      1.0  0.25469  0.33432  0.72324  1.0000
  H   H255      1.0  0.00764  0.03570  0.87096  1.0000
  H   H256      1.0  0.03140  0.21910  0.90557  1.0000
  H   H257      1.0  0.07040  0.44312  0.86038  1.0000
  H   H258      1.0  0.00618  0.25896  0.85006  1.0000
  H   H259      1.0  0.23329  0.00207  0.83777  1.0000
  C   C221      1.0  0.09399  0.01346  0.73796  1.0000
  C   C222      1.0  0.28048  0.32808  0.72171  1.0000
  H   H260      1.0  0.26874  0.28458  0.69401  1.0000
  C   C223      1.0  0.33133  0.44678  0.90248  1.0000
  H   H261      1.0  0.08147  0.43645  0.83629  1.0000
  H   H262      1.0  0.17307  0.10219  0.78191  1.0000
  H   H263      1.0  0.17862  0.09982  0.81359  1.0000
  C   C224      1.0  0.19494  0.05135  0.80547  1.0000
  N   N16       1.0  0.27089  0.39398  0.92809  1.0000
  C   C225      1.0  0.24921  0.41983  0.93482  1.0000
  C   C226      1.0  0.25046  0.36678  0.92159  1.0000
  C   C227      1.0  0.29047  0.38252  0.94449  1.0000
  C   C228      1.0  0.29221  0.40653  0.91303  1.0000
  C   C229      1.0  0.29449  0.39223  0.89463  1.0000
  C   C230      1.0  0.31172  0.43389  0.91661  1.0000
  H   H264      1.0  0.01679  0.02103  0.89440  1.0000
  C   C231      1.0  0.34899  0.33385  0.71109  1.0000
  C   C232      1.0  0.34594  0.49188  0.72885  1.0000
  H   H265      1.0  0.23211  0.41086  0.94568  1.0000
  H   H266      1.0  0.26226  0.44002  0.94171  1.0000
  H   H267      1.0  0.23480  0.42987  0.92282  1.0000
  H   H268      1.0  0.23469  0.37386  0.90938  1.0000
  H   H269      1.0  0.23439  0.35821  0.93313  1.0000
  H   H270      1.0  0.26501  0.34561  0.91730  1.0000
  H   H271      1.0  0.30474  0.40216  0.95116  1.0000
  H   H272      1.0  0.27516  0.37225  0.95596  1.0000
  H   H273      1.0  0.30754  0.36347  0.93997  1.0000
  H   H274      1.0  0.28037  0.37164  0.89036  1.0000
  H   H275      1.0  0.31165  0.44586  0.93029  1.0000
  H   H276      1.0  0.13569  0.43016  0.82682  1.0000
  C   C233      1.0  0.12096  0.47480  0.90618  1.0000
  C   C234      1.0  0.00948  0.23924  0.85990  1.0000
  H   H277      1.0  0.39926  0.33659  0.71812  1.0000
  C   C235      1.0  0.20061  0.07669  0.83705  1.0000
  H   H278      1.0  0.19583  0.09689  0.84645  1.0000
  H   H279      1.0  0.08717  0.47555  0.84685  1.0000
  H   H280      1.0  0.01056  0.26961  0.91561  1.0000
  C   C236      1.0  0.01972  0.18625  0.88355  1.0000
  H   H281      1.0  0.40551  0.49154  0.75793  1.0000
  H   H282      1.0  0.48444  0.11781  0.66059  1.0000
  H   H283      1.0  0.21623  0.40115  0.98906  1.0000
  H   H284      1.0  0.03330  0.30559  0.91190  1.0000
  H   H285      1.0  0.10641  0.47291  0.91888  1.0000
  C   C237      1.0  0.99648  0.39712  0.88459  1.0000
  C   C238      1.0  0.15893  0.47875  0.87365  1.0000
  H   H286      1.0  0.14425  0.47013  0.83480  1.0000
  H   H287      1.0  0.09101  0.44295  0.89042  1.0000
  C   C239      1.0  0.11233  0.45769  0.88974  1.0000
  S   S59       1.0  0.31216  0.42768  0.66429  1.0000
  H   H288      1.0  0.99852  0.09403  0.87686  1.0000
  H   H289      1.0  0.99687  0.32271  0.88862  1.0000
  H   H290      1.0  0.49155  0.15858  0.66766  1.0000
  S   S60       1.0  0.48891  0.04897  0.65996  1.0000
  H   H291      1.0  0.00698  0.49304  0.66730  1.0000
  H   H292      1.0  0.16224  0.99767  0.86053  1.0000
  C   C240      1.0  0.21567  0.37559  0.99183  1.0000
  H   H293      1.0  0.39687  0.49520  0.79069  1.0000
  C   C241      1.0  0.14831  0.49396  0.90636  1.0000
  C   C242      1.0  0.99446  0.29817  0.88233  1.0000
  Fe  Fe33      1.0  0.37319  0.90942  0.31548  1.0000
  S   S61       1.0  0.38687  0.91777  0.28429  1.0000
  Fe  Fe34      1.0  0.08370  0.53880  0.18356  1.0000
  Fe  Fe35      1.0  0.07994  0.58789  0.14992  1.0000
  S   S62       1.0  0.06429  0.54902  0.12963  1.0000
  S   S63       1.0  0.07627  0.63766  0.13588  1.0000
  Fe  Fe36      1.0  0.03179  0.53204  0.15272  1.0000
  S   S64       1.0  0.04521  0.57227  0.17249  1.0000
  S   S65       1.0  0.12008  0.55833  0.16268  1.0000
  Fe  Fe37      1.0  0.16898  0.83095  0.06073  1.0000
  S   S66       1.0  0.20428  0.82461  0.08524  1.0000
  S   S67       1.0  0.17426  0.82635  0.02804  1.0000
  Fe  Fe38      1.0  0.11209  0.84113  0.08833  1.0000
  S   S68       1.0  0.14329  0.83594  0.11430  1.0000
  S   S69       1.0  0.05749  0.84481  0.08851  1.0000
  Fe  Fe39      1.0  0.17906  0.86687  0.09877  1.0000
  S   S70       1.0  0.19792  0.90927  0.11654  1.0000
  Fe  Fe40      1.0  0.16568  0.79430  0.09900  1.0000
  S   S71       1.0  0.17626  0.74848  0.11589  1.0000
  S   S72       1.0  0.14578  0.87498  0.07357  1.0000
  S   S73       1.0  0.13250  0.79752  0.07381  1.0000
  H   H294      1.0  0.07181  0.82927  0.14952  1.0000
  H   H295      1.0  0.02220  0.51588  0.23139  1.0000
  H   H296      1.0  0.33487  0.96538  0.28244  1.0000
  C   C243      1.0  0.26027  0.83911  0.00091  1.0000
  C   C244      1.0  0.23622  0.92794  0.11848  1.0000
  C   C245      1.0  0.26337  0.91583  0.10937  1.0000
  C   C246      1.0  0.29335  0.93110  0.11186  1.0000
  C   C247      1.0  0.29661  0.95856  0.12348  1.0000
  C   C248      1.0  0.26941  0.97076  0.13249  1.0000
  C   C249      1.0  0.23949  0.95546  0.13005  1.0000
  H   H297      1.0  0.26127  0.89468  0.10046  1.0000
  H   H298      1.0  0.31413  0.92152  0.10471  1.0000
  H   H299      1.0  0.04076  0.94063  0.10914  1.0000
  H   H300      1.0  0.21864  0.96509  0.13709  1.0000
  C   C250      1.0  0.00021  0.85603  0.10625  1.0000
  H   H301      1.0  0.09324  0.74946  0.17042  1.0000
  C   C251      1.0  0.33649  0.93130  0.19053  1.0000
  C   C252      1.0  0.03368  0.85966  0.10736  1.0000
  C   C253      1.0  0.04720  0.87486  0.12332  1.0000
  C   C254      1.0  0.02732  0.88656  0.13793  1.0000
  H   H302      1.0  0.40513  0.94066  0.09913  1.0000
  H   H303      1.0  0.44714  0.97008  0.13009  1.0000
  H   H304      1.0  0.07290  0.87804  0.12426  1.0000
  H   H305      1.0  0.03793  0.89861  0.15013  1.0000
  C   C255      1.0  0.10533  0.66701  0.12983  1.0000
  C   C256      1.0  0.09717  0.69054  0.11622  1.0000
  C   C257      1.0  0.11867  0.71545  0.11169  1.0000
  C   C258      1.0  0.14859  0.71719  0.12079  1.0000
  C   C259      1.0  0.15690  0.69346  0.13423  1.0000
  C   C260      1.0  0.13538  0.66856  0.13880  1.0000
  H   H306      1.0  0.07409  0.68947  0.10909  1.0000
  H   H307      1.0  0.11228  0.73308  0.10098  1.0000
  H   H308      1.0  0.18002  0.69456  0.14132  1.0000
  H   H309      1.0  0.14184  0.65097  0.14952  1.0000
  H   H310      1.0  0.19779  0.51209  0.31832  1.0000
  S   S74       1.0  0.09071  0.53726  0.21618  1.0000
  H   H311      1.0  0.08687  0.53358  0.25701  1.0000
  C   C261      1.0  0.37415  0.94567  0.26660  1.0000
  H   H312      1.0  0.08532  0.72734  0.14865  1.0000
  H   H313      1.0  0.47162  0.91340  0.31950  1.0000
  N   N17       1.0  0.07113  0.77725  0.14785  1.0000
  H   H314      1.0  0.02470  0.69143  0.13311  1.0000
  C   C262      1.0  0.39093  0.94706  0.24928  1.0000
  C   C263      1.0  0.21157  0.90931  0.99790  1.0000
  H   H315      1.0  0.22939  0.90552  0.00904  1.0000
  S   S75       1.0  0.06854  0.49733  0.16484  1.0000
  H   H316      1.0  0.41123  0.93133  0.24714  1.0000
  C   C264      1.0  0.23703  0.83619  0.01537  1.0000
  C   C265      1.0  0.20510  0.82938  0.01059  1.0000
  S   S76       1.0  0.33499  0.97698  0.12596  1.0000
  H   H317      1.0  0.24376  0.83947  0.03019  1.0000
  C   C266      1.0  0.33888  0.98783  0.25467  1.0000
  H   H318      1.0  0.09774  0.78043  0.12163  1.0000
  H   H319      1.0  0.11786  0.75488  0.14990  1.0000
  H   H320      1.0  0.02531  0.97047  0.22996  1.0000
  C   C267      1.0  0.08977  0.50926  0.25184  1.0000
  Fe  Fe41      1.0  0.10275  0.51838  0.14329  1.0000
  C   C268      1.0  0.42732  0.99308  0.29830  1.0000
  N   N18       1.0  0.47623  0.96048  0.30681  1.0000
  H   H321      1.0  0.32732  0.88767  0.16559  1.0000
  C   C269      1.0  0.09265  0.75106  0.15457  1.0000
  H   H322      1.0  0.10999  0.81093  0.15205  1.0000
  H   H323      1.0  0.20911  0.89436  0.16001  1.0000
  C   C270      1.0  0.01427  0.79707  0.14917  1.0000
  H   H324      1.0  0.12304  0.68501  0.06674  1.0000
  S   S77       1.0  0.13763  0.49681  0.12159  1.0000
  H   H325      1.0  0.16417  0.56363  0.26458  1.0000
  H   H326      1.0  0.49184  0.98031  0.26945  1.0000
  H   H327      1.0  0.08178  0.80898  0.17135  1.0000
  H   H328      1.0  0.16434  0.53292  0.23440  1.0000
  H   H329      1.0  0.06224  0.75603  0.12028  1.0000
  H   H330      1.0  0.04895  0.92369  0.07580  1.0000
  H   H331      1.0  0.27078  0.97562  0.17918  1.0000
  H   H332      1.0  0.27125  0.99227  0.14108  1.0000
  H   H333      1.0  0.43229  0.94713  0.07966  1.0000
  C   C271      1.0  0.99877  0.98066  0.25552  1.0000
  C   C272      1.0  0.00119  0.68893  0.12655  1.0000
  H   H334      1.0  0.29832  0.85178  0.14436  1.0000
  H   H335      1.0  0.17067  0.53630  0.29519  1.0000
  H   H336      1.0  0.23936  0.85476  0.14129  1.0000
  C   C273      1.0  0.16824  0.53790  0.26492  1.0000
  H   H337      1.0  0.00196  0.63739  0.12821  1.0000
  H   H338      1.0  0.23669  0.93132  0.18166  1.0000
  C   C274      1.0  0.02052  0.94011  0.09932  1.0000
  H   H339      1.0  0.45613  0.91675  0.29539  1.0000
  H   H340      1.0  0.49221  0.96210  0.11375  1.0000
  H   H341      1.0  0.39531  0.96985  0.22165  1.0000
  C   C275      1.0  0.46923  0.98889  0.27476  1.0000
  H   H342      1.0  0.28481  0.84458  0.00483  1.0000
  H   H343      1.0  0.30136  0.95235  0.21821  1.0000
  H   H344      1.0  0.02082  0.81830  0.14132  1.0000
  C   C276      1.0  0.45907  0.92966  0.30923  1.0000
  C   C277      1.0  0.29652  0.96924  0.18073  1.0000
  H   H345      1.0  0.05938  0.79898  0.12058  1.0000
  C   C278      1.0  0.08416  0.80788  0.15555  1.0000
  C   C279      1.0  0.34803  0.96620  0.26923  1.0000
  H   H346      1.0  0.00317  0.92215  0.05320  1.0000
  C   C280      1.0  0.03738  0.77321  0.15377  1.0000
  C   C281      1.0  0.38193  0.96885  0.23478  1.0000
  H   H347      1.0  0.21544  0.68142  0.09354  1.0000
  H   H348      1.0  0.17486  0.71068  0.07461  1.0000
  H   H349      1.0  0.04185  0.72609  0.16780  1.0000
  C   C282      1.0  0.09183  0.50377  0.23204  1.0000
  H   H350      1.0  0.34798  0.94943  0.20012  1.0000
  C   C283      1.0  0.07263  0.77819  0.12672  1.0000
  N   N19       1.0  0.15141  0.58974  0.09892  1.0000
  C   C284      1.0  0.11904  0.57731  0.09387  1.0000
  C   C285      1.0  0.17533  0.56755  0.09057  1.0000
  C   C286      1.0  0.15452  0.58853  0.12001  1.0000
  C   C287      1.0  0.15728  0.62288  0.09207  1.0000
  C   C288      1.0  0.18695  0.63834  0.09606  1.0000
  C   C289      1.0  0.13436  0.64057  0.08118  1.0000
  C   C290      1.0  0.19314  0.66956  0.08973  1.0000
  C   C291      1.0  0.14103  0.67163  0.07469  1.0000
  H   H351      1.0  0.28954  0.91125  0.21448  1.0000
  H   H352      1.0  0.11527  0.57615  0.07816  1.0000
  H   H353      1.0  0.11540  0.55243  0.09932  1.0000
  H   H354      1.0  0.09983  0.59233  0.10034  1.0000
  H   H355      1.0  0.17461  0.56854  0.07471  1.0000
  H   H356      1.0  0.17084  0.54215  0.09492  1.0000
  H   H357      1.0  0.20015  0.57323  0.09533  1.0000
  H   H358      1.0  0.13627  0.60403  0.12688  1.0000
  H   H359      1.0  0.15098  0.56370  0.12547  1.0000
  H   H360      1.0  0.17842  0.59630  0.12530  1.0000
  H   H361      1.0  0.20547  0.62657  0.10435  1.0000
  H   H362      1.0  0.11088  0.63126  0.07775  1.0000
  H   H363      1.0  0.30754  0.98801  0.18998  1.0000
  H   H364      1.0  0.26270  0.94381  0.20880  1.0000
  C   C292      1.0  0.16854  0.52070  0.24787  1.0000
  N   N20       1.0  0.30139  0.93669  0.18877  1.0000
  H   H365      1.0  0.43461  0.93335  0.31485  1.0000
  C   C293      1.0  0.17028  0.68612  0.07901  1.0000
  H   H366      1.0  0.34194  0.90723  0.19666  1.0000
  C   C294      1.0  0.28485  0.91295  0.17636  1.0000
  C   C295      1.0  0.25096  0.91367  0.17430  1.0000
  C   C296      1.0  0.30156  0.88974  0.16532  1.0000
  C   C297      1.0  0.23487  0.89253  0.16201  1.0000
  C   C298      1.0  0.28517  0.86877  0.15302  1.0000
  C   C299      1.0  0.25193  0.87022  0.15135  1.0000
  H   H367      1.0  0.41652  0.98699  0.31176  1.0000
  C   C300      1.0  0.28807  0.93587  0.20835  1.0000
  H   H368      1.0  0.34860  0.93376  0.17652  1.0000
  C   C301      1.0  0.42937  0.94989  0.09536  1.0000
  H   H369      1.0  0.44710  0.93383  0.10246  1.0000
  C   C302      1.0  0.02522  0.93069  0.08049  1.0000
  H   H370      1.0  0.30749  0.97122  0.16636  1.0000
  C   C303      1.0  0.45797  0.98106  0.29330  1.0000
  C   C304      1.0  0.35576  0.98932  0.23740  1.0000
  C   C305      1.0  0.02553  0.98256  0.24369  1.0000
  H   H371      1.0  0.17205  0.90438  0.01713  1.0000
  N   N21       1.0  0.43342  0.98390  0.10122  1.0000
  H   H372      1.0  0.14076  0.49921  0.31431  1.0000
  C   C306      1.0  0.17921  0.90878  0.00250  1.0000
  C   C307      1.0  0.02626  0.74575  0.16382  1.0000
  C   C308      1.0  0.99933  0.92960  0.06783  1.0000
  C   C309      1.0  0.17211  0.52198  0.28236  1.0000
  H   H373      1.0  0.38279  0.99368  0.09753  1.0000
  H   H374      1.0  0.40577  0.97930  0.12702  1.0000
  C   C310      1.0  0.43025  0.98603  0.12224  1.0000
  H   H375      1.0  0.47688  0.50175  0.18679  1.0000
  C   C311      1.0  0.47901  0.97650  0.32572  1.0000
  C   C312      1.0  0.49362  0.98128  0.10342  1.0000
  S   S78       1.0  0.38627  0.99527  0.16932  1.0000
  C   C313      1.0  0.46553  0.99546  0.09550  1.0000
  S   S79       1.0  0.33198  0.50045  0.62795  1.0000
  Fe  Fe42      1.0  0.33439  0.58652  0.40211  1.0000
  S   S80       1.0  0.30751  0.61536  0.38001  1.0000
  S   S81       1.0  0.38752  0.57279  0.40142  1.0000
  Fe  Fe43      1.0  0.28035  0.59459  0.43223  1.0000
  S   S82       1.0  0.25030  0.62435  0.41219  1.0000
  S   S83       1.0  0.27036  0.58117  0.46343  1.0000
  Fe  Fe44      1.0  0.26392  0.58774  0.38987  1.0000
  S   S84       1.0  0.22514  0.57325  0.36834  1.0000
  Fe  Fe45      1.0  0.29613  0.64926  0.40392  1.0000
  S   S85       1.0  0.30242  0.70355  0.40477  1.0000
  S   S86       1.0  0.29163  0.55624  0.41036  1.0000
  S   S87       1.0  0.32518  0.62212  0.42558  1.0000
  H   H376      1.0  0.40705  0.71110  0.36237  1.0000
  Fe  Fe46      1.0  0.36371  0.85221  0.34332  1.0000
  S   S88       1.0  0.37080  0.88343  0.36926  1.0000
  H   H377      1.0  0.22137  0.75051  0.40000  1.0000
  Fe  Fe47      1.0  0.33876  0.91903  0.35372  1.0000
  Fe  Fe48      1.0  0.41126  0.90626  0.35312  1.0000
  S   S89       1.0  0.46105  0.92180  0.36311  1.0000
  C   C314      1.0  0.04934  0.51573  0.65599  1.0000
  C   C315      1.0  0.25957  0.93635  0.62620  1.0000
  H   H378      1.0  0.34901  0.97342  0.62095  1.0000
  Fe  Fe49      1.0  0.05086  0.91466  0.64921  1.0000
  Fe  Fe50      1.0  0.12159  0.92905  0.64188  1.0000
  H   H379      1.0  0.08150  0.52905  0.61327  1.0000
  C   C316      1.0  0.26143  0.78865  0.35584  1.0000
  S   S90       1.0  0.08664  0.89297  0.62932  1.0000
  H   H380      1.0  0.16183  0.64823  0.39731  1.0000
  Fe  Fe51      1.0  0.16832  0.58924  0.59518  1.0000
  S   S91       1.0  0.13045  0.57518  0.57348  1.0000
  S   S92       1.0  0.18786  0.54678  0.61246  1.0000
  Fe  Fe52      1.0  0.15739  0.66106  0.58806  1.0000
  S   S93       1.0  0.11969  0.65135  0.56582  1.0000
  S   S94       1.0  0.16977  0.71368  0.59295  1.0000
  Fe  Fe53      1.0  0.10054  0.61461  0.58629  1.0000
  S   S95       1.0  0.04814  0.61943  0.59532  1.0000
  Fe  Fe54      1.0  0.15311  0.61308  0.55485  1.0000
  S   S96       1.0  0.15741  0.60599  0.52244  1.0000
  S   S97       1.0  0.13686  0.62639  0.60917  1.0000
  S   S98       1.0  0.19247  0.62507  0.57588  1.0000
  C   C317      1.0  0.25588  0.75556  0.35655  1.0000
  C   C318      1.0  0.22825  0.53516  0.61701  1.0000
  C   C319      1.0  0.25439  0.55373  0.61125  1.0000
  H   H381      1.0  0.19910  0.98017  0.59383  1.0000
  C   C320      1.0  0.15386  0.52984  0.41236  1.0000
  N   N22       1.0  0.09635  0.54540  0.64108  1.0000
  H   H382      1.0  0.21677  0.92639  0.64204  1.0000
  H   H383      1.0  0.25036  0.57658  0.60428  1.0000
  C   C321      1.0  0.16514  0.53247  0.44595  1.0000
  C   C322      1.0  0.23167  0.76145  0.38743  1.0000
  H   H384      1.0  0.13929  0.57391  0.64486  1.0000
  C   C323      1.0  0.15135  0.73908  0.60996  1.0000
  C   C324      1.0  0.15550  0.77254  0.60856  1.0000
  C   C325      1.0  0.14088  0.79357  0.62165  1.0000
  C   C326      1.0  0.12227  0.78124  0.63643  1.0000
  C   C327      1.0  0.11846  0.74775  0.63797  1.0000
  C   C328      1.0  0.13273  0.72676  0.62474  1.0000
  H   H385      1.0  0.17002  0.78224  0.59723  1.0000
  H   H386      1.0  0.14406  0.81927  0.62034  1.0000
  C   C329      1.0  0.28836  0.98608  0.63449  1.0000
  H   H387      1.0  0.12960  0.70107  0.62608  1.0000
  H   H388      1.0  0.09023  0.99004  0.56655  1.0000
  H   H389      1.0  0.22906  0.80821  0.39904  1.0000
  C   C330      1.0  0.02161  0.55780  0.59625  1.0000
  C   C331      1.0  0.01802  0.59049  0.60042  1.0000
  C   C332      1.0  0.24131  0.74194  0.37239  1.0000
  H   H390      1.0  0.36262  0.66310  0.38216  1.0000
  H   H391      1.0  0.00019  0.51056  0.59777  1.0000
  H   H392      1.0  0.04291  0.54953  0.58910  1.0000
  H   H393      1.0  0.47671  0.68779  0.38234  1.0000
  C   C333      1.0  0.24021  0.59401  0.47964  1.0000
  C   C334      1.0  0.24631  0.59211  0.49942  1.0000
  C   C335      1.0  0.22187  0.59800  0.51280  1.0000
  C   C336      1.0  0.19061  0.60459  0.50656  1.0000
  C   C337      1.0  0.18478  0.60751  0.48681  1.0000
  C   C338      1.0  0.20948  0.60279  0.47344  1.0000
  H   H394      1.0  0.26999  0.58543  0.50442  1.0000
  H   H395      1.0  0.22698  0.59623  0.52787  1.0000
  H   H396      1.0  0.16087  0.61333  0.48189  1.0000
  H   H397      1.0  0.20459  0.60506  0.45835  1.0000
  H   H398      1.0  0.21621  0.86013  0.38395  1.0000
  C   C339      1.0  0.04279  0.57143  0.64674  1.0000
  H   H399      1.0  0.46680  0.90574  0.44374  1.0000
  C   C340      1.0  0.20330  0.53678  0.36776  1.0000
  H   H400      1.0  0.47860  0.89167  0.47740  1.0000
  C   C341      1.0  0.32677  0.98197  0.41249  1.0000
  C   C342      1.0  0.25774  0.50437  0.50601  1.0000
  H   H401      1.0  0.05022  0.99494  0.61426  1.0000
  H   H402      1.0  0.31530  0.94588  0.43314  1.0000
  C   C343      1.0  0.06309  0.54414  0.64828  1.0000
  C   C344      1.0  0.34366  0.77115  0.35940  1.0000
  C   C345      1.0  0.34139  0.78086  0.37843  1.0000
  C   C346      1.0  0.32909  0.75968  0.39218  1.0000
  C   C347      1.0  0.31992  0.72826  0.38718  1.0000
  C   C348      1.0  0.32384  0.71792  0.36835  1.0000
  C   C349      1.0  0.33559  0.73935  0.35451  1.0000
  H   H403      1.0  0.34885  0.80478  0.38251  1.0000
  H   H404      1.0  0.32648  0.76771  0.40677  1.0000
  H   H405      1.0  0.31663  0.69389  0.36429  1.0000
  N   N23       1.0  0.17083  0.54854  0.42737  1.0000
  C   C350      1.0  0.45506  0.54290  0.35290  1.0000
  C   C351      1.0  0.46727  0.55364  0.37043  1.0000
  C   C352      1.0  0.44622  0.56341  0.38494  1.0000
  C   C353      1.0  0.41281  0.56308  0.38202  1.0000
  C   C354      1.0  0.40063  0.55345  0.36425  1.0000
  C   C355      1.0  0.42168  0.54311  0.34985  1.0000
  H   H406      1.0  0.25086  0.85697  0.39972  1.0000
  H   H407      1.0  0.45586  0.57078  0.39864  1.0000
  H   H408      1.0  0.37500  0.55291  0.36183  1.0000
  H   H409      1.0  0.05092  0.59344  0.64018  1.0000
  H   H410      1.0  0.45724  0.85525  0.37616  1.0000
  S   S99       1.0  0.15379  0.95275  0.61965  1.0000
  H   H411      1.0  0.05079  0.95250  0.61809  1.0000
  C   C356      1.0  0.29427  0.84750  0.37361  1.0000
  C   C357      1.0  0.25504  0.50484  0.52591  1.0000
  H   H412      1.0  0.17806  0.59214  0.39820  1.0000
  H   H413      1.0  0.45880  0.54183  0.61413  1.0000
  C   C358      1.0  0.23410  0.50577  0.62630  1.0000
  H   H414      1.0  0.11971  0.54899  0.61386  1.0000
  C   C359      1.0  0.01104  0.57055  0.65289  1.0000
  C   C360      1.0  0.25114  0.85831  0.35143  1.0000
  C   C361      1.0  0.25143  0.80938  0.37076  1.0000
  H   H415      1.0  0.15842  0.53940  0.39784  1.0000
  H   H416      1.0  0.19184  0.50148  0.57842  1.0000
  S   S100      1.0  0.37997  0.94457  0.33972  1.0000
  H   H417      1.0  0.08252  0.93176  0.57029  1.0000
  C   C362      1.0  0.20586  0.54719  0.42386  1.0000
  C   C363      1.0  0.15627  0.63387  0.40975  1.0000
  H   H418      1.0  0.21936  0.56202  0.43448  1.0000
  H   H419      1.0  0.17732  0.54557  0.45786  1.0000
  H   H420      1.0  0.27502  0.79753  0.34389  1.0000
  H   H421      1.0  0.04639  0.78720  0.60343  1.0000
  C   C364      1.0  0.13294  0.62910  0.44096  1.0000
  C   C365      1.0  0.14010  0.64762  0.42501  1.0000
  H   H422      1.0  0.10344  0.59672  0.64478  1.0000
  H   H423      1.0  0.17122  0.51265  0.55729  1.0000
  H   H424      1.0  0.25699  0.91519  0.61728  1.0000
  H   H425      1.0  0.30165  0.83653  0.38744  1.0000
  H   H426      1.0  0.10419  0.73801  0.64940  1.0000
  C   C366      1.0  0.21275  0.50996  0.37842  1.0000
  H   H427      1.0  0.10528  0.93500  0.59213  1.0000
  H   H428      1.0  0.24770  0.88948  0.38355  1.0000
  C   C367      1.0  0.17500  0.53512  0.35674  1.0000
  S   S101      1.0  0.35505  0.79811  0.34113  1.0000
  H   H429      1.0  0.08373  0.57183  0.61565  1.0000
  H   H430      1.0  0.23860  0.71608  0.37333  1.0000
  H   H431      1.0  0.08347  0.76637  0.60310  1.0000
  H   H432      1.0  0.03452  0.76953  0.57049  1.0000
  H   H433      1.0  0.06189  0.70006  0.61264  1.0000
  C   C368      1.0  0.15965  0.58231  0.42673  1.0000
  H   H434      1.0  0.12745  0.53043  0.41443  1.0000
  H   H435      1.0  0.21232  0.55604  0.40947  1.0000
  H   H436      1.0  0.03476  0.72753  0.56451  1.0000
  C   C369      1.0  0.09530  0.54895  0.62006  1.0000
  C   C370      1.0  0.43895  0.52420  0.61228  1.0000
  S   S102      1.0  0.29591  0.93797  0.37067  1.0000
  S   S103      1.0  0.99888  0.92787  0.64266  1.0000
  H   H437      1.0  0.30838  0.83577  0.36216  1.0000
  C   C371      1.0  0.48999  0.89459  0.37240  1.0000
  C   C372      1.0  0.49027  0.89671  0.44778  1.0000
  H   H438      1.0  0.41200  0.53484  0.33633  1.0000
  C   C373      1.0  0.06257  0.70791  0.59746  1.0000
  C   C374      1.0  0.15582  0.50727  0.35678  1.0000
  C   C375      1.0  0.04610  0.74613  0.57382  1.0000
  C   C376      1.0  0.05748  0.76336  0.60606  1.0000
  S   S104      1.0  0.10216  0.80644  0.65283  1.0000
  H   H439      1.0  0.34959  0.98095  0.64622  1.0000
  H   H440      1.0  0.30161  0.87306  0.37400  1.0000
  H   H441      1.0  0.23464  0.51079  0.38681  1.0000
  H   H442      1.0  0.41625  0.62156  0.35007  1.0000
  H   H443      1.0  0.27866  0.98020  0.45101  1.0000
  H   H444      1.0  0.26625  0.84887  0.33972  1.0000
  C   C377      1.0  0.23695  0.94250  0.64022  1.0000
  C   C378      1.0  0.34621  0.99235  0.63199  1.0000
  H   H445      1.0  0.05508  0.75813  0.62158  1.0000
  H   H446      1.0  0.37681  0.65964  0.35823  1.0000
  S   S105      1.0  0.40644  0.87259  0.32840  1.0000
  H   H447      1.0  0.13910  0.53054  0.44906  1.0000
  H   H448      1.0  0.30150  0.95219  0.61206  1.0000
  C   C379      1.0  0.03234  0.96747  0.58146  1.0000
  C   C380      1.0  0.22066  0.55189  0.56060  1.0000
  H   H449      1.0  0.39823  0.66687  0.40863  1.0000
  C   C381      1.0  0.11373  0.57333  0.64940  1.0000
  N   N24       1.0  0.25942  0.84404  0.37029  1.0000
  C   C382      1.0  0.08062  0.93618  0.58590  1.0000
  C   C383      1.0  0.44959  0.49749  0.64192  1.0000
  H   H450      1.0  0.18319  0.53000  0.49382  1.0000
  C   C384      1.0  0.20294  0.52191  0.50273  1.0000
  H   H451      1.0  0.46907  0.51454  0.64589  1.0000
  H   H452      1.0  0.43346  0.52227  0.59678  1.0000
  H   H453      1.0  0.26444  0.74019  0.34518  1.0000
  H   H454      1.0  0.21790  0.55566  0.57619  1.0000
  H   H455      1.0  0.05433  0.68769  0.58821  1.0000
  S   S106      1.0  0.48029  0.52737  0.33481  1.0000
  N   N25       1.0  0.06509  0.96753  0.58981  1.0000
  C   C385      1.0  0.23645  0.79470  0.38670  1.0000
  H   H456      1.0  0.06711  0.91570  0.59201  1.0000
  H   H457      1.0  0.19975  0.56358  0.55348  1.0000
  H   H458      1.0  0.24669  0.50474  0.58235  1.0000
  C   C386      1.0  0.46543  0.62284  0.34330  1.0000
  N   N26       1.0  0.04312  0.73738  0.59424  1.0000
  C   C387      1.0  0.14225  0.59683  0.44183  1.0000
  Fe  Fe55      1.0  0.10120  0.86121  0.65373  1.0000
  H   H459      1.0  0.00810  0.86914  0.62034  1.0000
  H   H460      1.0  0.24248  0.56517  0.55612  1.0000
  H   H461      1.0  0.45561  0.97823  0.33313  1.0000
  C   C388      1.0  0.25051  0.50362  0.56664  1.0000
  H   H462      1.0  0.13602  0.58402  0.45465  1.0000
  H   H463      1.0  0.07170  0.74826  0.56958  1.0000
  S   S107      1.0  0.32969  0.88624  0.32848  1.0000
  H   H464      1.0  0.25520  0.88482  0.35128  1.0000
  H   H465      1.0  0.00961  0.68212  0.60640  1.0000
  H   H466      1.0  0.08832  0.71174  0.59399  1.0000
  H   H467      1.0  0.21533  0.52222  0.42472  1.0000
  C   C389      1.0  0.24264  0.86327  0.38505  1.0000
  H   H468      1.0  0.11056  0.99235  0.58901  1.0000
  C   C390      1.0  0.16570  0.60167  0.41047  1.0000
  N   N27       1.0  0.41383  0.66843  0.37933  1.0000
  C   C391      1.0  0.41036  0.70383  0.37757  1.0000
  C   C392      1.0  0.38280  0.65393  0.37337  1.0000
  C   C393      1.0  0.41918  0.66016  0.39970  1.0000
  C   C394      1.0  0.44146  0.65715  0.36797  1.0000
  C   C395      1.0  0.47261  0.66977  0.37148  1.0000
  C   C396      1.0  0.43869  0.63314  0.35356  1.0000
  H   H469      1.0  0.16736  0.55589  0.34861  1.0000
  H   H470      1.0  0.30601  0.55739  0.61024  1.0000
  C   C397      1.0  0.22596  0.51412  0.53482  1.0000
  H   H471      1.0  0.13313  0.67270  0.42450  1.0000
  H   H472      1.0  0.38922  0.71290  0.38556  1.0000
  H   H473      1.0  0.43138  0.71712  0.38333  1.0000
  C   C398      1.0  0.25201  0.98214  0.38352  1.0000
  C   C399      1.0  0.11552  0.51621  0.64555  1.0000
  C   C400      1.0  0.28597  0.54281  0.61468  1.0000
  H   H474      1.0  0.42295  0.63380  0.40146  1.0000
  H   H475      1.0  0.44041  0.67256  0.40590  1.0000
  H   H476      1.0  0.38288  0.62738  0.37528  1.0000
  H   H477      1.0  0.41701  0.53458  0.61888  1.0000
  H   H478      1.0  0.01478  0.92821  0.59923  1.0000
  C   C401      1.0  0.27864  0.97702  0.37169  1.0000
  H   H479      1.0  0.08759  0.97397  0.61746  1.0000
  C   C402      1.0  0.06331  0.97242  0.61076  1.0000
  H   H480      1.0  0.17467  0.50745  0.44608  1.0000
  C   C403      1.0  0.26472  0.99171  0.64861  1.0000
  H   H481      1.0  0.22559  0.85382  0.34763  1.0000
  H   H482      1.0  0.24222  0.96225  0.39147  1.0000
  H   H483      1.0  0.99584  0.59156  0.65134  1.0000
  C   C404      1.0  0.29180  0.51343  0.62404  1.0000
  H   H484      1.0  0.16146  0.50417  0.41223  1.0000
  C   C405      1.0  0.23965  0.96998  0.65146  1.0000
  C   C406      1.0  0.28496  0.95770  0.62336  1.0000
  N   N28       1.0  0.22295  0.51734  0.55578  1.0000
  H   H485      1.0  0.42690  0.50750  0.64774  1.0000
  H   H486      1.0  0.27303  0.51724  0.56414  1.0000
  H   H487      1.0  0.46289  0.60425  0.33251  1.0000
  H   H488      1.0  0.14073  0.51856  0.64055  1.0000
  H   H489      1.0  0.12040  0.63990  0.45285  1.0000
  H   H490      1.0  0.33752  0.73157  0.33983  1.0000
  C   C407      1.0  0.00880  0.73350  0.59900  1.0000
  H   H491      1.0  0.28039  0.49827  0.49947  1.0000
  C   C408      1.0  0.00915  0.94519  0.58802  1.0000
  C   C409      1.0  0.02260  0.98869  0.56660  1.0000
  C   C410      1.0  0.29015  0.99023  0.43862  1.0000
  H   H492      1.0  0.23455  0.51393  0.47910  1.0000
  H   H493      1.0  0.40358  0.49812  0.40700  1.0000
  H   H494      1.0  0.34242  0.96635  0.40439  1.0000
  C   C411      1.0  0.99723  0.53579  0.60104  1.0000
  C   C412      1.0  0.31123  0.97043  0.42859  1.0000
  C   C413      1.0  0.19354  0.50093  0.56253  1.0000
  H   H495      1.0  0.17777  0.53190  0.52821  1.0000
  C   C414      1.0  0.20003  0.52273  0.52258  1.0000
  C   C415      1.0  0.23180  0.51297  0.49446  1.0000
  C   C416      1.0  0.48171  0.86343  0.37789  1.0000
  C   C417      1.0  0.17662  0.98881  0.62094  1.0000
  H   H496      1.0  0.13327  0.50691  0.34907  1.0000
  C   C418      1.0  0.08628  0.99305  0.58214  1.0000
  H   H497      1.0  0.27631  0.49864  0.53396  1.0000
  H   H498      1.0  0.49285  0.55378  0.37298  1.0000
  C   C419      1.0  0.99544  0.70375  0.60499  1.0000
  H   H499      1.0  0.99566  0.78324  0.59266  1.0000
  Fe  Fe56      1.0  0.26396  0.79234  0.89692  1.0000
  S   S108      1.0  0.30809  0.79580  0.91522  1.0000
  S   S109      1.0  0.24610  0.74273  0.88838  1.0000
  Fe  Fe57      1.0  0.25575  0.86585  0.89470  1.0000
  S   S110      1.0  0.30055  0.87343  0.91243  1.0000
  S   S111      1.0  0.23528  0.91382  0.88411  1.0000
  Fe  Fe58      1.0  0.32317  0.83449  0.89475  1.0000
  S   S112      1.0  0.36830  0.82953  0.87682  1.0000
  Fe  Fe59      1.0  0.28089  0.83414  0.93124  1.0000
  S   S113      1.0  0.28250  0.83922  0.96390  1.0000
  S   S114      1.0  0.27966  0.82941  0.87580  1.0000
  S   S115      1.0  0.23540  0.82806  0.91428  1.0000
  C   C420      1.0  0.24589  0.74012  0.94136  1.0000
  Fe  Fe60      1.0  0.39095  0.53581  0.84456  1.0000
  S   S116      1.0  0.38062  0.57510  0.82367  1.0000
  S   S117      1.0  0.44324  0.52117  0.84870  1.0000
  S   S118      1.0  0.30460  0.56385  0.83066  1.0000
  Fe  Fe61      1.0  0.34258  0.54245  0.81158  1.0000
  Fe  Fe62      1.0  0.34402  0.59258  0.84463  1.0000
  S   S119      1.0  0.34732  0.64580  0.85217  1.0000
  S   S120      1.0  0.35679  0.55498  0.86631  1.0000
  H   H500      1.0  0.25532  0.93731  0.94787  1.0000
  C   C421      1.0  0.01734  0.51502  0.66180  1.0000
  H   H501      1.0  0.01164  0.96913  0.85247  1.0000
  H   H502      1.0  0.43450  0.94845  0.79284  1.0000
  H   H503      1.0  0.20278  0.95343  0.92040  1.0000
  H   H504      1.0  0.24815  0.91981  0.92502  1.0000
  Fe  Fe63      1.0  0.09901  0.91754  0.68271  1.0000
  S   S121      1.0  0.10113  0.92302  0.71526  1.0000
  H   H505      1.0  0.47585  0.93741  0.79039  1.0000
  C   C422      1.0  0.42732  0.92765  0.82966  1.0000
  C   C423      1.0  0.09307  0.95014  0.75071  1.0000
  C   C424      1.0  0.09674  0.95617  0.73108  1.0000
  C   C425      1.0  0.48091  0.90843  0.82477  1.0000
  C   C426      1.0  0.25032  0.70937  0.97017  1.0000
  H   H506      1.0  0.09283  0.92558  0.75576  1.0000
  H   H507      1.0  0.39834  0.93123  0.87535  1.0000
  H   H508      1.0  0.01445  0.89260  0.70238  1.0000
  C   C427      1.0  0.02019  0.95372  0.69449  1.0000
  Fe  Fe64      1.0  0.31915  0.52476  0.85137  1.0000
  H   H509      1.0  0.99479  0.89572  0.72475  1.0000
  H   H510      1.0  0.39837  0.90787  0.80605  1.0000
  C   C428      1.0  0.22022  0.82796  0.97672  1.0000
  C   C429      1.0  0.09717  0.98803  0.72476  1.0000
  H   H511      1.0  0.21344  0.82464  0.96193  1.0000
  C   C430      1.0  0.19649  0.92880  0.87824  1.0000
  C   C431      1.0  0.16848  0.91113  0.88125  1.0000
  C   C432      1.0  0.13827  0.92485  0.87704  1.0000
  C   C433      1.0  0.13574  0.95607  0.86944  1.0000
  C   C434      1.0  0.16378  0.97358  0.86625  1.0000
  C   C435      1.0  0.19390  0.96010  0.87080  1.0000
  H   H512      1.0  0.17002  0.88692  0.88676  1.0000
  H   H513      1.0  0.11674  0.91106  0.87949  1.0000
  C   C436      1.0  0.39948  0.91404  0.82099  1.0000
  H   H514      1.0  0.21539  0.97404  0.86855  1.0000
  C   C437      1.0  0.40588  0.84911  0.87873  1.0000
  C   C438      1.0  0.42902  0.84330  0.86466  1.0000
  C   C439      1.0  0.45887  0.85907  0.86520  1.0000
  C   C440      1.0  0.46581  0.88094  0.87982  1.0000
  C   C441      1.0  0.44296  0.88621  0.89412  1.0000
  C   C442      1.0  0.41311  0.87038  0.89361  1.0000
  H   H515      1.0  0.42367  0.82668  0.85319  1.0000
  C   C443      1.0  0.37222  0.90704  0.83172  1.0000
  H   H516      1.0  0.44820  0.90298  0.90554  1.0000
  H   H517      1.0  0.39560  0.87490  0.90457  1.0000
  C   C444      1.0  0.27439  0.71535  0.87885  1.0000
  C   C445      1.0  0.26478  0.68409  0.87370  1.0000
  C   C446      1.0  0.28694  0.66199  0.86608  1.0000
  C   C447      1.0  0.31885  0.67117  0.86334  1.0000
  C   C448      1.0  0.32851  0.70211  0.86896  1.0000
  C   C449      1.0  0.30649  0.72405  0.87671  1.0000
  H   H518      1.0  0.24008  0.67699  0.87557  1.0000
  H   H519      1.0  0.27924  0.63804  0.86218  1.0000
  H   H520      1.0  0.35316  0.70940  0.86706  1.0000
  H   H521      1.0  0.31436  0.74792  0.88071  1.0000
  N   N29       1.0  0.30196  0.66765  0.80301  1.0000
  C   C450      1.0  0.33152  0.64947  0.79823  1.0000
  C   C451      1.0  0.28126  0.64578  0.81418  1.0000
  C   C452      1.0  0.28530  0.67562  0.78484  1.0000
  C   C453      1.0  0.30820  0.69769  0.81387  1.0000
  C   C454      1.0  0.28229  0.71692  0.82030  1.0000
  C   C455      1.0  0.33964  0.70927  0.81788  1.0000
  C   C456      1.0  0.28752  0.74560  0.83029  1.0000
  C   C457      1.0  0.34456  0.73821  0.82767  1.0000
  C   C458      1.0  0.31860  0.75630  0.83390  1.0000
  H   H522      1.0  0.34515  0.64264  0.81136  1.0000
  H   H523      1.0  0.32604  0.62655  0.79059  1.0000
  H   H524      1.0  0.34753  0.66355  0.78879  1.0000
  H   H525      1.0  0.25747  0.65629  0.81737  1.0000
  H   H526      1.0  0.29281  0.63966  0.82806  1.0000
  H   H527      1.0  0.27670  0.62272  0.80654  1.0000
  H   H528      1.0  0.28110  0.65380  0.77592  1.0000
  H   H529      1.0  0.26147  0.68679  0.78726  1.0000
  H   H530      1.0  0.29965  0.69285  0.77629  1.0000
  H   H531      1.0  0.25771  0.70981  0.81787  1.0000
  H   H532      1.0  0.36088  0.69601  0.81411  1.0000
  H   H533      1.0  0.26740  0.75930  0.83569  1.0000
  H   H534      1.0  0.36869  0.74619  0.83106  1.0000
  H   H535      1.0  0.32260  0.77814  0.84207  1.0000
  H   H536      1.0  0.34398  0.54148  0.73791  1.0000
  H   H537      1.0  0.45285  0.98464  0.82109  1.0000
  S   S122      1.0  0.09713  0.97265  0.86481  1.0000
  C   C459      1.0  0.34142  0.66440  0.93259  1.0000
  H   H538      1.0  0.25840  0.75363  0.92996  1.0000
  N   N30       1.0  0.20709  0.91963  0.94363  1.0000
  C   C460      1.0  0.42608  0.93352  0.84961  1.0000
  H   H539      1.0  0.20027  0.89241  0.91768  1.0000
  C   C461      1.0  0.19697  0.82516  0.99117  1.0000
  C   C462      1.0  0.19814  0.91706  0.96398  1.0000
  H   H540      1.0  0.34772  0.49770  0.71385  1.0000
  N   N31       1.0  0.26895  0.72726  0.95575  1.0000
  C   C463      1.0  0.48428  0.59314  0.88029  1.0000
  C   C464      1.0  0.37176  0.91347  0.85121  1.0000
  H   H541      1.0  0.24656  0.91191  0.97641  1.0000
  C   C465      1.0  0.99578  0.96133  0.72634  1.0000
  H   H542      1.0  0.20632  0.97130  0.94376  1.0000
  C   C466      1.0  0.39849  0.92703  0.86008  1.0000
  C   C467      1.0  0.25204  0.83521  0.98150  1.0000
  C   C468      1.0  0.34222  0.67300  0.95181  1.0000
  H   H543      1.0  0.49262  0.69899  0.89108  1.0000
  C   C469      1.0  0.31695  0.67582  0.92079  1.0000
  H   H544      1.0  0.11332  0.57265  0.66527  1.0000
  H   H545      1.0  0.23104  0.72457  0.97640  1.0000
  H   H546      1.0  0.15501  0.50710  0.91915  1.0000
  H   H547      1.0  0.31636  0.66899  0.90584  1.0000
  H   H548      1.0  0.44701  0.90664  0.79314  1.0000
  S   S123      1.0  0.28206  0.50251  0.87109  1.0000
  C   C470      1.0  0.47092  0.96538  0.82355  1.0000
  H   H549      1.0  0.48746  0.91032  0.84016  1.0000
  C   C471      1.0  0.01102  0.90863  0.71493  1.0000
  H   H550      1.0  0.16937  0.95316  0.93602  1.0000
  C   C472      1.0  0.19178  0.89316  0.93268  1.0000
  H   H551      1.0  0.29992  0.74841  0.97751  1.0000
  H   H552      1.0  0.08673  0.97046  0.77891  1.0000
  C   C473      1.0  0.31864  0.69327  0.95924  1.0000
  S   S124      1.0  0.34007  0.54228  0.77885  1.0000
  N   N32       1.0  0.44488  0.51356  0.78668  1.0000
  H   H553      1.0  0.32018  0.69905  0.97425  1.0000
  H   H554      1.0  0.48145  0.50021  0.80726  1.0000
  H   H555      1.0  0.23880  0.68775  0.96370  1.0000
  H   H556      1.0  0.04519  0.95601  0.70000  1.0000
  H   H557      1.0  0.99815  0.96745  0.90407  1.0000
  C   C474      1.0  0.47240  0.52170  0.79942  1.0000
  C   C475      1.0  0.29362  0.70581  0.94753  1.0000
  C   C476      1.0  0.28449  0.75521  0.96519  1.0000
  H   H558      1.0  0.26557  0.70112  0.98230  1.0000
  H   H559      1.0  0.49227  0.97083  0.81466  1.0000
  H   H560      1.0  0.35097  0.90710  0.85960  1.0000
  H   H561      1.0  0.01184  0.97748  0.68914  1.0000
  N   N33       1.0  0.45733  0.93321  0.81904  1.0000
  C   C477      1.0  0.47123  0.54609  0.86105  1.0000
  S   S125      1.0  0.08442  0.95332  0.66011  1.0000
  H   H562      1.0  0.22844  0.75715  0.94780  1.0000
  C   C478      1.0  0.08967  0.97555  0.76389  1.0000
  H   H563      1.0  0.17237  0.81992  0.98727  1.0000
  H   H564      1.0  0.47640  0.61457  0.88761  1.0000
  C   C479      1.0  0.16536  0.91733  0.96927  1.0000
  C   C480      1.0  0.19586  0.95073  0.93567  1.0000
  H   H565      1.0  0.40945  0.54085  0.77063  1.0000
  H   H566      1.0  0.43670  0.58137  0.86988  1.0000
  H   H567      1.0  0.14659  0.92019  0.95869  1.0000
  H   H568      1.0  0.01826  0.94978  0.88432  1.0000
  H   H569      1.0  0.27510  0.70393  0.91809  1.0000
  H   H570      1.0  0.47635  0.85438  0.85427  1.0000
  S   S126      1.0  0.06296  0.88080  0.67291  1.0000
  H   H571      1.0  0.02141  0.93771  0.68179  1.0000
  C   C481      1.0  0.29330  0.69611  0.92807  1.0000
  H   H572      1.0  0.36126  0.66395  0.96096  1.0000
  H   H573      1.0  0.29963  0.76885  0.95500  1.0000
  C   C482      1.0  0.22109  0.91313  0.97895  1.0000
  H   H574      1.0  0.16531  0.89557  0.93180  1.0000
  H   H575      1.0  0.23157  0.72070  0.93443  1.0000
  C   C483      1.0  0.24219  0.91763  0.94044  1.0000
  H   H576      1.0  0.19727  0.86950  0.93935  1.0000
  H   H577      1.0  0.35973  0.64880  0.92677  1.0000
  S   S127      1.0  0.35464  0.50160  0.83147  1.0000
  C   C484      1.0  0.46165  0.57429  0.87026  1.0000
  H   H578      1.0  0.44684  0.94189  0.85752  1.0000
  H   H579      1.0  0.03471  0.91092  0.72230  1.0000
  H   H580      1.0  0.35150  0.89590  0.82500  1.0000
  H   H581      1.0  0.10026  0.99308  0.70975  1.0000
  H   H582      1.0  0.42709  0.56199  0.79000  1.0000
  C   C485      1.0  0.45320  0.93137  0.79796  1.0000
  H   H583      1.0  0.47970  0.96727  0.83854  1.0000
  H   H584      1.0  0.25207  0.89413  0.94531  1.0000
  H   H585      1.0  0.22143  0.97505  0.66198  1.0000
  H   H586      1.0  0.26649  0.77227  0.97097  1.0000
  H   H587      1.0  0.47134  0.88378  0.82235  1.0000
  C   C486      1.0  0.34143  0.50979  0.76219  1.0000
  H   H588      1.0  0.49235  0.53292  0.79140  1.0000
  C   C487      1.0  0.34377  0.51671  0.74257  1.0000
  H   H589      1.0  0.18864  0.51075  0.89031  1.0000
  C   C488      1.0  0.43239  0.54413  0.77860  1.0000
  H   H590      1.0  0.46545  0.53920  0.81073  1.0000
  H   H591      1.0  0.44992  0.55509  0.76868  1.0000
  C   C489      1.0  0.01322  0.99049  0.72860  1.0000
  H   H592      1.0  0.41395  0.51455  0.81104  1.0000
  C   C490      1.0  0.41972  0.49896  0.79866  1.0000
  C   C491      1.0  0.15614  0.91299  0.98824  1.0000
  N   N34       1.0  0.99846  0.94060  0.70922  1.0000
  H   H593      1.0  0.11669  0.51178  0.66121  1.0000
  S   S128      1.0  0.13864  0.89541  0.66519  1.0000
  C   C492      1.0  0.99524  0.96112  0.88874  1.0000
  C   C493      1.0  0.99824  0.54234  0.66024  1.0000
  C   C494      1.0  0.16717  0.49601  0.89012  1.0000
  H   H594      1.0  0.13099  0.91228  0.99192  1.0000
  H   H595      1.0  0.83672  0.00446  0.18801  1.0000
  Fe  Fe65      1.0  0.87041  0.03161  0.30823  1.0000
  H   H596      1.0  0.73774  0.10155  0.03514  1.0000
  Fe  Fe66      1.0  0.60384  0.41881  0.13798  1.0000
  S   S129      1.0  0.62213  0.38089  0.15841  1.0000
  Fe  Fe67      1.0  0.53341  0.40464  0.14773  1.0000
  S   S130      1.0  0.54807  0.36682  0.16886  1.0000
  Fe  Fe68      1.0  0.58584  0.40183  0.17876  1.0000
  S   S131      1.0  0.59553  0.40759  0.21100  1.0000
  Fe  Fe69      1.0  0.58262  0.34958  0.14656  1.0000
  S   S132      1.0  0.57925  0.29635  0.13812  1.0000
  S   S133      1.0  0.56945  0.44107  0.15887  1.0000
  S   S134      1.0  0.56613  0.38613  0.12493  1.0000
  Fe  Fe70      1.0  0.67723  0.07084  0.10256  1.0000
  S   S135      1.0  0.64103  0.06246  0.07879  1.0000
  S   S136      1.0  0.69656  0.02781  0.11954  1.0000
  Fe  Fe71      1.0  0.66811  0.14398  0.10070  1.0000
  S   S137      1.0  0.63185  0.14001  0.07724  1.0000
  S   S138      1.0  0.68323  0.19363  0.11121  1.0000
  Fe  Fe72      1.0  0.61097  0.09917  0.09398  1.0000
  S   S139      1.0  0.55644  0.09977  0.09614  1.0000
  Fe  Fe73      1.0  0.66515  0.10402  0.06394  1.0000
  S   S140      1.0  0.66789  0.10987  0.03139  1.0000
  S   S141      1.0  0.64529  0.10553  0.11853  1.0000
  S   S142      1.0  0.70329  0.11001  0.08674  1.0000
  C   C495      1.0  0.60927  0.27012  0.12921  1.0000
  C   C496      1.0  0.64197  0.27476  0.13290  1.0000
  C   C497      1.0  0.66448  0.25139  0.12713  1.0000
  C   C498      1.0  0.65455  0.22322  0.11765  1.0000
  C   C499      1.0  0.62202  0.21913  0.11344  1.0000
  C   C500      1.0  0.59956  0.24244  0.11918  1.0000
  H   H597      1.0  0.64982  0.29591  0.14061  1.0000
  H   H598      1.0  0.68964  0.25493  0.13033  1.0000
  H   H599      1.0  0.61432  0.19804  0.10566  1.0000
  H   H600      1.0  0.57444  0.23903  0.11592  1.0000
  H   H601      1.0  0.54359  0.22075  0.14996  1.0000
  C   C501      1.0  0.52828  0.04453  0.14109  1.0000
  C   C502      1.0  0.54755  0.05973  0.12737  1.0000
  C   C503      1.0  0.53351  0.07971  0.11361  1.0000
  H   H602      1.0  0.66898  0.48840  0.20706  1.0000
  H   H603      1.0  0.97477  0.40678  0.23223  1.0000
  H   H604      1.0  0.53931  0.02908  0.15168  1.0000
  H   H605      1.0  0.57320  0.05589  0.12742  1.0000
  C   C504      1.0  0.70677  0.03544  0.99576  1.0000
  H   H606      1.0  0.59162  0.47792  0.20572  1.0000
  H   H607      1.0  0.66113  0.17929  0.04312  1.0000
  C   C505      1.0  0.76138  0.02194  0.11081  1.0000
  C   C506      1.0  0.73460  0.00851  0.11962  1.0000
  C   C507      1.0  0.67079  0.20228  0.04901  1.0000
  C   C508      1.0  0.50016  0.08422  0.11366  1.0000
  H   H608      1.0  0.75467  0.09921  0.20435  1.0000
  H   H609      1.0  0.75895  0.04434  0.10310  1.0000
  H   H610      1.0  0.73991  0.47015  0.13077  1.0000
  H   H611      1.0  0.55666  0.19686  0.16993  1.0000
  H   H612      1.0  0.70015  0.46008  0.21390  1.0000
  H   H613      1.0  0.57220  0.13781  0.16346  1.0000
  H   H614      1.0  0.70010  0.44107  0.14899  1.0000
  C   C509      1.0  0.59323  0.44087  0.22712  1.0000
  C   C510      1.0  0.59401  0.43499  0.24692  1.0000
  C   C511      1.0  0.50657  0.46785  0.25515  1.0000
  H   H615      1.0  0.81068  0.00573  0.21993  1.0000
  H   H616      1.0  0.66863  0.40401  0.19442  1.0000
  C   C512      1.0  0.70005  0.11166  0.01487  1.0000
  C   C513      1.0  0.73194  0.10645  0.02035  1.0000
  C   C514      1.0  0.98499  0.44832  0.21574  1.0000
  H   H617      1.0  0.51903  0.49191  0.18410  1.0000
  S   S143      1.0  0.87352  0.02611  0.27574  1.0000
  C   C515      1.0  0.67713  0.46300  0.20595  1.0000
  C   C516      1.0  0.59346  0.49241  0.25400  1.0000
  C   C517      1.0  0.79147  0.00657  0.11218  1.0000
  H   H618      1.0  0.95425  0.39871  0.26202  1.0000
  H   H619      1.0  0.64847  0.44910  0.16123  1.0000
  S   S144      1.0  0.64091  0.44274  0.11873  1.0000
  H   H620      1.0  0.59497  0.41046  0.25200  1.0000
  H   H621      1.0  0.81202  0.01733  0.10542  1.0000
  H   H622      1.0  0.78091  0.10246  0.01094  1.0000
  C   C518      1.0  0.96603  0.41432  0.27286  1.0000
  H   H623      1.0  0.52257  0.11061  0.16008  1.0000
  C   C519      1.0  0.95811  0.02797  0.28962  1.0000
  H   H624      1.0  0.71950  0.03542  0.00934  1.0000
  H   H625      1.0  0.95074  0.03944  0.27591  1.0000
  H   H626      1.0  0.59451  0.45545  0.27541  1.0000
  C   C520      1.0  0.51305  0.16093  0.15218  1.0000
  C   C521      1.0  0.98498  0.43061  0.23272  1.0000
  H   H627      1.0  0.71212  0.15275  0.05264  1.0000
  H   H628      1.0  0.88821  0.01761  0.23625  1.0000
  H   H629      1.0  0.65949  0.22275  0.04129  1.0000
  S   S145      1.0  0.56680  0.49460  0.32263  1.0000
  C   C522      1.0  0.59380  0.46049  0.26027  1.0000
  C   C523      1.0  0.70527  0.46973  0.17507  1.0000
  C   C524      1.0  0.71067  0.19633  0.99343  1.0000
  C   C525      1.0  0.56954  0.14364  0.14803  1.0000
  H   H630      1.0  0.62908  0.44567  0.18377  1.0000
  C   C526      1.0  0.51538  0.43257  0.19790  1.0000
  C   C527      1.0  0.49963  0.47368  0.22043  1.0000
  C   C528      1.0  0.75191  0.08513  0.17489  1.0000
  H   H631      1.0  0.66248  0.20377  0.06408  1.0000
  H   H632      1.0  0.95080  0.43603  0.27477  1.0000
  C   C529      1.0  0.75743  0.06075  0.16172  1.0000
  C   C530      1.0  0.50074  0.03110  0.07720  1.0000
  H   H633      1.0  0.70939  0.17651  0.07410  1.0000
  H   H634      1.0  0.51080  0.42112  0.18379  1.0000
  C   C531      1.0  0.71267  0.46052  0.15609  1.0000
  H   H635      1.0  0.71083  0.41233  0.19220  1.0000
  C   C532      1.0  0.52773  0.01684  0.08538  1.0000
  H   H636      1.0  0.68594  0.40660  0.17145  1.0000
  H   H637      1.0  0.52834  0.19638  0.12041  1.0000
  C   C533      1.0  0.50534  0.12995  0.15937  1.0000
  C   C534      1.0  0.87673  0.99574  0.24098  1.0000
  H   H638      1.0  0.93668  0.02780  0.29890  1.0000
  C   C535      1.0  0.55735  0.19892  0.15410  1.0000
  C   C536      1.0  0.64880  0.45807  0.17620  1.0000
  H   H639      1.0  0.97579  0.04393  0.29686  1.0000
  H   H640      1.0  0.89781  0.48502  0.32176  1.0000
  H   H641      1.0  0.67236  0.19812  0.01288  1.0000
  H   H642      1.0  0.56635  0.17740  0.11726  1.0000
  C   C537      1.0  0.68677  0.41743  0.18594  1.0000
  H   H643      1.0  0.76915  0.20243  0.03644  1.0000
  H   H644      1.0  0.93277  0.00304  0.09332  1.0000
  H   H645      1.0  0.74540  0.17646  0.06081  1.0000
  H   H646      1.0  0.79000  0.19664  0.00415  1.0000
  H   H647      1.0  0.58262  0.20415  0.15013  1.0000
  C   C538      1.0  0.69307  0.11770  0.99550  1.0000
  H   H648      1.0  0.56355  0.12134  0.14002  1.0000
  H   H649      1.0  0.77541  0.04808  0.21551  1.0000
  H   H650      1.0  0.65891  0.44852  0.21370  1.0000
  H   H651      1.0  0.51429  0.41296  0.20861  1.0000
  C   C539      1.0  0.59221  0.47279  0.22083  1.0000
  C   C540      1.0  0.77064  0.05033  0.20040  1.0000
  C   C541      1.0  0.69812  0.19884  0.01182  1.0000
  C   C542      1.0  0.73531  0.47721  0.14540  1.0000
  N   N35       1.0  0.70632  0.20334  0.04787  1.0000
  C   C543      1.0  0.71708  0.23383  0.05685  1.0000
  N   N36       1.0  0.68010  0.45250  0.18575  1.0000
  C   C544      1.0  0.71892  0.17612  0.05930  1.0000
  C   C545      1.0  0.71858  0.20115  0.02813  1.0000
  H   H652      1.0  0.96573  0.40066  0.28658  1.0000
  C   C546      1.0  0.75211  0.20086  0.02478  1.0000
  H   H653      1.0  0.74236  0.10802  0.17012  1.0000
  C   C547      1.0  0.75638  0.10687  0.00656  1.0000
  H   H654      1.0  0.68937  0.46605  0.09365  1.0000
  H   H655      1.0  0.70872  0.25495  0.04843  1.0000
  H   H656      1.0  0.70763  0.23640  0.07164  1.0000
  H   H657      1.0  0.74358  0.23534  0.05812  1.0000
  N   N37       1.0  0.54516  0.16916  0.14479  1.0000
  H   H658      1.0  0.54037  0.44173  0.19802  1.0000
  C   C548      1.0  0.75875  0.08003  0.19416  1.0000
  C   C549      1.0  0.76966  0.03118  0.16777  1.0000
  C   C550      1.0  0.67362  0.03912  0.99549  1.0000
  H   H659      1.0  0.77395  0.01329  0.15697  1.0000
  C   C551      1.0  0.54248  0.17453  0.12393  1.0000
  H   H660      1.0  0.55144  0.02574  0.08196  1.0000
  H   H661      1.0  0.75195  0.06461  0.14670  1.0000
  S   S146      1.0  0.89803  0.07508  0.31802  1.0000
  H   H662      1.0  0.53079  0.15367  0.11674  1.0000
  H   H663      1.0  0.59365  0.15098  0.14286  1.0000
  H   H664      1.0  0.66078  0.04186  0.00880  1.0000
  C   C552      1.0  0.66196  0.47997  0.11824  1.0000
  C   C553      1.0  0.49492  0.04922  0.14120  1.0000
  C   C554      1.0  0.76434  0.19781  0.00635  1.0000
  C   C555      1.0  0.77600  0.02473  0.18732  1.0000
  H   H665      1.0  0.97497  0.43817  0.20272  1.0000
  H   H666      1.0  0.84341  0.46578  0.32584  1.0000
  H   H667      1.0  0.50381  0.05099  0.06738  1.0000
  C   C556      1.0  0.68531  0.48467  0.10415  1.0000
  H   H668      1.0  0.50692  0.45275  0.26774  1.0000
  H   H669      1.0  0.64291  0.48414  0.17568  1.0000
  C   C557      1.0  0.49920  0.45469  0.23727  1.0000
  C   C558      1.0  0.49445  0.48180  0.18540  1.0000
  C   C559      1.0  0.98962  0.06464  0.37610  1.0000
  H   H670      1.0  0.54760  0.22822  0.59177  1.0000
  H   H671      1.0  0.82355  0.45756  0.54613  1.0000
  C   C560      1.0  0.80462  0.25913  0.46203  1.0000
  H   H672      1.0  0.55531  0.44549  0.58910  1.0000
  Fe  Fe74      1.0  0.92071  0.04316  0.34000  1.0000
  H   H673      1.0  0.81319  0.25339  0.44738  1.0000
  H   H674      1.0  0.68963  0.03086  0.58523  1.0000
  C   C561      1.0  0.49441  0.38383  0.59948  1.0000
  C   C562      1.0  0.53407  0.45582  0.59550  1.0000
  S   S147      1.0  0.88372  0.05531  0.36204  1.0000
  Fe  Fe75      1.0  0.76429  0.35311  0.38935  1.0000
  S   S148      1.0  0.79370  0.38131  0.41058  1.0000
  S   S149      1.0  0.73490  0.37800  0.36578  1.0000
  Fe  Fe76      1.0  0.79221  0.28842  0.40280  1.0000
  S   S150      1.0  0.82323  0.31327  0.42460  1.0000
  S   S151      1.0  0.79504  0.23352  0.40495  1.0000
  Fe  Fe77      1.0  0.77991  0.34286  0.43173  1.0000
  S   S152      1.0  0.77329  0.35321  0.46370  1.0000
  Fe  Fe78      1.0  0.83451  0.34919  0.40176  1.0000
  S   S153      1.0  0.88588  0.36839  0.40053  1.0000
  S   S154      1.0  0.74780  0.31643  0.41095  1.0000
  S   S155      1.0  0.80613  0.32254  0.37939  1.0000
  H   H675      1.0  0.81501  0.41492  0.60255  1.0000
  H   H676      1.0  0.79949  0.38482  0.36011  1.0000
  C   C563      1.0  0.70785  0.01986  0.59411  1.0000
  H   H677      1.0  0.72522  0.18376  0.39255  1.0000
  S   S156      1.0  0.57684  0.04644  0.63642  1.0000
  H   H678      1.0  0.64519  0.06789  0.62739  1.0000
  H   H679      1.0  0.86608  0.43656  0.60629  1.0000
  Fe  Fe79      1.0  0.63632  0.28212  0.59002  1.0000
  S   S157      1.0  0.60953  0.30668  0.56624  1.0000
  S   S158      1.0  0.61740  0.23035  0.59273  1.0000
  Fe  Fe80      1.0  0.67498  0.34404  0.59716  1.0000
  S   S159      1.0  0.64959  0.37210  0.57393  1.0000
  S   S160      1.0  0.71658  0.36203  0.61597  1.0000
  Fe  Fe81      1.0  0.60465  0.34914  0.58565  1.0000
  S   S161      1.0  0.55385  0.37030  0.58480  1.0000
  Fe  Fe82      1.0  0.65624  0.32718  0.55626  1.0000
  S   S162      1.0  0.66254  0.32223  0.52381  1.0000
  S   S163      1.0  0.62936  0.32393  0.61007  1.0000
  S   S164      1.0  0.68370  0.29991  0.57882  1.0000
  C   C564      1.0  0.62607  0.15064  0.63831  1.0000
  C   C565      1.0  0.60988  0.14515  0.62105  1.0000
  C   C566      1.0  0.60748  0.16987  0.60733  1.0000
  C   C567      1.0  0.62144  0.20023  0.61059  1.0000
  C   C568      1.0  0.63769  0.20565  0.62783  1.0000
  C   C569      1.0  0.64001  0.18096  0.64158  1.0000
  H   H680      1.0  0.59962  0.12179  0.61814  1.0000
  H   H681      1.0  0.59507  0.16533  0.59397  1.0000
  H   H682      1.0  0.64860  0.22881  0.63056  1.0000
  H   H683      1.0  0.97570  0.11602  0.34041  1.0000
  H   H684      1.0  0.73575  0.03596  0.39286  1.0000
  C   C570      1.0  0.51487  0.38537  0.63741  1.0000
  C   C571      1.0  0.53683  0.37776  0.62290  1.0000
  C   C572      1.0  0.52679  0.37738  0.60380  1.0000
  H   H685      1.0  0.78406  0.41890  0.53414  1.0000
  C   C573      1.0  0.76207  0.03975  0.39188  1.0000
  N   N38       1.0  0.50980  0.45275  0.37251  1.0000
  H   H686      1.0  0.56167  0.37301  0.62645  1.0000
  C   C574      1.0  0.82384  0.44017  0.57552  1.0000
  C   C575      1.0  0.80966  0.41663  0.58748  1.0000
  C   C576      1.0  0.76234  0.46292  0.62141  1.0000
  C   C577      1.0  0.73678  0.45759  0.60853  1.0000
  C   C578      1.0  0.72234  0.42704  0.60676  1.0000
  C   C579      1.0  0.73327  0.40135  0.61792  1.0000
  C   C580      1.0  0.75894  0.40665  0.63075  1.0000
  C   C581      1.0  0.77341  0.43721  0.63251  1.0000
  H   H687      1.0  0.51773  0.22619  0.61008  1.0000
  H   H688      1.0  0.70278  0.42337  0.59676  1.0000
  H   H689      1.0  0.76764  0.38695  0.63943  1.0000
  H   H690      1.0  0.79293  0.44090  0.64254  1.0000
  C   C582      1.0  0.74155  0.34567  0.48003  1.0000
  C   C583      1.0  0.71227  0.33223  0.47426  1.0000
  C   C584      1.0  0.68838  0.32567  0.48785  1.0000
  C   C585      1.0  0.69315  0.33270  0.50734  1.0000
  C   C586      1.0  0.72215  0.34679  0.51306  1.0000
  C   C587      1.0  0.74618  0.35313  0.49949  1.0000
  H   H691      1.0  0.70790  0.32700  0.45936  1.0000
  H   H692      1.0  0.66599  0.31497  0.48324  1.0000
  H   H693      1.0  0.72618  0.35235  0.52796  1.0000
  H   H694      1.0  0.76862  0.36365  0.50412  1.0000
  C   C588      1.0  0.83111  0.16335  0.35884  1.0000
  C   C589      1.0  0.82134  0.19463  0.35387  1.0000
  C   C590      1.0  0.81162  0.21682  0.36789  1.0000
  C   C591      1.0  0.81095  0.20778  0.38710  1.0000
  C   C592      1.0  0.82124  0.17666  0.39214  1.0000
  C   C593      1.0  0.83177  0.15472  0.37814  1.0000
  H   H695      1.0  0.82083  0.20163  0.33900  1.0000
  H   H696      1.0  0.80371  0.24060  0.36376  1.0000
  H   H697      1.0  0.82086  0.16941  0.40695  1.0000
  H   H698      1.0  0.83970  0.13101  0.38225  1.0000
  C   C594      1.0  0.95816  0.39187  0.35302  1.0000
  C   C595      1.0  0.96694  0.39387  0.37230  1.0000
  C   C596      1.0  0.94479  0.38567  0.38658  1.0000
  C   C597      1.0  0.91387  0.37461  0.38182  1.0000
  C   C598      1.0  0.90571  0.37090  0.36252  1.0000
  C   C599      1.0  0.92746  0.38019  0.34822  1.0000
  C   C600      1.0  0.85977  0.46280  0.33771  1.0000
  H   H699      1.0  0.95150  0.38844  0.40145  1.0000
  H   H700      1.0  0.88256  0.36134  0.35860  1.0000
  C   C601      1.0  0.50479  0.44207  0.35245  1.0000
  H   H701      1.0  0.92698  0.14558  0.34986  1.0000
  C   C602      1.0  0.65750  0.45735  0.36751  1.0000
  C   C603      1.0  0.67067  0.44520  0.38462  1.0000
  C   C604      1.0  0.69459  0.42119  0.38441  1.0000
  C   C605      1.0  0.70545  0.40887  0.36705  1.0000
  C   C606      1.0  0.69253  0.42131  0.34995  1.0000
  C   C607      1.0  0.66877  0.44545  0.35015  1.0000
  H   H702      1.0  0.66210  0.45411  0.39815  1.0000
  H   H703      1.0  0.70422  0.41184  0.39768  1.0000
  H   H704      1.0  0.70067  0.41191  0.33643  1.0000
  H   H705      1.0  0.65889  0.45447  0.33687  1.0000
  S   S165      1.0  0.83994  0.13567  0.34022  1.0000
  H   H706      1.0  0.86983  0.43252  0.38275  1.0000
  H   H707      1.0  0.92045  0.37837  0.33337  1.0000
  H   H708      1.0  0.73210  0.05119  0.35800  1.0000
  C   C608      1.0  0.53093  0.11661  0.63366  1.0000
  H   H709      1.0  0.52745  0.43336  0.34593  1.0000
  H   H710      1.0  0.82161  0.24747  0.47219  1.0000
  C   C609      1.0  0.73896  0.10362  0.39852  1.0000
  H   H711      1.0  0.74585  0.20301  0.46114  1.0000
  H   H712      1.0  0.75334  0.17264  0.36244  1.0000
  H   H713      1.0  0.73457  0.08569  0.40929  1.0000
  H   H714      1.0  0.69030  0.24556  0.51065  1.0000
  H   H715      1.0  0.80075  0.28047  0.49588  1.0000
  H   H716      1.0  0.78472  0.19965  0.47225  1.0000
  H   H717      1.0  0.77281  0.01598  0.38818  1.0000
  H   H718      1.0  0.65059  0.04540  0.60597  1.0000
  H   H719      1.0  0.87440  0.46767  0.55653  1.0000
  H   H720      1.0  0.54534  0.41543  0.37615  1.0000
  H   H721      1.0  0.50500  0.47272  0.63908  1.0000
  C   C610      1.0  0.73297  0.15947  0.38935  1.0000
  H   H722      1.0  0.72323  0.27365  0.53472  1.0000
  S   S166      1.0  0.82891  0.04336  0.32757  1.0000
  H   H723      1.0  0.68851  0.08592  0.64666  1.0000
  C   C611      1.0  0.76003  0.12229  0.36841  1.0000
  C   C612      1.0  0.80529  0.06785  0.37712  1.0000
  H   H724      1.0  0.72877  0.07353  0.64238  1.0000
  C   C613      1.0  0.82285  0.39739  0.35913  1.0000
  H   H725      1.0  0.54322  0.17894  0.62674  1.0000
  H   H726      1.0  0.77193  0.04598  0.40623  1.0000
  H   H727      1.0  0.72496  0.09374  0.60872  1.0000
  H   H728      1.0  0.81715  0.04424  0.37490  1.0000
  H   H729      1.0  0.72535  0.25653  0.45097  1.0000
  H   H730      1.0  0.54705  0.31157  0.60622  1.0000
  C   C614      1.0  0.73344  0.26765  0.52098  1.0000
  C   C615      1.0  0.54644  0.28489  0.60690  1.0000
  H   H731      1.0  0.77836  0.29063  0.52706  1.0000
  H   H732      1.0  0.77334  0.11914  0.35536  1.0000
  H   H733      1.0  0.77186  0.42801  0.34453  1.0000
  C   C616      1.0  0.90563  0.45620  0.36675  1.0000
  H   H734      1.0  0.72802  0.47726  0.59985  1.0000
  Fe  Fe83      1.0  0.60282  0.00144  0.64606  1.0000
  C   C617      1.0  0.87452  0.44483  0.36947  1.0000
  H   H735      1.0  0.71553  0.13977  0.41554  1.0000
  H   H736      1.0  0.50880  0.45990  0.56886  1.0000
  C   C618      1.0  0.98236  0.18693  0.37610  1.0000
  C   C619      1.0  0.76445  0.27729  0.51658  1.0000
  H   H737      1.0  0.54528  0.27730  0.62208  1.0000
  H   H738      1.0  0.50283  0.47356  0.40950  1.0000
  S   S167      1.0  0.62676  0.48696  0.36866  1.0000
  H   H739      1.0  0.71173  0.23332  0.47913  1.0000
  C   C620      1.0  0.85545  0.46053  0.60321  1.0000
  C   C621      1.0  0.87758  0.46178  0.57188  1.0000
  H   H740      1.0  0.51663  0.09413  0.63453  1.0000
  C   C622      1.0  0.71488  0.25177  0.50734  1.0000
  C   C623      1.0  0.69918  0.08701  0.60937  1.0000
  N   N39       1.0  0.84723  0.46426  0.58266  1.0000
  H   H741      1.0  0.79178  0.46514  0.33968  1.0000
  N   N40       1.0  0.81876  0.43263  0.35763  1.0000
  H   H742      1.0  0.76836  0.02813  0.35559  1.0000
  C   C624      1.0  0.52361  0.42522  0.38325  1.0000
  C   C625      1.0  0.79146  0.41823  0.54902  1.0000
  C   C626      1.0  0.85066  0.44747  0.35497  1.0000
  C   C627      1.0  0.80387  0.44468  0.37542  1.0000
  C   C628      1.0  0.72782  0.13470  0.40232  1.0000
  Fe  Fe84      1.0  0.85537  0.01359  0.34953  1.0000
  C   C629      1.0  0.95020  0.15262  0.35561  1.0000
  C   C630      1.0  0.50774  0.46384  0.58414  1.0000
  H   H743      1.0  0.52306  0.38619  0.65210  1.0000
  N   N41       1.0  0.51951  0.27141  0.59540  1.0000
  H   H744      1.0  0.83697  0.39040  0.37202  1.0000
  H   H745      1.0  0.88766  0.43706  0.57287  1.0000
  H   H746      1.0  0.57012  0.27695  0.60143  1.0000
  H   H747      1.0  0.65624  0.02609  0.62841  1.0000
  C   C631      1.0  0.81408  0.44021  0.55603  1.0000
  H   H748      1.0  0.53855  0.12008  0.61863  1.0000
  C   C632      1.0  0.75080  0.26413  0.45042  1.0000
  C   C633      1.0  0.52321  0.28287  0.57552  1.0000
  N   N42       1.0  0.76996  0.06466  0.37747  1.0000
  H   H749      1.0  0.50668  0.22378  0.58526  1.0000
  H   H750      1.0  0.96417  0.06369  0.37880  1.0000
  H   H751      1.0  0.52537  0.19390  0.64834  1.0000
  C   C634      1.0  0.77058  0.21284  0.46122  1.0000
  H   H752      1.0  0.92370  0.45268  0.37779  1.0000
  H   H753      1.0  0.81471  0.07792  0.39078  1.0000
  C   C635      1.0  0.72731  0.24523  0.48928  1.0000
  C   C636      1.0  0.75574  0.09656  0.38143  1.0000
  H   H754      1.0  0.75916  0.25908  0.43570  1.0000
  H   H755      1.0  0.81346  0.08390  0.36545  1.0000
  C   C637      1.0  0.77791  0.39565  0.56117  1.0000
  C   C638      1.0  0.97770  0.13610  0.35024  1.0000
  H   H756      1.0  0.74350  0.02017  0.63835  1.0000
  C   C639      1.0  0.53552  0.17228  0.64138  1.0000
  H   H757      1.0  0.52147  0.30960  0.57477  1.0000
  H   H758      1.0  0.69031  0.08397  0.59448  1.0000
  H   H759      1.0  0.87342  0.47874  0.60801  1.0000
  H   H760      1.0  0.75139  0.29060  0.45241  1.0000
  H   H761      1.0  0.50295  0.31541  0.62446  1.0000
  H   H762      1.0  0.55298  0.11215  0.64236  1.0000
  C   C640      1.0  0.52288  0.23588  0.59567  1.0000
  H   H763      1.0  0.55281  0.45230  0.62401  1.0000
  H   H764      1.0  0.80651  0.28575  0.46362  1.0000
  N   N43       1.0  0.69466  0.05763  0.62101  1.0000
  H   H765      1.0  0.98279  0.20645  0.38628  1.0000
  C   C641      1.0  0.66022  0.04899  0.62064  1.0000
  C   C642      1.0  0.70335  0.06577  0.64106  1.0000
  C   C643      1.0  0.71368  0.03076  0.61305  1.0000
  H   H766      1.0  0.99039  0.40290  0.37625  1.0000
  H   H767      1.0  0.75995  0.37898  0.55584  1.0000
  H   H768      1.0  0.78085  0.20694  0.44698  1.0000
  H   H769      1.0  0.77947  0.43431  0.37747  1.0000
  C   C644      1.0  0.89106  0.47404  0.33514  1.0000
  N   N44       1.0  0.77120  0.24795  0.46492  1.0000
  H   H770      1.0  0.49633  0.46218  0.34321  1.0000
  C   C645      1.0  0.53352  0.47921  0.37231  1.0000
  H   H771      1.0  0.81782  0.43802  0.38841  1.0000
  H   H772      1.0  0.53141  0.43197  0.39792  1.0000
  H   H773      1.0  0.80160  0.47130  0.37520  1.0000
  C   C646      1.0  0.75880  0.25480  0.48426  1.0000
  H   H774      1.0  0.69917  0.04506  0.65079  1.0000
  H   H775      1.0  0.77612  0.37738  0.58977  1.0000
  C   C647      1.0  0.75871  0.05257  0.35862  1.0000
  C   C648      1.0  0.77704  0.27124  0.49849  1.0000
  C   C649      1.0  0.74873  0.15318  0.37235  1.0000
  H   H776      1.0  0.68582  0.10789  0.61540  1.0000
  C   C650      1.0  0.78711  0.39475  0.58031  1.0000
  C   C651      1.0  0.73771  0.01422  0.62374  1.0000
  H   H777      1.0  0.93853  0.47803  0.34731  1.0000
  H   H778      1.0  0.76667  0.06797  0.34662  1.0000
  Fe  Fe85      1.0  0.85905  0.08424  0.33912  1.0000
  H   H779      1.0  0.80403  0.42806  0.32811  1.0000
  C   C652      1.0  0.79579  0.43894  0.34172  1.0000
  H   H780      1.0  0.83535  0.38751  0.34645  1.0000
  H   H781      1.0  0.54692  0.27595  0.56961  1.0000
  C   C653      1.0  0.95252  0.17799  0.36852  1.0000
  H   H782      1.0  0.55591  0.47217  0.36482  1.0000
  C   C654      1.0  0.91401  0.47043  0.34956  1.0000
  H   H783      1.0  0.83406  0.46396  0.61237  1.0000
  C   C655      1.0  0.53259  0.45968  0.61521  1.0000
  H   H784      1.0  0.93098  0.19067  0.37273  1.0000
  N   N45       1.0  0.51281  0.14479  0.64082  1.0000
  H   H785      1.0  0.55772  0.16632  0.64967  1.0000
  S   S168      1.0  0.63000  0.12047  0.65615  1.0000
  S   S169      1.0  0.97534  0.04340  0.33941  1.0000
  H   H786      1.0  0.54092  0.48691  0.38688  1.0000
  S   S170      1.0  0.86699  0.49386  0.64905  1.0000
  H   H787      1.0  0.50587  0.40537  0.38449  1.0000
  C   C656      1.0  0.50478  0.47156  0.62369  1.0000
  H   H788      1.0  0.89613  0.47872  0.57756  1.0000
  S   S171      1.0  0.89477  0.99903  0.32941  1.0000
  H   H789      1.0  0.50467  0.27288  0.56571  1.0000
  S   S172      1.0  0.98340  0.40692  0.33474  1.0000
  H   H790      1.0  0.65275  0.18544  0.65484  1.0000
  H   H791      1.0  0.98446  0.00387  0.54762  1.0000
  Fe  Fe86      1.0  0.60562  0.07155  0.65910  1.0000
  C   C657      1.0  0.79228  0.36410  0.78086  1.0000
  H   H792      1.0  0.89410  0.40523  0.72579  1.0000
  Fe  Fe87      1.0  0.84153  0.43953  0.84792  1.0000
  S   S173      1.0  0.80932  0.41365  0.82718  1.0000
  Fe  Fe88      1.0  0.90204  0.40667  0.83294  1.0000
  S   S174      1.0  0.87353  0.38011  0.81059  1.0000
  S   S175      1.0  0.95507  0.39342  0.83163  1.0000
  Fe  Fe89      1.0  0.84669  0.42591  0.80528  1.0000
  S   S176      1.0  0.82449  0.44266  0.77693  1.0000
  Fe  Fe90      1.0  0.83887  0.36971  0.83410  1.0000
  S   S177      1.0  0.82338  0.31719  0.83278  1.0000
  S   S178      1.0  0.87781  0.45385  0.82575  1.0000
  S   S179      1.0  0.86852  0.39436  0.85676  1.0000
  Fe  Fe91      1.0  0.77819  0.10143  0.89725  1.0000
  S   S180      1.0  0.81161  0.08562  0.92081  1.0000
  S   S181      1.0  0.76085  0.05942  0.87888  1.0000
  Fe  Fe92      1.0  0.79008  0.17249  0.90573  1.0000
  S   S182      1.0  0.82338  0.16068  0.93008  1.0000
  S   S183      1.0  0.78366  0.22656  0.90209  1.0000
  Fe  Fe93      1.0  0.84449  0.12416  0.91028  1.0000
  S   S184      1.0  0.89891  0.12085  0.90998  1.0000
  Fe  Fe94      1.0  0.78743  0.12336  0.93868  1.0000
  S   S185      1.0  0.78134  0.11173  0.97046  1.0000
  S   S186      1.0  0.81321  0.13781  0.88541  1.0000
  S   S187      1.0  0.75201  0.13744  0.91564  1.0000
  C   C658      1.0  0.59841  0.01434  0.82019  1.0000
  Fe  Fe95      1.0  0.59497  0.01661  0.68869  1.0000
  Fe  Fe96      1.0  0.54202  0.03552  0.65985  1.0000
  H   H793      1.0  0.68597  0.01523  0.92470  1.0000
  H   H794      1.0  0.59081  0.04729  0.75363  1.0000
  C   C659      1.0  0.50257  0.13749  0.66055  1.0000
  H   H795      1.0  0.98999  0.40506  0.89875  1.0000
  H   H796      1.0  0.71168  0.12300  0.96692  1.0000
  C   C660      1.0  0.65251  0.99573  0.81800  1.0000
  C   C661      1.0  0.84199  0.46171  0.75681  1.0000
  C   C662      1.0  0.65721  0.04065  0.97812  1.0000
  H   H797      1.0  0.62749  0.07232  0.82567  1.0000
  C   C663      1.0  0.66441  0.04463  0.78772  1.0000
  H   H798      1.0  0.76803  0.30889  0.76509  1.0000
  C   C664      1.0  0.73269  0.49245  0.92081  1.0000
  H   H799      1.0  0.58127  0.03469  0.81882  1.0000
  C   C665      1.0  0.81409  0.29230  0.85254  1.0000
  C   C666      1.0  0.80676  0.30510  0.87044  1.0000
  C   C667      1.0  0.79770  0.28460  0.88546  1.0000
  C   C668      1.0  0.79627  0.25111  0.88285  1.0000
  C   C669      1.0  0.80431  0.23823  0.86508  1.0000
  C   C670      1.0  0.81298  0.25877  0.84999  1.0000
  H   H800      1.0  0.80728  0.33084  0.87258  1.0000
  H   H801      1.0  0.79138  0.29479  0.89913  1.0000
  H   H802      1.0  0.80283  0.21257  0.86281  1.0000
  H   H803      1.0  0.81842  0.24865  0.83617  1.0000
  C   C671      1.0  0.95737  0.08637  0.85865  1.0000
  C   C672      1.0  0.92389  0.08918  0.85717  1.0000
  C   C673      1.0  0.90571  0.10019  0.87266  1.0000
  C   C674      1.0  0.92092  0.10843  0.88983  1.0000
  C   C675      1.0  0.95451  0.10658  0.89115  1.0000
  C   C676      1.0  0.97272  0.09565  0.87561  1.0000
  H   H804      1.0  0.91185  0.08213  0.84407  1.0000
  H   H805      1.0  0.87987  0.10149  0.87146  1.0000
  H   H806      1.0  0.96645  0.11312  0.90437  1.0000
  C   C677      1.0  0.84451  0.39495  0.73089  1.0000
  C   C678      1.0  0.60750  0.03702  0.78223  1.0000
  H   H807      1.0  0.79631  0.46870  0.74276  1.0000
  H   H808      1.0  0.63147  0.04418  0.97799  1.0000
  S   S188      1.0  0.61397  0.99994  0.71800  1.0000
  C   C679      1.0  0.72311  0.03992  0.87754  1.0000
  C   C680      1.0  0.69545  0.05336  0.88533  1.0000
  C   C681      1.0  0.66599  0.03700  0.88381  1.0000
  H   H809      1.0  0.95012  0.40874  0.87228  1.0000
  H   H810      1.0  0.69661  0.07664  0.89218  1.0000
  H   H811      1.0  0.64464  0.04773  0.88972  1.0000
  H   H812      1.0  0.77265  0.04555  0.95243  1.0000
  H   H813      1.0  0.69470  0.19387  0.98122  1.0000
  N   N46       1.0  0.63144  0.02403  0.81496  1.0000
  C   C682      1.0  0.82252  0.37846  0.74218  1.0000
  C   C683      1.0  0.74940  0.11273  0.98716  1.0000
  C   C684      1.0  0.72088  0.01010  0.86813  1.0000
  C   C685      1.0  0.63417  0.03527  0.79500  1.0000
  C   C686      1.0  0.72376  0.03344  0.97869  1.0000
  H   H814      1.0  0.73224  0.08476  0.94254  1.0000
  H   H815      1.0  0.99017  0.30216  0.86684  1.0000
  C   C687      1.0  0.83470  0.48670  0.72530  1.0000
  H   H816      1.0  0.52302  0.12935  0.66969  1.0000
  C   C688      1.0  0.72227  0.06562  0.93308  1.0000
  H   H817      1.0  0.66738  0.05605  0.82689  1.0000
  H   H818      1.0  0.83682  0.29720  0.77342  1.0000
  S   S189      1.0  0.56973  0.06324  0.68226  1.0000
  H   H819      1.0  0.91296  0.32733  0.84772  1.0000
  H   H820      1.0  0.68570  0.04406  0.79661  1.0000
  H   H821      1.0  0.73402  0.46840  0.92771  1.0000
  C   C689      1.0  0.70773  0.03462  0.96069  1.0000
  C   C690      1.0  0.82193  0.47205  0.74174  1.0000
  C   C691      1.0  0.89754  0.03050  0.89508  1.0000
  H   H822      1.0  0.91369  0.36907  0.75138  1.0000
  H   H823      1.0  0.82441  0.48762  0.80681  1.0000
  H   H824      1.0  0.69701  0.07215  0.92973  1.0000
  C   C692      1.0  0.90030  0.01869  0.87657  1.0000
  S   S190      1.0  0.63379  0.02744  0.66735  1.0000
  C   C693      1.0  0.99123  0.99900  0.76006  1.0000
  C   C694      1.0  0.97379  0.39920  0.86962  1.0000
  H   H825      1.0  0.83955  0.32652  0.79246  1.0000
  C   C695      1.0  0.88783  0.48088  0.73883  1.0000
  H   H826      1.0  0.76268  0.46466  0.85068  1.0000
  S   S191      1.0  0.97862  0.07023  0.83913  1.0000
  C   C696      1.0  0.64134  0.05528  0.75654  1.0000
  C   C697      1.0  0.87725  0.39143  0.73416  1.0000
  H   H827      1.0  0.76950  0.34076  0.74836  1.0000
  H   H828      1.0  0.89085  0.45828  0.76665  1.0000
  C   C698      1.0  0.83276  0.35711  0.75683  1.0000
  C   C699      1.0  0.66787  0.05426  0.76873  1.0000
  H   H829      1.0  0.79672  0.30752  0.74606  1.0000
  C   C700      1.0  0.98207  0.38972  0.85117  1.0000
  H   H830      1.0  0.59720  0.00619  0.83531  1.0000
  C   C701      1.0  0.86779  0.49128  0.72375  1.0000
  C   C702      1.0  0.71755  0.11833  0.98172  1.0000
  C   C703      1.0  0.88818  0.37113  0.74861  1.0000
  H   H831      1.0  0.77446  0.35261  0.79041  1.0000
  H   H832      1.0  0.97256  0.28704  0.88838  1.0000
  C   C704      1.0  0.75966  0.02628  0.94442  1.0000
  H   H833      1.0  0.83613  0.41165  0.72004  1.0000
  C   C705      1.0  0.92364  0.02898  0.90755  1.0000
  C   C706      1.0  0.67391  0.03851  0.96095  1.0000
  H   H834      1.0  0.80970  0.37717  0.79011  1.0000
  H   H835      1.0  0.94170  0.27926  0.83617  1.0000
  H   H836      1.0  0.64409  0.06170  0.74164  1.0000
  C   C707      1.0  0.82330  0.31560  0.78159  1.0000
  H   H837      1.0  0.87656  0.33927  0.77094  1.0000
  H   H838      1.0  0.58365  0.02975  0.78620  1.0000
  C   C708      1.0  0.92925  0.00551  0.87037  1.0000
  C   C709      1.0  0.66378  0.00715  0.87443  1.0000
  N   N47       1.0  0.89944  0.21319  0.88366  1.0000
  C   C710      1.0  0.88517  0.18965  0.87014  1.0000
  C   C711      1.0  0.93142  0.20131  0.88989  1.0000
  C   C712      1.0  0.87873  0.21417  0.90079  1.0000
  C   C713      1.0  0.90284  0.24472  0.87409  1.0000
  C   C714      1.0  0.92299  0.24791  0.85797  1.0000
  C   C715      1.0  0.88641  0.27282  0.88018  1.0000
  C   C716      1.0  0.92671  0.27742  0.84868  1.0000
  C   C717      1.0  0.89045  0.30222  0.87082  1.0000
  C   C718      1.0  0.91052  0.30455  0.85513  1.0000
  H   H839      1.0  0.90073  0.18488  0.85768  1.0000
  H   H840      1.0  0.88103  0.16599  0.87711  1.0000
  H   H841      1.0  0.86161  0.19829  0.86459  1.0000
  H   H842      1.0  0.94712  0.19548  0.87769  1.0000
  H   H843      1.0  0.92957  0.17870  0.89830  1.0000
  H   H844      1.0  0.94391  0.21931  0.89904  1.0000
  H   H845      1.0  0.85360  0.22080  0.89704  1.0000
  H   H846      1.0  0.87731  0.19024  0.90787  1.0000
  H   H847      1.0  0.88797  0.23131  0.91171  1.0000
  H   H848      1.0  0.93554  0.22740  0.85224  1.0000
  H   H849      1.0  0.86965  0.27266  0.89183  1.0000
  H   H850      1.0  0.80479  0.30278  0.79007  1.0000
  H   H851      1.0  0.87710  0.32319  0.87541  1.0000
  N   N48       1.0  0.80892  0.34025  0.76877  1.0000
  C   C719      1.0  0.87507  0.46624  0.75526  1.0000
  N   N49       1.0  0.72498  0.03376  0.94231  1.0000
  H   H852      1.0  0.79744  0.38351  0.73973  1.0000
  H   H853      1.0  0.72458  0.00673  0.91589  1.0000
  H   H854      1.0  0.71989  0.48962  0.90686  1.0000
  H   H855      1.0  0.63810  0.04297  0.84343  1.0000
  C   C720      1.0  0.64157  0.04999  0.82824  1.0000
  H   H856      1.0  0.69130  0.06050  0.76331  1.0000
  C   C721      1.0  0.61121  0.04715  0.76336  1.0000
  C   C722      1.0  0.86640  0.35408  0.75980  1.0000
  C   C723      1.0  0.78483  0.32368  0.75651  1.0000
  H   H857      1.0  0.74951  0.03204  0.98003  1.0000
  H   H858      1.0  0.77958  0.38271  0.77226  1.0000
  H   H859      1.0  0.74215  0.99955  0.86201  1.0000
  H   H860      1.0  0.66019  0.04070  0.94786  1.0000
  H   H861      1.0  0.73562  0.06636  0.91940  1.0000
  H   H862      1.0  0.51435  0.44521  0.75304  1.0000
  H   H863      1.0  0.50336  0.48201  0.77905  1.0000
  H   H864      1.0  0.88013  0.02078  0.86677  1.0000
  H   H865      1.0  0.67930  0.48315  0.94167  1.0000
  H   H866      1.0  0.97210  0.01493  0.91182  1.0000
  H   H867      1.0  0.76347  0.00294  0.95183  1.0000
  C   C724      1.0  0.71077  0.00917  0.92936  1.0000
  H   H868      1.0  0.67834  0.00165  0.81670  1.0000
  H   H869      1.0  0.78276  0.49273  0.80176  1.0000
  H   H870      1.0  0.77166  0.02460  0.93030  1.0000
  S   S192      1.0  0.82512  0.47902  0.86841  1.0000
  H   H871      1.0  0.87544  0.04182  0.89959  1.0000
  H   H872      1.0  0.79726  0.49052  0.82607  1.0000
  H   H873      1.0  0.92158  0.03915  0.92175  1.0000
  C   C725      1.0  0.95635  0.00339  0.88278  1.0000
  C   C726      1.0  0.95255  0.01541  0.90162  1.0000
  H   H874      1.0  0.91344  0.48435  0.73781  1.0000
  H   H875      1.0  0.75324  0.19242  0.97649  1.0000
  H   H876      1.0  0.99004  0.01318  0.77304  1.0000
  C   C727      1.0  0.76070  0.48679  0.85870  1.0000
  H   H877      1.0  0.98309  0.99967  0.84670  1.0000
  H   H878      1.0  0.66849  0.12168  0.99108  1.0000
  H   H879      1.0  0.81895  0.49466  0.71390  1.0000
  H   H880      1.0  0.71136  0.49494  0.85049  1.0000
  C   C728      1.0  0.74366  0.19554  0.99071  1.0000
  H   H881      1.0  0.92993  0.99789  0.85565  1.0000
  Fe  Fe97      1.0  0.58773  0.53124  0.30257  1.0000
  H   H882      1.0  0.95469  0.86436  0.11994  1.0000
  Fe  Fe98      1.0  0.77832  0.60121  0.05418  1.0000
  S   S193      1.0  0.74638  0.62755  0.07463  1.0000
  S   S194      1.0  0.77439  0.59948  0.02146  1.0000
  Fe  Fe99      1.0  0.83086  0.59068  0.08546  1.0000
  S   S195      1.0  0.80219  0.61605  0.10789  1.0000
  S   S196      1.0  0.88457  0.58039  0.08701  1.0000
  Fe  Fe100     1.0  0.75983  0.58849  0.09567  1.0000
  S   S197      1.0  0.72295  0.57267  0.11781  1.0000
  Fe  Fe101     1.0  0.79080  0.65269  0.08544  1.0000
  S   S198      1.0  0.79354  0.70725  0.08752  1.0000
  S   S199      1.0  0.78958  0.56033  0.07453  1.0000
  S   S200      1.0  0.82166  0.62922  0.06369  1.0000
  H   H883      1.0  0.98604  0.72171  0.17667  1.0000
  Fe  Fe102     1.0  0.85704  0.84945  0.15601  1.0000
  S   S201      1.0  0.88170  0.87947  0.13381  1.0000
  S   S202      1.0  0.84640  0.79556  0.15508  1.0000
  Fe  Fe103     1.0  0.86124  0.90304  0.18649  1.0000
  S   S203      1.0  0.88651  0.93660  0.16662  1.0000
  S   S204      1.0  0.84616  0.91109  0.21745  1.0000
  Fe  Fe104     1.0  0.85058  0.92024  0.14445  1.0000
  Fe  Fe105     1.0  0.91561  0.89378  0.15735  1.0000
  S   S205      1.0  0.96992  0.89842  0.15543  1.0000
  S   S206      1.0  0.82315  0.88910  0.16490  1.0000
  S   S207      1.0  0.89312  0.86146  0.17903  1.0000
  C   C729      1.0  0.75066  0.76138  0.13658  1.0000
  C   C730      1.0  0.69914  0.53716  0.11722  1.0000
  C   C731      1.0  0.70373  0.51308  0.10358  1.0000
  H   H884      1.0  0.87936  0.97284  0.21326  1.0000
  H   H885      1.0  0.92297  0.97502  0.28911  1.0000
  S   S208      1.0  0.97835  0.52106  0.15040  1.0000
  C   C732      1.0  0.67550  0.53269  0.13119  1.0000
  H   H886      1.0  0.72174  0.51612  0.09273  1.0000
  C   C733      1.0  0.73827  0.97935  0.12960  1.0000
  C   C734      1.0  0.87180  0.97038  0.22791  1.0000
  H   H887      1.0  0.67164  0.55119  0.14176  1.0000
  C   C735      1.0  0.90984  0.56467  0.10530  1.0000
  C   C736      1.0  0.94322  0.56601  0.10280  1.0000
  C   C737      1.0  0.96445  0.55375  0.11676  1.0000
  C   C738      1.0  0.95250  0.53919  0.13320  1.0000
  C   C739      1.0  0.91909  0.53790  0.13574  1.0000
  C   C740      1.0  0.89784  0.55091  0.12197  1.0000
  H   H888      1.0  0.95278  0.57637  0.08990  1.0000
  H   H889      1.0  0.76156  0.96627  0.17137  1.0000
  H   H890      1.0  0.71767  0.96869  0.13638  1.0000
  H   H891      1.0  0.87223  0.54955  0.12404  1.0000
  C   C741      1.0  0.81072  0.73096  0.10596  1.0000
  C   C742      1.0  0.82088  0.71763  0.12330  1.0000
  C   C743      1.0  0.83241  0.73773  0.13803  1.0000
  C   C744      1.0  0.83422  0.77125  0.13553  1.0000
  C   C745      1.0  0.82505  0.78442  0.11797  1.0000
  C   C746      1.0  0.81323  0.76435  0.10330  1.0000
  H   H892      1.0  0.81912  0.69202  0.12552  1.0000
  H   H893      1.0  0.83937  0.72739  0.15161  1.0000
  H   H894      1.0  0.82626  0.81014  0.11586  1.0000
  H   H895      1.0  0.80545  0.77484  0.08991  1.0000
  H   H896      1.0  0.94942  0.63055  0.11322  1.0000
  C   C747      1.0  0.80102  0.83003  0.30350  1.0000
  C   C748      1.0  0.97216  0.76703  0.16450  1.0000
  C   C749      1.0  0.85639  0.94228  0.23374  1.0000
  C   C750      1.0  0.84673  0.93958  0.25287  1.0000
  C   C751      1.0  0.85225  0.96469  0.26604  1.0000
  C   C752      1.0  0.59271  0.49829  0.23418  1.0000
  H   H897      1.0  0.90962  0.52656  0.14836  1.0000
  H   H898      1.0  0.83463  0.91800  0.25749  1.0000
  H   H899      1.0  0.84455  0.96233  0.28067  1.0000
  C   C753      1.0  0.68546  0.58862  0.99697  1.0000
  S   S209      1.0  0.83385  0.95982  0.12407  1.0000
  C   C754      1.0  0.98833  0.65842  0.12377  1.0000
  C   C755      1.0  0.71042  0.59041  0.01068  1.0000
  C   C756      1.0  0.74157  0.59805  0.00506  1.0000
  C   C757      1.0  0.91727  0.98190  0.09010  1.0000
  H   H900      1.0  0.70562  0.58559  0.02555  1.0000
  H   H901      1.0  0.76457  0.68952  0.00649  1.0000
  H   H902      1.0  0.88385  0.92834  0.10080  1.0000
  C   C758      1.0  0.95358  0.71261  0.11230  1.0000
  N   N50       1.0  0.72918  0.67200  0.13882  1.0000
  C   C759      1.0  0.72515  0.66755  0.11789  1.0000
  C   C760      1.0  0.75434  0.64918  0.14536  1.0000
  C   C761      1.0  0.69845  0.66320  0.14786  1.0000
  C   C762      1.0  0.73823  0.70519  0.14433  1.0000
  C   C763      1.0  0.74085  0.73066  0.13090  1.0000
  C   C764      1.0  0.74518  0.71275  0.16371  1.0000
  C   C765      1.0  0.75541  0.74346  0.16916  1.0000
  H   H903      1.0  0.74768  0.67319  0.11022  1.0000
  H   H904      1.0  0.71880  0.64228  0.11417  1.0000
  H   H905      1.0  0.70554  0.68279  0.11198  1.0000
  H   H906      1.0  0.77827  0.65650  0.14003  1.0000
  H   H907      1.0  0.74962  0.62428  0.14017  1.0000
  H   H908      1.0  0.75603  0.64748  0.16114  1.0000
  H   H909      1.0  0.67901  0.68006  0.14347  1.0000
  H   H910      1.0  0.69080  0.63842  0.14372  1.0000
  H   H911      1.0  0.70004  0.66367  0.16369  1.0000
  H   H912      1.0  0.73655  0.72736  0.11580  1.0000
  H   H913      1.0  0.74332  0.69480  0.17476  1.0000
  H   H914      1.0  0.76165  0.74849  0.18392  1.0000
  N   N51       1.0  0.90849  0.67702  0.09941  1.0000
  C   C766      1.0  0.88689  0.65816  0.11183  1.0000
  C   C767      1.0  0.89167  0.70748  0.09458  1.0000
  C   C768      1.0  0.91331  0.65910  0.08135  1.0000
  C   C769      1.0  0.93987  0.68174  0.10909  1.0000
  N   N52       1.0  0.92960  0.95268  0.09976  1.0000
  C   C770      1.0  0.95818  0.65478  0.11518  1.0000
  H   H915      1.0  0.54529  0.98148  0.10511  1.0000
  H   H916      1.0  0.98789  0.95322  0.12078  1.0000
  C   C771      1.0  0.81875  0.98564  0.18433  1.0000
  H   H917      1.0  0.88373  0.67013  0.12590  1.0000
  H   H918      1.0  0.86277  0.65510  0.10515  1.0000
  H   H919      1.0  0.89586  0.63340  0.11450  1.0000
  H   H920      1.0  0.88665  0.72200  0.10759  1.0000
  H   H921      1.0  0.86802  0.70289  0.08752  1.0000
  H   H922      1.0  0.90562  0.72230  0.08440  1.0000
  H   H923      1.0  0.92442  0.63515  0.08377  1.0000
  H   H924      1.0  0.89018  0.65436  0.07378  1.0000
  H   H925      1.0  0.93576  0.93663  0.12878  1.0000
  H   H926      1.0  0.91835  0.90230  0.10045  1.0000
  C   C772      1.0  0.72015  0.67220  0.01758  1.0000
  C   C773      1.0  0.96855  0.93747  0.07405  1.0000
  H   H927      1.0  0.89245  0.98780  0.09480  1.0000
  C   C774      1.0  0.98977  0.94741  0.10581  1.0000
  H   H928      1.0  0.71846  0.51783  0.00051  1.0000
  C   C775      1.0  0.98227  0.79411  0.15460  1.0000
  C   C776      1.0  0.90833  0.92524  0.09481  1.0000
  C   C777      1.0  0.51485  0.51962  0.24067  1.0000
  H   H929      1.0  0.66151  0.58248  0.00148  1.0000
  S   S210      1.0  0.59457  0.52580  0.27010  1.0000
  H   H930      1.0  0.90478  0.92231  0.07919  1.0000
  H   H931      1.0  0.82345  0.87637  0.30066  1.0000
  C   C778      1.0  0.79520  0.97766  0.12238  1.0000
  C   C779      1.0  0.74421  0.51363  0.17167  1.0000
  H   H932      1.0  0.94928  0.93639  0.06367  1.0000
  H   H933      1.0  0.67338  0.65472  0.02453  1.0000
  C   C780      1.0  0.96268  0.94593  0.09335  1.0000
  S   S211      1.0  0.55283  0.56996  0.31123  1.0000
  C   C781      1.0  0.52419  0.99200  0.09847  1.0000
  H   H934      1.0  0.92919  0.67251  0.07150  1.0000
  H   H935      1.0  0.76734  0.79115  0.15972  1.0000
  C   C782      1.0  0.98059  0.98127  0.30519  1.0000
  H   H936      1.0  0.52182  0.54462  0.24211  1.0000
  C   C783      1.0  0.68784  0.66643  0.01381  1.0000
  C   C784      1.0  0.73923  0.68597  0.00361  1.0000
  H   H937      1.0  0.94727  0.76486  0.16867  1.0000
  H   H938      1.0  0.52248  0.93822  0.31119  1.0000
  C   C785      1.0  0.94358  0.97518  0.27910  1.0000
  H   H939      1.0  0.94117  0.97938  0.12542  1.0000
  H   H940      1.0  0.77164  0.94315  0.19189  1.0000
  C   C786      1.0  0.98036  0.86746  0.12093  1.0000
  H   H941      1.0  0.52090  0.51024  0.27065  1.0000
  H   H942      1.0  0.73073  0.66497  0.03111  1.0000
  C   C787      1.0  0.92724  0.95800  0.12067  1.0000
  C   C788      1.0  0.76835  0.96392  0.13092  1.0000
  H   H943      1.0  0.77071  0.94141  0.13850  1.0000
  H   H944      1.0  0.94148  0.73455  0.10828  1.0000
  H   H945      1.0  0.77668  0.52788  0.00171  1.0000
  H   H946      1.0  0.96527  0.81310  0.15118  1.0000
  C   C789      1.0  0.98385  0.71596  0.12086  1.0000
  H   H947      1.0  0.91623  0.97906  0.07434  1.0000
  C   C790      1.0  0.75837  0.76765  0.15559  1.0000
  H   H948      1.0  0.79927  0.96455  0.21838  1.0000
  H   H949      1.0  0.75353  0.78017  0.12601  1.0000
  H   H950      1.0  0.77575  0.78695  0.30882  1.0000
  H   H951      1.0  0.90209  0.96241  0.12513  1.0000
  C   C791      1.0  0.79172  0.98931  0.21432  1.0000
  C   C792      1.0  0.50921  0.95289  0.30040  1.0000
  H   H952      1.0  0.99004  0.55470  0.11454  1.0000
  H   H953      1.0  0.59233  0.52285  0.22914  1.0000
  H   H954      1.0  0.81574  0.81899  0.29263  1.0000
  H   H955      1.0  0.50890  0.93829  0.28707  1.0000
  C   C793      1.0  0.75085  0.50388  0.15310  1.0000
  H   H956      1.0  0.95079  0.94971  0.27694  1.0000
  H   H957      1.0  0.52334  0.97518  0.29804  1.0000
  C   C794      1.0  0.65683  0.50440  0.13162  1.0000
  H   H958      1.0  0.75621  0.53460  0.17749  1.0000
  H   H959      1.0  0.64961  0.66780  0.99388  1.0000
  H   H960      1.0  0.72511  0.76985  0.31691  1.0000
  H   H961      1.0  0.73990  0.97255  0.19300  1.0000
  C   C795      1.0  0.80541  0.86239  0.30797  1.0000
  H   H962      1.0  0.69671  0.82356  0.31787  1.0000
  C   C796      1.0  0.76412  0.96762  0.18714  1.0000
  H   H963      1.0  0.96013  0.97956  0.31523  1.0000
  C   C797      1.0  0.77783  0.81185  0.31296  1.0000
  H   H964      1.0  0.63851  0.50153  0.14225  1.0000
  H   H965      1.0  0.93394  0.98499  0.26543  1.0000
  H   H966      1.0  0.97870  0.96688  0.25015  1.0000
  H   H967      1.0  0.50900  0.52306  0.21077  1.0000
  C   C798      1.0  0.78654  0.87678  0.32186  1.0000
  C   C799      1.0  0.86693  0.99310  0.26009  1.0000
  N   N53       1.0  0.78745  0.99255  0.19333  1.0000
  H   H968      1.0  0.76753  0.51738  0.14444  1.0000
  H   H969      1.0  0.98959  0.84431  0.09394  1.0000
  H   H970      1.0  0.82864  0.96212  0.18918  1.0000
  C   C800      1.0  0.67447  0.67411  0.99600  1.0000
  S   S212      1.0  0.62566  0.54897  0.32366  1.0000
  H   H971      1.0  0.81697  0.98429  0.16848  1.0000
  C   C801      1.0  0.99384  0.88294  0.13680  1.0000
  H   H972      1.0  0.76899  0.99396  0.22202  1.0000
  H   H973      1.0  0.99093  0.95682  0.30345  1.0000
  H   H974      1.0  0.71746  0.50605  0.19675  1.0000
  C   C802      1.0  0.72179  0.49691  0.18259  1.0000
  C   C803      1.0  0.50763  0.50672  0.22268  1.0000
  N   N54       1.0  0.97055  0.99501  0.28653  1.0000
  C   C804      1.0  0.51435  0.50025  0.25684  1.0000
  H   H975      1.0  0.79001  0.90195  0.32543  1.0000
  C   C805      1.0  0.99407  0.74285  0.16904  1.0000
  H   H976      1.0  0.99391  0.73970  0.12305  1.0000
  Fe  Fe106     1.0  0.67546  0.78473  0.39281  1.0000
  S   S213      1.0  0.64171  0.78920  0.41723  1.0000
  S   S214      1.0  0.69017  0.73713  0.37911  1.0000
  Fe  Fe107     1.0  0.68509  0.85762  0.39075  1.0000
  S   S215      1.0  0.65081  0.86734  0.41491  1.0000
  S   S216      1.0  0.70463  0.89526  0.37009  1.0000
  Fe  Fe108     1.0  0.67574  0.82588  0.42977  1.0000
  S   S217      1.0  0.67937  0.82173  0.46250  1.0000
  Fe  Fe109     1.0  0.61918  0.83011  0.40096  1.0000
  S   S218      1.0  0.56470  0.82671  0.39962  1.0000
  S   S219      1.0  0.71191  0.81827  0.40635  1.0000
  S   S220      1.0  0.65117  0.82332  0.37582  1.0000
  Fe  Fe110     1.0  0.58875  0.58471  0.33381  1.0000
  S   S221      1.0  0.56799  0.55112  0.35544  1.0000
  S   S222      1.0  0.58925  0.63744  0.34340  1.0000
  C   C806      1.0  0.73971  0.80925  0.35840  1.0000
  H   H977      1.0  0.69915  0.84673  0.33947  1.0000
  H   H978      1.0  0.78093  0.97214  0.34275  1.0000
  S   S223      1.0  0.85439  0.64194  0.64845  1.0000
  H   H979      1.0  0.51625  0.62766  0.33914  1.0000
  C   C807      1.0  0.76082  0.76937  0.65424  1.0000
  Fe  Fe111     1.0  0.79282  0.84551  0.55870  1.0000
  S   S224      1.0  0.75677  0.82947  0.58046  1.0000
  S   S225      1.0  0.78547  0.85472  0.52655  1.0000
  Fe  Fe112     1.0  0.84894  0.84396  0.58833  1.0000
  S   S226      1.0  0.81655  0.82760  0.61185  1.0000
  S   S227      1.0  0.90368  0.84326  0.59122  1.0000
  Fe  Fe113     1.0  0.79476  0.79413  0.59024  1.0000
  S   S228      1.0  0.78057  0.74168  0.59463  1.0000
  Fe  Fe114     1.0  0.78132  0.86436  0.60036  1.0000
  S   S229      1.0  0.75750  0.89553  0.62310  1.0000
  S   S230      1.0  0.82900  0.80793  0.56726  1.0000
  S   S231      1.0  0.81543  0.88301  0.57810  1.0000
  H   H980      1.0  0.72609  0.93455  0.65102  1.0000
  S   S232      1.0  0.85277  0.55685  0.62186  1.0000
  H   H981      1.0  0.76045  0.95747  0.59158  1.0000
  Fe  Fe115     1.0  0.89597  0.53188  0.63404  1.0000
  S   S233      1.0  0.93878  0.51778  0.61580  1.0000
  H   H982      1.0  0.61459  0.56452  0.41583  1.0000
  N   N55       1.0  0.73329  0.80763  0.33755  1.0000
  C   C808      1.0  0.76318  0.85891  0.33126  1.0000
  H   H983      1.0  0.56136  0.87880  0.42777  1.0000
  H   H984      1.0  0.94358  0.58737  0.62065  1.0000
  C   C809      1.0  0.71960  0.91516  0.62269  1.0000
  C   C810      1.0  0.69895  0.91372  0.60687  1.0000
  C   C811      1.0  0.66942  0.93028  0.60711  1.0000
  C   C812      1.0  0.66016  0.94843  0.62311  1.0000
  C   C813      1.0  0.68084  0.94986  0.63892  1.0000
  C   C814      1.0  0.71031  0.93322  0.63871  1.0000
  H   H985      1.0  0.70578  0.90006  0.59442  1.0000
  H   H986      1.0  0.65361  0.92903  0.59480  1.0000
  H   H987      1.0  0.95309  0.67822  0.61388  1.0000
  H   H988      1.0  0.93910  0.77774  0.60044  1.0000
  C   C815      1.0  0.92916  0.86646  0.60635  1.0000
  C   C816      1.0  0.91824  0.89341  0.61633  1.0000
  C   C817      1.0  0.93979  0.91180  0.62752  1.0000
  C   C818      1.0  0.97233  0.90321  0.62909  1.0000
  C   C819      1.0  0.77675  0.71276  0.65767  1.0000
  C   C820      1.0  0.96175  0.85802  0.60787  1.0000
  H   H989      1.0  0.89330  0.90033  0.61521  1.0000
  H   H990      1.0  0.93117  0.93287  0.63493  1.0000
  C   C821      1.0  0.96285  0.70109  0.60930  1.0000
  H   H991      1.0  0.97047  0.83736  0.60014  1.0000
  C   C822      1.0  0.80314  0.71369  0.60842  1.0000
  C   C823      1.0  0.83007  0.72298  0.61910  1.0000
  C   C824      1.0  0.84621  0.70038  0.63072  1.0000
  C   C825      1.0  0.83577  0.66826  0.63173  1.0000
  C   C826      1.0  0.80944  0.65877  0.62057  1.0000
  C   C827      1.0  0.79314  0.68143  0.60907  1.0000
  H   H992      1.0  0.83805  0.74770  0.61880  1.0000
  H   H993      1.0  0.67405  0.96358  0.65136  1.0000
  H   H994      1.0  0.80106  0.63420  0.62127  1.0000
  H   H995      1.0  0.77237  0.67394  0.60086  1.0000
  C   C828      1.0  0.70897  0.83200  0.48006  1.0000
  C   C829      1.0  0.73792  0.84688  0.47542  1.0000
  C   C830      1.0  0.76070  0.85404  0.48988  1.0000
  C   C831      1.0  0.75496  0.84649  0.50915  1.0000
  C   C832      1.0  0.72573  0.83215  0.51382  1.0000
  C   C833      1.0  0.70301  0.82485  0.49936  1.0000
  H   H996      1.0  0.74289  0.85272  0.46071  1.0000
  H   H997      1.0  0.78311  0.86531  0.48607  1.0000
  H   H998      1.0  0.72054  0.82687  0.52856  1.0000
  H   H999      1.0  0.68065  0.81355  0.50318  1.0000
  C   C834      1.0  0.74047  0.91836  0.37074  1.0000
  C   C835      1.0  0.74741  0.93857  0.35521  1.0000
  C   C836      1.0  0.77580  0.95696  0.35486  1.0000
  C   C837      1.0  0.79745  0.95559  0.37020  1.0000
  C   C838      1.0  0.79045  0.93547  0.38575  1.0000
  C   C839      1.0  0.76224  0.91681  0.38600  1.0000
  H   H1000     1.0  0.73078  0.93986  0.34329  1.0000
  C   C840      1.0  0.95492  0.75706  0.60173  1.0000
  H   H1001     1.0  0.80704  0.93423  0.39769  1.0000
  H   H1002     1.0  0.75731  0.90138  0.39803  1.0000
  C   C841      1.0  0.53694  0.85304  0.38835  1.0000
  C   C842      1.0  0.54538  0.88409  0.38262  1.0000
  C   C843      1.0  0.52191  0.90483  0.37484  1.0000
  H   H1003     1.0  0.96091  0.92699  0.58567  1.0000
  H   H1004     1.0  0.74894  0.87123  0.34177  1.0000
  S   S234      1.0  0.77955  0.50204  0.62287  1.0000
  H   H1005     1.0  0.56980  0.89228  0.38448  1.0000
  H   H1006     1.0  0.52852  0.92896  0.37074  1.0000
  H   H1007     1.0  0.94526  0.96449  0.55986  1.0000
  C   C844      1.0  0.66211  0.71013  0.36849  1.0000
  C   C845      1.0  0.62941  0.71733  0.36740  1.0000
  C   C846      1.0  0.60769  0.69494  0.35944  1.0000
  C   C847      1.0  0.61828  0.66509  0.35244  1.0000
  C   C848      1.0  0.65111  0.65817  0.35312  1.0000
  C   C849      1.0  0.67285  0.68053  0.36117  1.0000
  H   H1008     1.0  0.62074  0.74004  0.37286  1.0000
  H   H1009     1.0  0.58244  0.70076  0.35883  1.0000
  H   H1010     1.0  0.65976  0.63578  0.34733  1.0000
  H   H1011     1.0  0.69811  0.67479  0.36183  1.0000
  C   C850      1.0  0.52717  0.87664  0.47192  1.0000
  H   H1012     1.0  0.61292  0.53794  0.39557  1.0000
  H   H1013     1.0  0.61162  0.83859  0.48596  1.0000
  C   C851      1.0  0.74802  0.97821  0.59731  1.0000
  H   H1014     1.0  0.59525  0.57649  0.39390  1.0000
  H   H1015     1.0  0.53067  0.87077  0.48679  1.0000
  H   H1016     1.0  0.57019  0.81306  0.45120  1.0000
  H   H1017     1.0  0.71846  0.81033  0.62024  1.0000
  C   C852      1.0  0.54401  0.88124  0.43905  1.0000
  Fe  Fe116     1.0  0.53430  0.53459  0.33250  1.0000
  H   H1018     1.0  0.84995  0.51578  0.58612  1.0000
  H   H1019     1.0  0.56971  0.82949  0.48665  1.0000
  H   H1020     1.0  0.63299  0.87468  0.46235  1.0000
  H   H1021     1.0  0.75803  0.79353  0.61944  1.0000
  C   C853      1.0  0.96898  0.54620  0.60998  1.0000
  C   C854      1.0  0.68514  0.65152  0.41597  1.0000
  H   H1022     1.0  0.70091  0.60368  0.41224  1.0000
  C   C855      1.0  0.73162  0.77308  0.33223  1.0000
  H   H1023     1.0  0.76938  0.83420  0.64512  1.0000
  H   H1024     1.0  0.86646  0.70800  0.63935  1.0000
  H   H1025     1.0  0.61258  0.81806  0.45504  1.0000
  H   H1026     1.0  0.72220  0.79463  0.36653  1.0000
  C   C856      1.0  0.99148  0.98752  0.55896  1.0000
  H   H1027     1.0  0.68174  0.80764  0.33987  1.0000
  H   H1028     1.0  0.59345  0.83734  0.43553  1.0000
  H   H1029     1.0  0.62694  0.59283  0.36658  1.0000
  H   H1030     1.0  0.98642  0.62608  0.61234  1.0000
  H   H1031     1.0  0.64394  0.55340  0.36590  1.0000
  Fe  Fe117     1.0  0.60255  0.51416  0.34409  1.0000
  S   S235      1.0  0.83300  0.97908  0.37102  1.0000
  H   H1032     1.0  0.77202  0.97531  0.62441  1.0000
  N   N56       1.0  0.64724  0.57664  0.39336  1.0000
  C   C857      1.0  0.64687  0.57776  0.37224  1.0000
  C   C858      1.0  0.67271  0.55367  0.39935  1.0000
  C   C859      1.0  0.65201  0.60963  0.40082  1.0000
  C   C860      1.0  0.62788  0.63334  0.39817  1.0000
  C   C861      1.0  0.68094  0.61971  0.40993  1.0000
  C   C862      1.0  0.63214  0.66485  0.40460  1.0000
  H   H1033     1.0  0.71927  0.98540  0.57215  1.0000
  C   C863      1.0  0.66082  0.67403  0.41330  1.0000
  H   H1034     1.0  0.73442  0.72784  0.64324  1.0000
  C   C864      1.0  0.72474  0.99391  0.58644  1.0000
  H   H1035     1.0  0.66956  0.58801  0.36668  1.0000
  H   H1036     1.0  0.67478  0.55228  0.41518  1.0000
  H   H1037     1.0  0.91744  0.72543  0.61110  1.0000
  H   H1038     1.0  0.69639  0.56017  0.39330  1.0000
  H   H1039     1.0  0.60595  0.62810  0.39042  1.0000
  H   H1040     1.0  0.61361  0.68268  0.40206  1.0000
  C   C865      1.0  0.75456  0.98841  0.61587  1.0000
  Fe  Fe118     1.0  0.82363  0.52144  0.63892  1.0000
  H   H1041     1.0  0.50843  0.89900  0.41920  1.0000
  H   H1042     1.0  0.60455  0.90550  0.46847  1.0000
  H   H1043     1.0  0.58437  0.86914  0.49317  1.0000
  H   H1044     1.0  0.75465  0.76056  0.33534  1.0000
  C   C866      1.0  0.55159  0.87230  0.45812  1.0000
  H   H1045     1.0  0.66762  0.52883  0.39410  1.0000
  H   H1046     1.0  0.60814  0.89223  0.44429  1.0000
  C   C867      1.0  0.94267  0.72766  0.60772  1.0000
  C   C868      1.0  0.49699  0.88870  0.46671  1.0000
  C   C869      1.0  0.75521  0.73610  0.65111  1.0000
  C   C870      1.0  0.97817  0.94426  0.58032  1.0000
  C   C871      1.0  0.58723  0.84868  0.48309  1.0000
  N   N57       1.0  0.58365  0.85912  0.46291  1.0000
  H   H1047     1.0  0.70763  0.65902  0.42243  1.0000
  H   H1048     1.0  0.52278  0.66924  0.36394  1.0000
  C   C872      1.0  0.60836  0.88395  0.45935  1.0000
  H   H1049     1.0  0.49821  0.81902  0.39045  1.0000
  C   C873      1.0  0.59018  0.83073  0.45070  1.0000
  N   N58       1.0  0.76956  0.74014  0.53454  1.0000
  C   C874      1.0  0.75482  0.71131  0.54338  1.0000
  C   C875      1.0  0.80460  0.73841  0.53838  1.0000
  C   C876      1.0  0.75651  0.76886  0.54423  1.0000
  C   C877      1.0  0.76306  0.74305  0.51380  1.0000
  C   C878      1.0  0.74026  0.72348  0.50401  1.0000
  C   C879      1.0  0.77805  0.76759  0.50302  1.0000
  C   C880      1.0  0.73297  0.72851  0.48470  1.0000
  C   C881      1.0  0.77092  0.77206  0.48368  1.0000
  C   C882      1.0  0.74816  0.75284  0.47458  1.0000
  H   H1050     1.0  0.76307  0.68883  0.53635  1.0000
  H   H1051     1.0  0.76138  0.70923  0.55881  1.0000
  H   H1052     1.0  0.72820  0.71243  0.54290  1.0000
  H   H1053     1.0  0.81732  0.76085  0.53443  1.0000
  H   H1054     1.0  0.81573  0.71822  0.53040  1.0000
  H   H1055     1.0  0.80995  0.73484  0.55388  1.0000
  H   H1056     1.0  0.76867  0.79129  0.53964  1.0000
  H   H1057     1.0  0.73048  0.77182  0.54113  1.0000
  H   H1058     1.0  0.75958  0.76732  0.55995  1.0000
  H   H1059     1.0  0.72724  0.70456  0.51103  1.0000
  H   H1060     1.0  0.79449  0.78448  0.50961  1.0000
  H   H1061     1.0  0.71499  0.71389  0.47758  1.0000
  H   H1062     1.0  0.78225  0.79141  0.47589  1.0000
  H   H1063     1.0  0.74183  0.75732  0.45977  1.0000
  H   H1064     1.0  0.69548  0.76382  0.65154  1.0000
  C   C883      1.0  0.61620  0.56346  0.39999  1.0000
  C   C884      1.0  0.50501  0.84292  0.38599  1.0000
  H   H1065     1.0  0.66450  0.69890  0.41743  1.0000
  C   C885      1.0  0.98959  0.60090  0.60910  1.0000
  N   N59       1.0  0.73739  0.79355  0.64730  1.0000
  C   C886      1.0  0.96524  0.57894  0.61389  1.0000
  C   C887      1.0  0.96934  0.96538  0.56581  1.0000
  C   C888      1.0  0.70142  0.82203  0.33350  1.0000
  H   H1066     1.0  0.72429  0.76771  0.62147  1.0000
  H   H1067     1.0  0.71296  0.76010  0.34055  1.0000
  C   C889      1.0  0.51375  0.89302  0.43398  1.0000
  S   S236      1.0  0.62262  0.96877  0.62266  1.0000
  C   C890      1.0  0.98743  0.75999  0.59737  1.0000
  C   C891      1.0  0.73424  0.79117  0.62625  1.0000
  Fe  Fe119     1.0  0.85375  0.58685  0.64847  1.0000
  C   C892      1.0  0.98316  0.87606  0.61929  1.0000
  H   H1068     1.0  0.76410  0.80014  0.36198  1.0000
  H   H1069     1.0  0.73787  0.83409  0.36415  1.0000
  C   C893      1.0  0.49557  0.63584  0.34708  1.0000
  C   C894      1.0  0.49917  0.65927  0.36113  1.0000
  H   H1070     1.0  0.52332  0.50060  0.36491  1.0000
  C   C895      1.0  0.83381  0.49699  0.58002  1.0000
  H   H1071     1.0  0.68771  0.80595  0.65153  1.0000
  H   H1072     1.0  0.81027  0.49933  0.58727  1.0000
  H   H1073     1.0  0.82989  0.50313  0.56478  1.0000
  H   H1074     1.0  0.72829  0.84481  0.64667  1.0000
  H   H1075     1.0  0.77245  0.68751  0.65472  1.0000
  C   C896      1.0  0.75821  0.82585  0.32724  1.0000
  H   H1076     1.0  0.49472  0.96275  0.33576  1.0000
  C   C897      1.0  0.70562  0.78743  0.65590  1.0000
  C   C898      1.0  0.74645  0.82721  0.65199  1.0000
  Fe  Fe120     1.0  0.66742  0.58976  0.88758  1.0000
  S   S237      1.0  0.63249  0.56741  0.90809  1.0000
  S   S238      1.0  0.69178  0.55439  0.86733  1.0000
  Fe  Fe121     1.0  0.65049  0.65845  0.89995  1.0000
  S   S239      1.0  0.61562  0.63938  0.92118  1.0000
  S   S240      1.0  0.65087  0.71298  0.90360  1.0000
  Fe  Fe122     1.0  0.65295  0.60310  0.92917  1.0000
  S   S241      1.0  0.65872  0.59136  0.96093  1.0000
  Fe  Fe123     1.0  0.59831  0.60596  0.89815  1.0000
  S   S242      1.0  0.54394  0.60896  0.89430  1.0000
  S   S243      1.0  0.68950  0.62368  0.90923  1.0000
  S   S244      1.0  0.63169  0.62663  0.87641  1.0000
  Fe  Fe124     1.0  0.60550  0.87216  0.84545  1.0000
  S   S245      1.0  0.59456  0.89704  0.87320  1.0000
  S   S246      1.0  0.63033  0.82371  0.84157  1.0000
  Fe  Fe125     1.0  0.57097  0.92278  0.82099  1.0000
  S   S247      1.0  0.55709  0.95030  0.84717  1.0000
  S   S248      1.0  0.54894  0.94326  0.79340  1.0000
  Fe  Fe126     1.0  0.60754  0.94271  0.85773  1.0000
  Fe  Fe127     1.0  0.54500  0.90325  0.86076  1.0000
  S   S249      1.0  0.62233  0.91763  0.83059  1.0000
  S   S250      1.0  0.55500  0.87569  0.83391  1.0000
  H   H1077     1.0  0.64756  0.75720  0.83814  1.0000
  C   C899      1.0  0.56444  0.69317  0.86919  1.0000
  C   C900      1.0  0.51170  0.79443  0.88847  1.0000
  H   H1078     1.0  0.85832  0.52043  0.78939  1.0000
  H   H1079     1.0  0.80428  0.53630  0.88742  1.0000
  H   H1080     1.0  0.94945  0.92335  0.70937  1.0000
  C   C901      1.0  0.55569  0.76110  0.86605  1.0000
  H   H1081     1.0  0.52713  0.83667  0.87349  1.0000
  C   C902      1.0  0.76626  0.52363  0.95352  1.0000
  C   C903      1.0  0.56759  0.95724  0.77214  1.0000
  C   C904      1.0  0.60086  0.95724  0.76988  1.0000
  H   H1082     1.0  0.95831  0.96315  0.76983  1.0000
  H   H1083     1.0  0.74198  0.70439  0.97543  1.0000
  H   H1084     1.0  0.80735  0.53187  0.97183  1.0000
  H   H1085     1.0  0.96806  0.92217  0.68658  1.0000
  H   H1086     1.0  0.61611  0.94777  0.78108  1.0000
  H   H1087     1.0  0.58915  0.70275  0.87120  1.0000
  H   H1088     1.0  0.83900  0.56973  0.82461  1.0000
  H   H1089     1.0  0.50123  0.74964  0.90154  1.0000
  C   C905      1.0  0.69122  0.59457  0.97752  1.0000
  H   H1090     1.0  0.83323  0.76103  0.67760  1.0000
  C   C906      1.0  0.54823  0.96940  0.75723  1.0000
  C   C907      1.0  0.64531  0.68979  0.96015  1.0000
  H   H1091     1.0  0.72754  0.60631  0.95704  1.0000
  H   H1092     1.0  0.97326  0.54150  0.66438  1.0000
  C   C908      1.0  0.78388  0.52698  0.87954  1.0000
  C   C909      1.0  0.75466  0.54405  0.87961  1.0000
  C   C910      1.0  0.72831  0.53264  0.86913  1.0000
  H   H1093     1.0  0.70731  0.78767  0.67178  1.0000
  C   C911      1.0  0.74734  0.60390  0.98560  1.0000
  C   C912      1.0  0.73185  0.51866  0.98733  1.0000
  H   H1094     1.0  0.75286  0.56658  0.88722  1.0000
  H   H1095     1.0  0.64014  0.66364  0.96182  1.0000
  C   C913      1.0  0.51681  0.58428  0.88112  1.0000
  H   H1096     1.0  0.56620  0.66672  0.87157  1.0000
  H   H1097     1.0  0.70623  0.56653  0.93340  1.0000
  H   H1098     1.0  0.53685  0.71108  0.91328  1.0000
  N   N60       1.0  0.80663  0.53546  0.81187  1.0000
  C   C914      1.0  0.52653  0.55632  0.87167  1.0000
  C   C915      1.0  0.98782  0.97908  0.85652  1.0000
  H   H1099     1.0  0.69321  0.65156  0.94979  1.0000
  C   C916      1.0  0.69141  0.99371  0.86661  1.0000
  H   H1100     1.0  0.55143  0.54914  0.87220  1.0000
  C   C917      1.0  0.63457  0.79292  0.85898  1.0000
  C   C918      1.0  0.62958  0.79866  0.87841  1.0000
  C   C919      1.0  0.63429  0.77381  0.89182  1.0000
  C   C920      1.0  0.64350  0.74283  0.88597  1.0000
  C   C921      1.0  0.64774  0.73685  0.86651  1.0000
  C   C922      1.0  0.64356  0.76186  0.85313  1.0000
  H   H1101     1.0  0.62262  0.82240  0.88313  1.0000
  H   H1102     1.0  0.63097  0.77875  0.90682  1.0000
  H   H1103     1.0  0.65511  0.71324  0.86179  1.0000
  N   N61       1.0  0.68011  0.69660  0.96233  1.0000
  H   H1104     1.0  0.64963  0.98547  0.83255  1.0000
  C   C923      1.0  0.68490  0.73130  0.95840  1.0000
  C   C924      1.0  0.69700  0.67772  0.94758  1.0000
  S   S251      1.0  0.56515  0.98803  0.66767  1.0000
  H   H1105     1.0  0.67371  0.74639  0.96964  1.0000
  C   C925      1.0  0.81319  0.54668  0.79222  1.0000
  C   C926      1.0  0.55362  0.70233  0.90222  1.0000
  C   C927      1.0  0.84787  0.54643  0.76405  1.0000
  H   H1106     1.0  0.77870  0.57646  0.82069  1.0000
  H   H1107     1.0  0.86944  0.53830  0.75701  1.0000
  H   H1108     1.0  0.63091  0.70356  0.97064  1.0000
  C   C928      1.0  0.55151  0.79424  0.86381  1.0000
  H   H1109     1.0  0.78052  0.52659  0.94086  1.0000
  H   H1110     1.0  0.64028  0.96997  0.75158  1.0000
  C   C929      1.0  0.61450  0.96964  0.75303  1.0000
  H   H1111     1.0  0.77141  0.60948  0.98108  1.0000
  H   H1112     1.0  0.96989  0.95987  0.85363  1.0000
  H   H1113     1.0  0.85630  0.53068  0.82084  1.0000
  C   C930      1.0  0.68220  0.50676  0.93445  1.0000
  H   H1114     1.0  0.64689  0.97638  0.80750  1.0000
  C   C931      1.0  0.81111  0.75419  0.67045  1.0000
  C   C932      1.0  0.71797  0.54815  0.92428  1.0000
  H   H1115     1.0  0.77383  0.54179  0.83527  1.0000
  C   C933      1.0  0.69324  0.68840  0.98145  1.0000
  H   H1116     1.0  0.57717  0.71437  0.90469  1.0000
  H   H1117     1.0  0.50343  0.91070  0.81653  1.0000
  C   C934      1.0  0.80248  0.50013  0.81164  1.0000
  H   H1118     1.0  0.55707  0.67615  0.90487  1.0000
  H   H1119     1.0  0.68813  0.68369  0.93299  1.0000
  C   C935      1.0  0.73154  0.50392  0.85872  1.0000
  C   C936      1.0  0.53776  0.74352  0.87968  1.0000
  H   H1120     1.0  0.79651  0.80241  0.66667  1.0000
  C   C937      1.0  0.51018  0.69217  0.87998  1.0000
  H   H1121     1.0  0.78143  0.59093  0.75513  1.0000
  C   C938      1.0  0.71591  0.51560  0.96977  1.0000
  H   H1122     1.0  0.75528  0.54237  0.81235  1.0000
  H   H1123     1.0  0.66778  0.52517  0.94215  1.0000
  H   H1124     1.0  0.95565  0.96001  0.69637  1.0000
  H   H1125     1.0  0.67413  0.73838  0.94436  1.0000
  C   C939      1.0  0.78721  0.49848  0.86890  1.0000
  C   C940      1.0  0.79167  0.56669  0.78174  1.0000
  C   C941      1.0  0.96649  0.93635  0.70008  1.0000
  H   H1126     1.0  0.76938  0.57516  0.78760  1.0000
  C   C942      1.0  0.83394  0.54349  0.82476  1.0000
  H   H1127     1.0  0.72322  0.68212  0.94760  1.0000
  H   H1128     1.0  0.69012  0.97073  0.85942  1.0000
  H   H1129     1.0  0.58976  0.99388  0.81125  1.0000
  H   H1130     1.0  0.70565  0.54826  0.91010  1.0000
  H   H1131     1.0  0.63624  0.69658  0.94568  1.0000
  H   H1132     1.0  0.69026  0.51254  0.97036  1.0000
  H   H1133     1.0  0.55687  0.69662  0.85407  1.0000
  H   H1134     1.0  0.71064  0.73788  0.95764  1.0000
  H   H1135     1.0  0.54665  0.99115  0.72911  1.0000
  H   H1136     1.0  0.96178  0.93031  0.74098  1.0000
  Fe  Fe128     1.0  0.86689  0.52749  0.67435  1.0000
  C   C943      1.0  0.72240  0.60220  0.97191  1.0000
  H   H1137     1.0  0.82911  0.53630  0.83981  1.0000
  C   C944      1.0  0.73276  0.51777  0.95225  1.0000
  H   H1138     1.0  0.83118  0.57264  0.73952  1.0000
  H   H1139     1.0  0.71012  0.98518  0.93636  1.0000
  H   H1140     1.0  0.74301  0.55619  0.92194  1.0000
  C   C945      1.0  0.82628  0.56584  0.75416  1.0000
  N   N62       1.0  0.54158  0.70846  0.88258  1.0000
  S   S252      1.0  0.88542  0.51065  0.70376  1.0000
  H   H1141     1.0  0.51148  0.51548  0.85474  1.0000
  C   C946      1.0  0.97566  0.95219  0.74164  1.0000
  H   H1142     1.0  0.57346  0.75002  0.85709  1.0000
  C   C947      1.0  0.56187  0.98162  0.74033  1.0000
  C   C948      1.0  0.78189  0.52679  0.97117  1.0000
  H   H1143     1.0  0.51250  0.66554  0.88089  1.0000
  C   C949      1.0  0.72605  0.69415  0.98584  1.0000
  C   C950      1.0  0.50380  0.53728  0.86176  1.0000
  C   C951      1.0  0.78968  0.77779  0.66402  1.0000
  H   H1144     1.0  0.52247  0.96950  0.75874  1.0000
  C   C952      1.0  0.84138  0.53664  0.78269  1.0000
  H   H1145     1.0  0.67098  0.50462  0.92000  1.0000
  C   C953      1.0  0.79827  0.57600  0.76298  1.0000
  H   H1146     1.0  0.56563  0.80720  0.85343  1.0000
  N   N63       1.0  0.71652  0.51612  0.93337  1.0000
  C   C954      1.0  0.77732  0.54976  0.82027  1.0000
  H   H1147     1.0  0.97606  0.94260  0.88761  1.0000
  N   N64       1.0  0.98741  0.98952  0.87681  1.0000
  S   S253      1.0  0.50198  0.90325  0.88058  1.0000
  S   S254      1.0  0.82164  0.55343  0.66512  1.0000
  H   H1148     1.0  0.74864  0.83107  0.66766  1.0000
  C   C955      1.0  0.97351  0.97079  0.75823  1.0000
  H   H1149     1.0  0.49943  0.69789  0.86579  1.0000
  C   C956      1.0  0.59516  0.98203  0.73816  1.0000
  C   C957      1.0  0.76471  0.52434  0.98804  1.0000
  S   S255      1.0  0.62564  0.98864  0.87227  1.0000
  C   C958      1.0  0.51561  0.76126  0.89083  1.0000
  C   C959      1.0  0.52979  0.81089  0.87507  1.0000
  H   H1150     1.0  0.75745  0.49973  0.91705  1.0000
  C   C960      1.0  0.80457  0.72177  0.66738  1.0000
  H   H1151     1.0  0.82158  0.70351  0.67195  1.0000
  H   H1152     1.0  0.49463  0.80760  0.89707  1.0000
  S   S256      1.0  0.89890  0.56354  0.65978  1.0000
