data_image0
_chemical_formula_structural       SFeSHFeSFeS2FeHCFeS2CHFeHS3CSFeS2FeS2FeSFeS3C6H4CHC3H2C6H4C6H4C4H2FeCH4NHCSN2H4CHC3H3CHC3H6CH6CH3C2H5CHCH2CSC3HC2H6SCSH3NC5HC3HCH2CH3SHSCNC2HCH5CH2NC2H3CHCSHCHC2HC2H4CH2C2HCHSFeSHFeSFeHSFe2SFeS2H2FeHS2HCSFeS2FeS2FeSFeS3C6H8CHC7H4C6H4C4H2C6HC2HNHN2C9H4CH5CHCHCHSCH2SH4CHCHC3HC3H3C2SHCHCHCHCHCHC2HCH7SCHCFeHCHCHCH4NFeC2HNH2C2H2CH2CH4C2H2CH3C2H3CHC2H2CH2SHCH2SH2CFeSCFeHSFeHFeHS3HSHFeSC3H2C2H2CSC3H2CSCFeCHCHNH2SFeHCH2C4HC2H3C2H2CHCSC2HNCHCH3CH2CH2C4H3CH2CSHCHC2H2CH3C3SNC5HSH5C2H3NHCHCHCHC3H3FeCH3CHCH2CFeHC2H3CSH3FeSHFeHSFeCFeSHS2FeS2FeSHC3HC3HCH2CH2CSC2H5NC5H6CHC3HC2NHSC2H3CHCH4CSC4HCH2C3HCHCH4C2HC2SCH2CH2C2H2C5H2SHNSH3CH2CHCSC2FeCHC2H3Fe2C3H6FeS2FeS2FeHFeS3HSHCFeSH2CHS2FeS2FeS2FeSFeS3HC2H2C7H4C6H4C6H4C6H4CH3CHSH4C2HC2HC2H2CHCH5NHC3SCH3C2NC2H2CHC2HNC5HCH10CHC4H2C2HCH8C2H3C3HCNHCH2CH2C2HCH3FeHCHC2HCH2NSHCHFeH6S2HCH2CH4CFeS2FeCSCSFeS3FeSH2FeSFeHSHS2FeS2FeS2FeSFeS3C2H4C6H4C6H4C6H4C6H4CH2CHC2HCH2NHC3H2CFeC3H3CH7CHNHSH2CH4NHCH4CH5C2H3CH3NCHC3H3CSH5C2H2C2SHC3H2C2NHCSCNC9H10CHCHCHCH3C3FeHCH4C2H3CFeSH2S2FeSHFeSHCSCFeS2FeS2FeSFeS3FeS2FeHFeS2C7H6NHSCHCHC3HCHCH3C6H4C6H5CHCH7C3HCHCHC5HFeH2SCHC4HC5HNHCHFeHSH4NC9H2C4H2CHCH4C2H2CH6CHCHCNSH3C2H2C2HCH3NHCH2C2H4CHNH3C3H6CH5C2H3CH2CSC2S2FeSHCSC2SHFeS2FeS2FeSFeS3FeS2FeHFeS2HC6H4CHFe2CSCH4C2HSC2H2C6H4C6H6C2H5C2FeCH2NC5H7CHCH2CH3NHNC9H13CH2C4HNC2H8C3HCH5CH2CH2C2HNC2H2CH2C2H3FeHCHCHC3NCHC4H5CHCHSHC2HNHSH5CHS2C2NH2C2SHC3HFeS2CHSFeS2HNFeS2CFeS2FeCFeSCSH3NHC3H3C5H3CHSCNH3C3FeCH2CH3SCHC2HCH3CHCHCH2CHCHCH3CHCSC2H2C2H3CHSCH3C2HCH2CHC5H2CHNHCHCH2CH5CHCHC3H5CH2C2HC2HCH3C2HCH2C2HC2HFeS2H2SFeCSHCHNSCFeS2HCFeSCSCHCH3CHCHCHC3H5FeC2HSH3CSHC4H3CSHC2N2C6H2CH13CH2CSH2C2HC2HSHC3H3FeHFeCH3SC4HC2HCHC4HCH3CHC2H2SC2H4CSHCH2CHSH2CHCH3CFeHSFeS2CHFeS3FeS2CSH3CFeS2FeS2FeS2FeSFeS3H2C4HC2HC7H4C7H2FeC6H4C6H4CHCHNCHC5HCHC2H5CSH4CHCH4CNC5SCH7NH3CH5CNH4CH3CHC2HNCH2CHCH2FeCH3CSHNCNHFeSH2CH2C3H5C2HC2HSHCHCHNH3C3HC2H2C2HC3H3CH2CHCH2CHCHCH3CH3C2HC2FeH2C2FeHSFeS2HCFeS3HS2FeS2HCSFeS2FeS2FeS2FeHFeS3HCHCH5CHC6H4C6H4C6H4C6H8C4H4CH4NC6HSCH14NC2HC3H2CHCHC2H4CFeC3HC2SCHCHCNHCSCHNC2H2CFeH2SC2NH4CHC3HC3HCH2CHC2H2CHC3H2FeHCH2CNCH4CH4
_chemical_formula_sum              "S256 Fe128 H1152 C960 N64"
_cell_length_a       53.9807
_cell_length_b       54.5886
_cell_length_c       40.8984
_cell_angle_alpha    89.8107
_cell_angle_beta     89.8206
_cell_angle_gamma    89.6434

_space_group_name_H-M_alt    "P 1"
_space_group_IT_number       1

loop_
  _space_group_symop_operation_xyz
  'x, y, z'

loop_
  _atom_site_type_symbol
  _atom_site_label
  _atom_site_symmetry_multiplicity
  _atom_site_fract_x
  _atom_site_fract_y
  _atom_site_fract_z
  _atom_site_occupancy
  S   S1        1.0  0.01581  0.10634  0.36645  1.0000
  Fe  Fe1       1.0  0.03660  0.06336  0.43585  1.0000
  S   S2        1.0  0.06088  0.07229  0.39280  1.0000
  H   H1        1.0  0.02761  0.24969  0.41262  1.0000
  Fe  Fe2       1.0  0.04846  0.11128  0.40051  1.0000
  S   S3        1.0  0.07190  0.14618  0.39691  1.0000
  Fe  Fe3       1.0  0.02661  0.06616  0.36229  1.0000
  S   S4        1.0  0.03335  0.04376  0.31448  1.0000
  S   S5        1.0  0.02678  0.10277  0.44599  1.0000
  Fe  Fe4       1.0  0.15447  0.28520  0.00590  1.0000
  H   H2        1.0  0.29888  0.26116  0.04803  1.0000
  C   C1        1.0  0.26852  0.30908  0.01352  1.0000
  Fe  Fe5       1.0  0.19907  0.26060  0.04296  1.0000
  S   S6        1.0  0.20478  0.23304  0.00230  1.0000
  S   S7        1.0  0.22121  0.26671  0.09100  1.0000
  C   C2        1.0  0.47786  0.29118  0.29704  1.0000
  H   H3        1.0  0.44468  0.26036  0.32261  1.0000
  Fe  Fe6       1.0  0.16295  0.22978  0.00055  1.0000
  H   H4        1.0  0.28282  0.32366  0.01248  1.0000
  S   S8        1.0  0.19540  0.29266  0.00816  1.0000
  S   S9        1.0  0.15751  0.25502  0.04362  1.0000
  S   S10       1.0  0.12497  0.31532  0.01123  1.0000
  C   C3        1.0  0.21606  0.21687  0.23149  1.0000
  S   S11       1.0  0.45300  0.12245  0.36772  1.0000
  Fe  Fe7       1.0  0.36714  0.28518  0.27659  1.0000
  S   S12       1.0  0.37781  0.26058  0.23466  1.0000
  S   S13       1.0  0.04341  0.03754  0.98014  1.0000
  Fe  Fe8       1.0  0.33197  0.24687  0.30369  1.0000
  S   S14       1.0  0.34151  0.21978  0.26403  1.0000
  S   S15       1.0  0.30444  0.23000  0.33923  1.0000
  Fe  Fe9       1.0  0.38104  0.23079  0.27273  1.0000
  S   S16       1.0  0.41730  0.20853  0.27157  1.0000
  Fe  Fe10      1.0  0.33711  0.25173  0.22932  1.0000
  S   S17       1.0  0.31822  0.24441  0.17915  1.0000
  S   S18       1.0  0.37189  0.25572  0.31472  1.0000
  S   S19       1.0  0.32603  0.27853  0.26877  1.0000
  C   C4        1.0  0.44357  0.14621  0.34038  1.0000
  C   C5        1.0  0.42081  0.15822  0.34603  1.0000
  C   C6        1.0  0.41251  0.17731  0.32534  1.0000
  C   C7        1.0  0.42691  0.18466  0.29861  1.0000
  C   C8        1.0  0.44984  0.17285  0.29314  1.0000
  C   C9        1.0  0.45811  0.15369  0.31380  1.0000
  H   H5        1.0  0.40936  0.15259  0.36645  1.0000
  H   H6        1.0  0.39484  0.18615  0.32990  1.0000
  H   H7        1.0  0.46106  0.17825  0.27242  1.0000
  H   H8        1.0  0.47546  0.14443  0.30879  1.0000
  C   C10       1.0  0.05915  0.24044  0.44056  1.0000
  H   H9        1.0  0.28031  0.28449  0.06556  1.0000
  C   C11       1.0  0.23953  0.20923  0.17140  1.0000
  C   C12       1.0  0.29699  0.28180  0.98407  1.0000
  C   C13       1.0  0.49026  0.32401  0.33458  1.0000
  H   H10       1.0  0.20304  0.21003  0.15058  1.0000
  H   H11       1.0  0.49369  0.03614  0.16686  1.0000
  C   C14       1.0  0.24830  0.26006  0.11516  1.0000
  C   C15       1.0  0.26698  0.24386  0.10483  1.0000
  C   C16       1.0  0.28818  0.23961  0.12451  1.0000
  C   C17       1.0  0.29112  0.25122  0.15505  1.0000
  C   C18       1.0  0.27239  0.26733  0.16544  1.0000
  C   C19       1.0  0.25126  0.27171  0.14565  1.0000
  H   H12       1.0  0.26506  0.23446  0.08176  1.0000
  H   H13       1.0  0.30235  0.22697  0.11617  1.0000
  H   H14       1.0  0.27416  0.27650  0.18870  1.0000
  H   H15       1.0  0.23705  0.28425  0.15411  1.0000
  C   C20       1.0  0.25414  0.26827  0.41431  1.0000
  C   C21       1.0  0.26990  0.28225  0.39426  1.0000
  C   C22       1.0  0.28546  0.27086  0.37105  1.0000
  C   C23       1.0  0.28535  0.24538  0.36784  1.0000
  C   C24       1.0  0.26940  0.23145  0.38767  1.0000
  C   C25       1.0  0.25385  0.24282  0.41083  1.0000
  H   H16       1.0  0.27026  0.30195  0.39687  1.0000
  H   H17       1.0  0.29766  0.28174  0.35590  1.0000
  H   H18       1.0  0.26924  0.21171  0.38532  1.0000
  H   H19       1.0  0.24179  0.23190  0.42612  1.0000
  C   C26       1.0  0.24239  0.21527  0.23078  1.0000
  C   C27       1.0  0.02471  0.01773  0.29002  1.0000
  C   C28       1.0  0.24336  0.22017  0.29113  1.0000
  C   C29       1.0  0.02617  0.01541  0.00203  1.0000
  H   H20       1.0  0.25563  0.22177  0.31289  1.0000
  H   H21       1.0  0.45296  0.31643  0.32248  1.0000
  Fe  Fe11      1.0  0.48879  0.10026  0.37421  1.0000
  C   C30       1.0  0.09399  0.15764  0.42539  1.0000
  H   H22       1.0  0.00756  0.07067  0.24947  1.0000
  H   H23       1.0  0.26570  0.17995  0.26414  1.0000
  H   H24       1.0  0.00472  0.31994  0.97823  1.0000
  H   H25       1.0  0.09746  0.19221  0.40021  1.0000
  N   N1        1.0  0.01915  0.29852  0.43330  1.0000
  H   H26       1.0  0.03492  0.17987  0.98154  1.0000
  C   C31       1.0  0.12184  0.19083  0.44205  1.0000
  S   S20       1.0  0.23522  0.28340  0.44337  1.0000
  N   N2        1.0  0.47478  0.00895  0.13803  1.0000
  N   N3        1.0  0.25788  0.21858  0.26024  1.0000
  H   H27       1.0  0.48065  0.07901  0.07113  1.0000
  H   H28       1.0  0.27361  0.21081  0.19710  1.0000
  H   H29       1.0  0.30918  0.29269  0.04690  1.0000
  H   H30       1.0  0.43533  0.00379  0.14096  1.0000
  C   C32       1.0  0.47742  0.18814  0.38920  1.0000
  H   H31       1.0  0.46217  0.30030  0.23548  1.0000
  C   C33       1.0  0.47701  0.05954  0.07300  1.0000
  C   C34       1.0  0.03877  0.28087  0.44317  1.0000
  C   C35       1.0  0.02416  0.06551  0.20201  1.0000
  H   H32       1.0  0.11696  0.14746  0.00116  1.0000
  H   H33       1.0  0.05821  0.00228  0.02826  1.0000
  H   H34       1.0  0.49950  0.14933  0.36717  1.0000
  C   C36       1.0  0.03694  0.00481  0.13753  1.0000
  H   H35       1.0  0.08016  0.28720  0.99690  1.0000
  C   C37       1.0  0.48873  0.00089  0.27101  1.0000
  C   C38       1.0  0.27557  0.19778  0.26378  1.0000
  C   C39       1.0  0.27211  0.24156  0.25670  1.0000
  H   H36       1.0  0.28958  0.19717  0.24382  1.0000
  H   H37       1.0  0.28647  0.19907  0.28683  1.0000
  H   H38       1.0  0.25962  0.25754  0.25246  1.0000
  H   H39       1.0  0.28536  0.24082  0.23584  1.0000
  H   H40       1.0  0.28320  0.24541  0.27896  1.0000
  H   H41       1.0  0.20578  0.21994  0.25379  1.0000
  C   C40       1.0  0.47629  0.02532  0.16692  1.0000
  H   H42       1.0  0.18209  0.21639  0.20378  1.0000
  H   H43       1.0  0.07591  0.01923  0.40564  1.0000
  H   H44       1.0  0.46802  0.17049  0.39498  1.0000
  H   H45       1.0  0.00406  0.01760  0.46470  1.0000
  H   H46       1.0  0.00595  0.01842  0.08841  1.0000
  H   H47       1.0  0.48073  0.05933  0.12443  1.0000
  C   C41       1.0  0.10375  0.18129  0.42072  1.0000
  H   H48       1.0  0.46982  0.19430  0.36521  1.0000
  H   H49       1.0  0.16128  0.32032  0.41917  1.0000
  H   H50       1.0  0.12472  0.30205  0.44549  1.0000
  C   C42       1.0  0.11414  0.31807  0.45259  1.0000
  C   C43       1.0  0.21384  0.21114  0.17284  1.0000
  H   H51       1.0  0.12930  0.20891  0.43784  1.0000
  H   H52       1.0  0.19066  0.30806  0.43100  1.0000
  H   H53       1.0  0.47883  0.00806  0.41969  1.0000
  H   H54       1.0  0.01332  0.28462  0.38465  1.0000
  H   H55       1.0  0.04435  0.31771  0.40131  1.0000
  C   C44       1.0  0.47292  0.04615  0.04463  1.0000
  H   H56       1.0  0.23122  0.23671  0.29162  1.0000
  C   C45       1.0  0.29284  0.28051  0.04446  1.0000
  H   H57       1.0  0.26821  0.24696  0.00854  1.0000
  H   H58       1.0  0.47153  0.20115  0.40863  1.0000
  C   C46       1.0  0.03145  0.99996  0.39470  1.0000
  S   S21       1.0  0.38833  0.32146  0.27518  1.0000
  C   C47       1.0  0.25367  0.21145  0.19979  1.0000
  C   C48       1.0  0.03051  0.32148  0.42094  1.0000
  C   C49       1.0  0.46856  0.02110  0.04669  1.0000
  H   H59       1.0  0.24862  0.20658  0.14801  1.0000
  C   C50       1.0  0.00339  0.30452  0.46200  1.0000
  C   C51       1.0  0.47307  0.02223  0.10645  1.0000
  H   H60       1.0  0.46008  0.03800  0.16813  1.0000
  H   H61       1.0  0.06868  0.02075  0.36315  1.0000
  H   H62       1.0  0.03668  0.08082  0.20474  1.0000
  H   H63       1.0  0.09525  0.12548  0.45585  1.0000
  H   H64       1.0  0.44064  0.31238  0.26461  1.0000
  H   H65       1.0  0.01966  0.04446  0.10685  1.0000
  S   S22       1.0  0.14449  0.19219  0.99868  1.0000
  C   C52       1.0  0.07653  0.24769  0.46363  1.0000
  S   S23       1.0  0.49857  0.04212  0.47163  1.0000
  H   H66       1.0  0.04604  0.31440  0.98197  1.0000
  H   H67       1.0  0.47487  0.24241  0.27996  1.0000
  H   H68       1.0  0.48025  0.25966  0.24249  1.0000
  N   N4        1.0  0.45803  0.27834  0.27899  1.0000
  C   C53       1.0  0.43762  0.27115  0.30147  1.0000
  C   C54       1.0  0.44783  0.29510  0.25376  1.0000
  C   C55       1.0  0.46669  0.25570  0.26227  1.0000
  C   C56       1.0  0.00950  0.03034  0.17017  1.0000
  C   C57       1.0  0.47190  0.31079  0.31845  1.0000
  H   H69       1.0  0.42690  0.28710  0.31089  1.0000
  C   C58       1.0  0.20212  0.21484  0.20283  1.0000
  C   C59       1.0  0.00266  0.28914  0.40721  1.0000
  C   C60       1.0  0.02504  0.05105  0.17383  1.0000
  H   H70       1.0  0.42359  0.25970  0.28888  1.0000
  C   C61       1.0  0.13064  0.17668  0.46823  1.0000
  H   H71       1.0  0.46601  0.01062  0.02447  1.0000
  H   H72       1.0  0.43198  0.28672  0.24051  1.0000
  C   C62       1.0  0.10247  0.14369  0.45192  1.0000
  H   H73       1.0  0.24744  0.26658  0.03090  1.0000
  H   H74       1.0  0.45110  0.24604  0.25002  1.0000
  H   H75       1.0  0.03830  0.05599  0.15512  1.0000
  S   S24       1.0  0.00289  0.05566  0.40567  1.0000
  H   H76       1.0  0.23195  0.20350  0.29506  1.0000
  S   S25       1.0  0.48993  0.05903  0.37978  1.0000
  C   C63       1.0  0.26037  0.26585  0.00968  1.0000
  N   N5        1.0  0.28017  0.28432  0.01258  1.0000
  C   C64       1.0  0.17565  0.32083  0.43860  1.0000
  C   C65       1.0  0.00584  0.02976  0.11104  1.0000
  H   H77       1.0  0.47651  0.01468  0.19029  1.0000
  C   C66       1.0  0.03846  0.01224  0.26150  1.0000
  H   H78       1.0  0.24917  0.26873  0.98716  1.0000
  H   H79       1.0  0.25734  0.31182  0.03623  1.0000
  H   H80       1.0  0.05111  0.01933  0.13470  1.0000
  H   H81       1.0  0.16755  0.31311  0.46144  1.0000
  H   H82       1.0  0.05411  0.02360  0.25512  1.0000
  C   C67       1.0  0.00761  0.05999  0.22712  1.0000
  H   H83       1.0  0.06017  0.22203  0.43057  1.0000
  H   H84       1.0  0.03293  0.01256  0.41592  1.0000
  N   N6        1.0  0.01143  0.01486  0.14056  1.0000
  C   C68       1.0  0.04047  0.25666  0.43042  1.0000
  C   C69       1.0  0.03844  0.00035  0.02487  1.0000
  H   H85       1.0  0.46870  0.00182  0.27033  1.0000
  H   H86       1.0  0.00997  0.15861  0.97644  1.0000
  H   H87       1.0  0.49187  0.02907  0.30778  1.0000
  C   C70       1.0  0.46889  0.00920  0.07700  1.0000
  H   H88       1.0  0.10341  0.32724  0.40318  1.0000
  C   C71       1.0  0.00453  0.00268  0.29768  1.0000
  S   S26       1.0  0.16819  0.25782  0.46510  1.0000
  H   H89       1.0  0.02080  0.21942  0.98441  1.0000
  C   C72       1.0  0.32035  0.26965  0.98616  1.0000
  H   H90       1.0  0.47371  0.05504  0.02087  1.0000
  C   C73       1.0  0.07412  0.00786  0.38314  1.0000
  C   C74       1.0  0.00066  0.01271  0.99763  1.0000
  H   H91       1.0  0.47816  0.00587  0.37620  1.0000
  C   C75       1.0  0.47706  0.04790  0.10357  1.0000
  C   C76       1.0  0.05677  0.28759  0.46671  1.0000
  H   H92       1.0  0.48612  0.23315  0.37844  1.0000
  H   H93       1.0  0.32743  0.26233  0.00884  1.0000
  H   H94       1.0  0.25522  0.31218  0.99322  1.0000
  H   H95       1.0  0.38931  0.31818  0.34706  1.0000
  C   C77       1.0  0.00189  0.21859  0.97587  1.0000
  H   H96       1.0  0.02483  0.01080  0.37323  1.0000
  H   H97       1.0  0.09286  0.00029  0.37773  1.0000
  C   C78       1.0  0.11220  0.15650  0.97841  1.0000
  C   C79       1.0  0.06990  0.28385  0.97457  1.0000
  H   H98       1.0  0.09096  0.23503  0.47142  1.0000
  C   C80       1.0  0.12075  0.15311  0.47303  1.0000
  H   H99       1.0  0.22519  0.32859  0.41002  1.0000
  S   S27       1.0  0.01221  0.10598  0.86982  1.0000
  Fe  Fe12      1.0  0.02856  0.06159  0.93893  1.0000
  S   S28       1.0  0.05411  0.06831  0.89586  1.0000
  H   H100      1.0  0.47398  0.28578  0.83889  1.0000
  Fe  Fe13      1.0  0.04488  0.10821  0.90392  1.0000
  S   S29       1.0  0.06991  0.14199  0.89777  1.0000
  Fe  Fe14      1.0  0.01956  0.06522  0.86490  1.0000
  H   H101      1.0  0.16099  0.16671  0.91787  1.0000
  S   S30       1.0  0.02168  0.10175  0.94879  1.0000
  Fe  Fe15      1.0  0.15995  0.27956  0.51044  1.0000
  Fe  Fe16      1.0  0.19850  0.26478  0.96798  1.0000
  S   S31       1.0  0.13046  0.30952  0.51620  1.0000
  Fe  Fe17      1.0  0.20179  0.25343  0.55136  1.0000
  S   S32       1.0  0.21270  0.23000  0.50818  1.0000
  S   S33       1.0  0.21622  0.25184  0.60479  1.0000
  H   H102      1.0  0.48509  0.03798  0.62606  1.0000
  H   H103      1.0  0.12427  0.20838  0.93524  1.0000
  Fe  Fe18      1.0  0.17148  0.22534  0.49909  1.0000
  H   H104      1.0  0.47268  0.01827  0.52445  1.0000
  S   S34       1.0  0.19976  0.28806  0.52143  1.0000
  S   S35       1.0  0.16085  0.24681  0.54394  1.0000
  H   H105      1.0  0.18059  0.20018  0.60414  1.0000
  C   C81       1.0  0.01236  0.00911  0.48593  1.0000
  S   S36       1.0  0.45726  0.11049  0.87670  1.0000
  Fe  Fe19      1.0  0.36835  0.26817  0.78148  1.0000
  S   S37       1.0  0.37409  0.24152  0.74048  1.0000
  S   S38       1.0  0.38872  0.30434  0.77327  1.0000
  Fe  Fe20      1.0  0.33409  0.23241  0.81621  1.0000
  S   S39       1.0  0.33776  0.20352  0.77695  1.0000
  S   S40       1.0  0.31457  0.22250  0.86378  1.0000
  Fe  Fe21      1.0  0.37848  0.21242  0.77910  1.0000
  S   S41       1.0  0.41221  0.18707  0.77342  1.0000
  Fe  Fe22      1.0  0.33285  0.23508  0.74135  1.0000
  S   S42       1.0  0.31554  0.23380  0.68938  1.0000
  S   S43       1.0  0.37519  0.23955  0.82001  1.0000
  S   S44       1.0  0.32670  0.26347  0.78083  1.0000
  C   C82       1.0  0.44507  0.13158  0.84745  1.0000
  C   C83       1.0  0.45715  0.13660  0.81789  1.0000
  C   C84       1.0  0.44681  0.15355  0.79552  1.0000
  C   C85       1.0  0.42425  0.16564  0.80234  1.0000
  C   C86       1.0  0.41216  0.16057  0.83189  1.0000
  C   C87       1.0  0.42253  0.14365  0.85425  1.0000
  H   H106      1.0  0.47418  0.12706  0.81199  1.0000
  H   H107      1.0  0.45625  0.15724  0.77268  1.0000
  H   H108      1.0  0.39477  0.16961  0.83747  1.0000
  H   H109      1.0  0.41293  0.13980  0.87694  1.0000
  H   H110      1.0  0.01406  0.31334  0.48191  1.0000
  H   H111      1.0  0.08797  0.12731  0.96274  1.0000
  H   H112      1.0  0.19532  0.31935  0.94449  1.0000
  H   H113      1.0  0.39384  0.29894  0.84424  1.0000
  C   C88       1.0  0.18787  0.19420  0.58001  1.0000
  H   H114      1.0  0.09268  0.25311  0.96090  1.0000
  C   C89       1.0  0.31970  0.30473  0.59231  1.0000
  C   C90       1.0  0.24421  0.24676  0.62757  1.0000
  C   C91       1.0  0.26683  0.24055  0.61279  1.0000
  C   C92       1.0  0.28833  0.23682  0.63206  1.0000
  C   C93       1.0  0.28768  0.23916  0.66642  1.0000
  C   C94       1.0  0.26509  0.24549  0.68117  1.0000
  C   C95       1.0  0.24361  0.24920  0.66192  1.0000
  H   H115      1.0  0.26780  0.23857  0.58651  1.0000
  H   H116      1.0  0.30560  0.23198  0.62020  1.0000
  H   H117      1.0  0.26410  0.24737  0.70746  1.0000
  H   H118      1.0  0.22631  0.25401  0.67376  1.0000
  C   C96       1.0  0.24459  0.25919  0.90513  1.0000
  C   C97       1.0  0.25389  0.26640  0.87448  1.0000
  C   C98       1.0  0.27516  0.25512  0.86125  1.0000
  C   C99       1.0  0.28741  0.23673  0.87883  1.0000
  C   C100      1.0  0.27794  0.22936  0.90936  1.0000
  C   C101      1.0  0.25646  0.24037  0.92237  1.0000
  H   H119      1.0  0.24476  0.28093  0.86101  1.0000
  H   H120      1.0  0.28225  0.26084  0.83768  1.0000
  H   H121      1.0  0.28736  0.21510  0.92300  1.0000
  H   H122      1.0  0.24943  0.23456  0.94588  1.0000
  C   C102      1.0  0.11640  0.19079  0.94138  1.0000
  C   C103      1.0  0.01669  0.02164  0.78811  1.0000
  C   C104      1.0  0.32721  0.27433  0.92790  1.0000
  C   C105      1.0  0.03616  0.01581  0.49566  1.0000
  H   H123      1.0  0.20213  0.22134  0.92920  1.0000
  H   H124      1.0  0.01465  0.30595  0.87608  1.0000
  C   C106      1.0  0.49107  0.01029  0.52372  1.0000
  C   C107      1.0  0.08989  0.15605  0.92674  1.0000
  C   C108      1.0  0.10030  0.17905  0.91931  1.0000
  C   C109      1.0  0.00236  0.30486  0.89794  1.0000
  C   C110      1.0  0.05019  0.29924  0.96586  1.0000
  C   C111      1.0  0.26646  0.18046  0.64245  1.0000
  H   H125      1.0  0.09598  0.18774  0.89619  1.0000
  C   C112      1.0  0.46818  0.19477  0.85956  1.0000
  C   C113      1.0  0.47674  0.22581  0.80631  1.0000
  H   H126      1.0  0.28258  0.18350  0.65768  1.0000
  N   N7        1.0  0.01345  0.18465  0.93714  1.0000
  H   H127      1.0  0.37502  0.28801  0.65443  1.0000
  N   N8        1.0  0.20188  0.17079  0.58166  1.0000
  N   N9        1.0  0.19686  0.18390  0.91468  1.0000
  C   C114      1.0  0.17680  0.16889  0.90047  1.0000
  C   C115      1.0  0.20366  0.17283  0.94671  1.0000
  C   C116      1.0  0.18706  0.20887  0.92126  1.0000
  C   C117      1.0  0.21784  0.18530  0.89129  1.0000
  C   C118      1.0  0.24166  0.17518  0.89801  1.0000
  C   C119      1.0  0.21474  0.19708  0.86054  1.0000
  C   C120      1.0  0.26111  0.17726  0.87548  1.0000
  C   C121      1.0  0.23439  0.19922  0.83835  1.0000
  C   C122      1.0  0.25753  0.18937  0.84586  1.0000
  H   H128      1.0  0.17822  0.21742  0.89953  1.0000
  H   H129      1.0  0.43781  0.23452  0.80925  1.0000
  H   H130      1.0  0.34510  0.30167  0.73242  1.0000
  H   H131      1.0  0.20977  0.15343  0.94405  1.0000
  C   C123      1.0  0.01511  0.00218  0.73364  1.0000
  H   H132      1.0  0.21849  0.18347  0.95897  1.0000
  H   H133      1.0  0.48058  0.99864  0.65328  1.0000
  H   H134      1.0  0.35507  0.30878  0.61435  1.0000
  H   H135      1.0  0.48943  0.31854  0.80553  1.0000
  H   H136      1.0  0.24595  0.16591  0.92065  1.0000
  C   C124      1.0  0.33159  0.30112  0.71190  1.0000
  H   H137      1.0  0.27940  0.17015  0.88134  1.0000
  C   C125      1.0  0.00315  0.16797  0.91202  1.0000
  H   H138      1.0  0.27296  0.19159  0.82904  1.0000
  C   C126      1.0  0.02452  0.16912  0.96320  1.0000
  H   H139      1.0  0.23182  0.20888  0.81540  1.0000
  S   S45       1.0  0.15438  0.18716  0.49504  1.0000
  C   C127      1.0  0.22201  0.18163  0.63510  1.0000
  H   H140      1.0  0.37605  0.28534  0.69778  1.0000
  H   H141      1.0  0.16896  0.14861  0.58108  1.0000
  S   S46       1.0  0.21892  0.27515  0.92161  1.0000
  H   H142      1.0  0.17882  0.15718  0.62099  1.0000
  H   H143      1.0  0.17163  0.19300  0.56332  1.0000
  H   H144      1.0  0.26519  0.29617  0.63200  1.0000
  H   H145      1.0  0.33837  0.27087  0.90626  1.0000
  C   C128      1.0  0.24282  0.18481  0.65488  1.0000
  H   H146      1.0  0.28793  0.17022  0.60041  1.0000
  C   C129      1.0  0.18570  0.15184  0.59638  1.0000
  H   H147      1.0  0.41781  0.32271  0.88493  1.0000
  C   C130      1.0  0.03652  0.29549  0.93671  1.0000
  C   C131      1.0  0.33512  0.26603  0.95838  1.0000
  C   C132      1.0  0.04692  0.00430  0.52295  1.0000
  H   H148      1.0  0.02549  0.21243  0.90339  1.0000
  C   C133      1.0  0.49892  0.32687  0.82681  1.0000
  C   C134      1.0  0.29440  0.30124  0.59699  1.0000
  C   C135      1.0  0.01615  0.02334  0.75364  1.0000
  H   H149      1.0  0.46730  0.30680  0.87095  1.0000
  H   H150      1.0  0.04456  0.20941  0.93938  1.0000
  H   H151      1.0  0.31756  0.31562  0.71699  1.0000
  C   C136      1.0  0.28937  0.28966  0.95250  1.0000
  C   C137      1.0  0.04426  0.27569  0.91644  1.0000
  S   S47       1.0  0.15731  0.25956  0.96330  1.0000
  H   H152      1.0  0.19578  0.13409  0.59894  1.0000
  C   C138      1.0  0.07702  0.26464  0.95425  1.0000
  H   H153      1.0  0.49166  0.15033  0.87736  1.0000
  C   C139      1.0  0.32658  0.30371  0.65173  1.0000
  H   H154      1.0  0.08884  0.27672  0.49479  1.0000
  C   C140      1.0  0.12271  0.17940  0.97097  1.0000
  H   H155      1.0  0.25245  0.16441  0.56516  1.0000
  C   C141      1.0  0.20743  0.16319  0.54752  1.0000
  H   H156      1.0  0.21728  0.14526  0.54666  1.0000
  C   C142      1.0  0.22428  0.17398  0.60205  1.0000
  H   H157      1.0  0.19993  0.20917  0.57095  1.0000
  C   C143      1.0  0.06430  0.26062  0.92518  1.0000
  C   C144      1.0  0.03334  0.19917  0.92134  1.0000
  H   H158      1.0  0.47968  0.23723  0.78494  1.0000
  C   C145      1.0  0.30060  0.30034  0.65559  1.0000
  H   H159      1.0  0.20411  0.18570  0.64572  1.0000
  H   H160      1.0  0.19020  0.16097  0.53287  1.0000
  H   H161      1.0  0.12664  0.31431  0.93936  1.0000
  H   H162      1.0  0.16904  0.17716  0.87782  1.0000
  H   H163      1.0  0.19714  0.20501  0.85355  1.0000
  H   H164      1.0  0.32247  0.28290  0.71320  1.0000
  H   H165      1.0  0.00716  0.07210  0.61496  1.0000
  S   S48       1.0  0.01823  0.04933  0.81194  1.0000
  C   C146      1.0  0.30451  0.28633  0.92506  1.0000
  H   H166      1.0  0.03798  0.15558  0.95300  1.0000
  C   C147      1.0  0.40676  0.31986  0.80300  1.0000
  Fe  Fe23      1.0  0.49532  0.09178  0.87903  1.0000
  H   H167      1.0  0.21862  0.17722  0.53441  1.0000
  C   C148      1.0  0.26941  0.17305  0.61011  1.0000
  H   H168      1.0  0.43038  0.20768  0.85674  1.0000
  C   C149      1.0  0.36324  0.28552  0.67643  1.0000
  H   H169      1.0  0.01767  0.15564  0.90161  1.0000
  C   C150      1.0  0.44899  0.20923  0.84684  1.0000
  H   H170      1.0  0.18759  0.17249  0.96395  1.0000
  H   H171      1.0  0.03540  0.27167  0.89348  1.0000
  H   H172      1.0  0.28212  0.29969  0.57615  1.0000
  H   H173      1.0  0.01477  0.00407  0.70732  1.0000
  N   N10       1.0  0.01560  0.31203  0.92822  1.0000
  Fe  Fe24      1.0  0.20833  0.26434  0.47782  1.0000
  C   C151      1.0  0.49000  0.04996  0.72354  1.0000
  C   C152      1.0  0.24873  0.16983  0.59005  1.0000
  H   H174      1.0  0.17259  0.20868  0.94071  1.0000
  N   N11       1.0  0.34389  0.30480  0.67975  1.0000
  H   H175      1.0  0.07027  0.24592  0.90915  1.0000
  H   H176      1.0  0.06540  0.00933  0.53047  1.0000
  C   C153      1.0  0.09572  0.14500  0.95664  1.0000
  C   C154      1.0  0.45316  0.22444  0.82004  1.0000
  H   H177      1.0  0.35475  0.26701  0.67476  1.0000
  H   H178      1.0  0.29817  0.29221  0.90114  1.0000
  C   C155      1.0  0.33559  0.30612  0.61921  1.0000
  H   H179      1.0  0.32705  0.30607  0.56767  1.0000
  H   H180      1.0  0.01656  0.99634  0.82850  1.0000
  C   C156      1.0  0.40564  0.31375  0.83621  1.0000
  H   H181      1.0  0.27125  0.29757  0.94834  1.0000
  H   H182      1.0  0.29195  0.29779  0.67918  1.0000
  H   H183      1.0  0.04661  0.18724  0.90783  1.0000
  H   H184      1.0  0.46320  0.18254  0.87931  1.0000
  C   C157      1.0  0.49621  0.21182  0.81923  1.0000
  C   C158      1.0  0.11291  0.32480  0.48552  1.0000
  H   H185      1.0  0.24070  0.19133  0.67975  1.0000
  H   H186      1.0  0.01659  0.04127  0.74231  1.0000
  C   C159      1.0  0.28487  0.29930  0.62853  1.0000
  H   H187      1.0  0.49888  0.17367  0.90711  1.0000
  H   H188      1.0  0.47213  0.05408  0.73448  1.0000
  H   H189      1.0  0.18362  0.15018  0.89421  1.0000
  C   C160      1.0  0.48212  0.29469  0.86074  1.0000
  C   C161      1.0  0.49245  0.19556  0.84595  1.0000
  H   H190      1.0  0.47416  0.03285  0.68206  1.0000
  H   H191      1.0  0.48600  0.28015  0.87918  1.0000
  H   H192      1.0  0.10060  0.99758  0.80149  1.0000
  C   C162      1.0  0.49140  0.03760  0.69368  1.0000
  H   H193      1.0  0.12738  0.14195  0.49310  1.0000
  C   C163      1.0  0.01612  0.99818  0.80216  1.0000
  C   C164      1.0  0.07528  0.27118  0.47676  1.0000
  H   H194      1.0  0.05672  0.30563  0.47754  1.0000
  H   H195      1.0  0.06693  0.99866  0.76088  1.0000
  C   C165      1.0  0.41924  0.32731  0.85924  1.0000
  H   H196      1.0  0.35265  0.25631  0.96031  1.0000
  H   H197      1.0  0.00024  0.02848  0.62876  1.0000
  S   S49       1.0  0.05324  0.03807  0.47404  1.0000
  H   H198      1.0  0.00067  0.06055  0.49280  1.0000
  C   C166      1.0  0.11359  0.32833  0.94693  1.0000
  H   H199      1.0  0.47293  0.42456  0.46736  1.0000
  H   H200      1.0  0.49888  0.42722  0.26305  1.0000
  S   S50       1.0  0.03214  0.43453  0.41155  1.0000
  H   H201      1.0  0.02263  0.45647  0.00502  1.0000
  H   H202      1.0  0.08844  0.35357  0.01522  1.0000
  C   C167      1.0  0.10924  0.33225  0.98025  1.0000
  Fe  Fe25      1.0  0.03803  0.39330  0.41152  1.0000
  S   S51       1.0  0.07379  0.37104  0.40646  1.0000
  C   C168      1.0  0.41558  0.34562  0.36274  1.0000
  Fe  Fe26      1.0  0.04334  0.60365  0.14238  1.0000
  H   H203      1.0  0.31566  0.64249  0.21643  1.0000
  S   S52       1.0  0.06859  0.63749  0.14279  1.0000
  Fe  Fe27      1.0  0.02479  0.55414  0.11670  1.0000
  H   H204      1.0  0.42426  0.35979  0.27074  1.0000
  Fe  Fe28      1.0  0.02163  0.56365  0.19043  1.0000
  H   H205      1.0  0.14741  0.36061  0.43966  1.0000
  S   S53       1.0  0.01716  0.59344  0.10173  1.0000
  S   S54       1.0  0.05332  0.56445  0.15430  1.0000
  S   S55       1.0  0.47539  0.56310  0.14724  1.0000
  H   H206      1.0  0.16907  0.38026  0.46078  1.0000
  S   S56       1.0  0.45403  0.63433  0.14563  1.0000
  H   H207      1.0  0.11631  0.64121  0.03930  1.0000
  Fe  Fe29      1.0  0.49893  0.56032  0.19247  1.0000
  S   S57       1.0  0.44751  0.38150  0.38377  1.0000
  C   C169      1.0  0.01887  0.51910  0.26424  1.0000
  C   C170      1.0  0.43247  0.36389  0.35318  1.0000
  C   C171      1.0  0.43583  0.36855  0.31981  1.0000
  H   H208      1.0  0.07208  0.50165  0.13675  1.0000
  H   H209      1.0  0.44853  0.38269  0.31204  1.0000
  C   C172      1.0  0.00495  0.49039  0.99135  1.0000
  C   C173      1.0  0.40512  0.33725  0.30596  1.0000
  H   H210      1.0  0.30420  0.65327  0.32825  1.0000
  H   H211      1.0  0.45287  0.45432  0.43163  1.0000
  C   C174      1.0  0.43940  0.64960  0.17900  1.0000
  S   S58       1.0  0.03400  0.51884  0.08961  1.0000
  C   C175      1.0  0.18419  0.37525  0.39483  1.0000
  C   C176      1.0  0.44548  0.64432  0.21154  1.0000
  C   C177      1.0  0.34667  0.64891  0.28922  1.0000
  H   H212      1.0  0.45883  0.63006  0.21696  1.0000
  H   H213      1.0  0.01992  0.48451  0.15841  1.0000
  C   C178      1.0  0.48466  0.48470  0.02248  1.0000
  S   S59       1.0  0.00966  0.38561  0.45031  1.0000
  C   C179      1.0  0.09455  0.63958  0.08366  1.0000
  Fe  Fe30      1.0  0.48263  0.60365  0.15176  1.0000
  C   C180      1.0  0.05500  0.41457  0.19405  1.0000
  H   H214      1.0  0.08667  0.62191  0.07812  1.0000
  C   C181      1.0  0.48947  0.49948  0.14746  1.0000
  H   H215      1.0  0.04127  0.39594  0.23692  1.0000
  N   N12       1.0  0.18467  0.34609  0.44368  1.0000
  H   H216      1.0  0.06226  0.50350  0.22478  1.0000
  H   H217      1.0  0.16833  0.34216  0.98286  1.0000
  S   S60       1.0  0.01389  0.60396  0.18181  1.0000
  Fe  Fe31      1.0  0.48512  0.40056  0.38054  1.0000
  H   H218      1.0  0.48267  0.45438  0.12270  1.0000
  C   C182      1.0  0.21628  0.34413  0.39842  1.0000
  H   H219      1.0  0.03394  0.51402  0.16231  1.0000
  H   H220      1.0  0.39447  0.42219  0.45358  1.0000
  C   C183      1.0  0.49056  0.50319  0.04537  1.0000
  C   C184      1.0  0.02307  0.50870  0.05123  1.0000
  C   C185      1.0  0.02800  0.48442  0.04170  1.0000
  C   C186      1.0  0.01906  0.47530  0.01184  1.0000
  H   H221      1.0  0.03860  0.47252  0.05764  1.0000
  C   C187      1.0  0.41193  0.41202  0.45891  1.0000
  C   C188      1.0  0.08734  0.35266  0.43757  1.0000
  H   H222      1.0  0.21680  0.66013  0.09386  1.0000
  H   H223      1.0  0.46610  0.47733  0.02207  1.0000
  H   H224      1.0  0.22297  0.37801  0.32907  1.0000
  C   C189      1.0  0.19431  0.38326  0.36514  1.0000
  C   C190      1.0  0.21528  0.37183  0.35216  1.0000
  H   H225      1.0  0.05791  0.47311  0.12859  1.0000
  H   H226      1.0  0.43928  0.65339  0.26228  1.0000
  C   C191      1.0  0.16911  0.65083  0.11896  1.0000
  H   H227      1.0  0.49365  0.65486  0.18278  1.0000
  C   C192      1.0  0.16360  0.36093  0.45648  1.0000
  S   S61       1.0  0.02952  0.54456  0.24016  1.0000
  C   C193      1.0  0.14009  0.64178  0.16260  1.0000
  C   C194      1.0  0.08845  0.65117  0.11307  1.0000
  H   H228      1.0  0.01639  0.33437  0.41074  1.0000
  N   N13       1.0  0.43318  0.42893  0.46291  1.0000
  C   C195      1.0  0.10178  0.33220  0.42870  1.0000
  H   H229      1.0  0.30869  0.65600  0.27201  1.0000
  C   C196      1.0  0.40225  0.33211  0.33930  1.0000
  H   H230      1.0  0.24237  0.34314  0.35851  1.0000
  H   H231      1.0  0.33655  0.62185  0.34182  1.0000
  H   H232      1.0  0.00101  0.48285  0.38766  1.0000
  C   C197      1.0  0.15024  0.63633  0.13212  1.0000
  H   H233      1.0  0.46973  0.49372  0.14704  1.0000
  H   H234      1.0  0.03647  0.47380  0.23970  1.0000
  C   C198      1.0  0.48303  0.45573  0.23315  1.0000
  H   H235      1.0  0.02202  0.49911  0.19760  1.0000
  H   H236      1.0  0.45770  0.39919  0.44940  1.0000
  C   C199      1.0  0.19506  0.35546  0.41255  1.0000
  C   C200      1.0  0.32696  0.64914  0.26615  1.0000
  C   C201      1.0  0.04200  0.45770  0.22629  1.0000
  C   C202      1.0  0.22622  0.35227  0.36875  1.0000
  H   H237      1.0  0.00629  0.54287  0.03692  1.0000
  H   H238      1.0  0.04954  0.52129  0.29775  1.0000
  H   H239      1.0  0.18567  0.39831  0.35197  1.0000
  C   C203      1.0  0.08496  0.35857  0.47068  1.0000
  H   H240      1.0  0.47170  0.48404  0.20120  1.0000
  H   H241      1.0  0.41493  0.39924  0.43797  1.0000
  C   C204      1.0  0.20409  0.34557  0.46933  1.0000
  S   S62       1.0  0.48441  0.53905  0.23571  1.0000
  H   H242      1.0  0.36836  0.63097  0.34470  1.0000
  C   C205      1.0  0.03290  0.51141  0.29151  1.0000
  H   H243      1.0  0.08777  0.47416  0.14901  1.0000
  C   C206      1.0  0.48489  0.46923  0.20414  1.0000
  C   C207      1.0  0.09202  0.35044  0.98952  1.0000
  H   H244      1.0  0.49490  0.47809  0.32247  1.0000
  H   H245      1.0  0.05995  0.39771  0.18160  1.0000
  C   C208      1.0  0.04447  0.41349  0.22519  1.0000
  H   H246      1.0  0.46896  0.46044  0.25110  1.0000
  H   H247      1.0  0.47656  0.50986  0.06213  1.0000
  H   H248      1.0  0.41269  0.34195  0.38847  1.0000
  C   C209      1.0  0.34892  0.63770  0.34650  1.0000
  C   C210      1.0  0.03792  0.43503  0.24126  1.0000
  C   C211      1.0  0.45563  0.41367  0.46835  1.0000
  S   S63       1.0  0.49270  0.44124  0.38496  1.0000
  N   N14       1.0  0.05645  0.48392  0.17936  1.0000
  C   C212      1.0  0.07156  0.49962  0.20107  1.0000
  C   C213      1.0  0.06918  0.48294  0.14711  1.0000
  C   C214      1.0  0.03201  0.49582  0.17427  1.0000
  C   C215      1.0  0.05278  0.45957  0.19468  1.0000
  C   C216      1.0  0.43432  0.65757  0.23727  1.0000
  H   H249      1.0  0.41984  0.45481  0.42717  1.0000
  S   S64       1.0  0.01145  0.38769  0.36992  1.0000
  H   H250      1.0  0.03689  0.48547  0.33154  1.0000
  H   H251      1.0  0.38580  0.63909  0.29409  1.0000
  H   H252      1.0  0.08976  0.49089  0.20657  1.0000
  H   H253      1.0  0.07505  0.51795  0.18996  1.0000
  H   H254      1.0  0.12479  0.63102  0.17204  1.0000
  C   C217      1.0  0.33067  0.64132  0.23394  1.0000
  C   C218      1.0  0.11141  0.65059  0.06170  1.0000
  H   H255      1.0  0.47283  0.51157  0.29313  1.0000
  H   H256      1.0  0.06706  0.43671  0.15459  1.0000
  H   H257      1.0  0.39132  0.62515  0.23800  1.0000
  N   N15       1.0  0.34380  0.65795  0.32319  1.0000
  H   H258      1.0  0.43799  0.43006  0.41048  1.0000
  C   C219      1.0  0.42196  0.35556  0.29643  1.0000
  H   H259      1.0  0.16773  0.38469  0.40320  1.0000
  C   C220      1.0  0.02577  0.49100  0.31079  1.0000
  H   H260      1.0  0.14270  0.62135  0.11802  1.0000
  C   C221      1.0  0.37324  0.63153  0.24608  1.0000
  H   H261      1.0  0.17530  0.64612  0.09464  1.0000
  C   C222      1.0  0.43608  0.44265  0.43177  1.0000
  C   C223      1.0  0.36983  0.63952  0.27824  1.0000
  C   C224      1.0  0.00432  0.47788  0.30323  1.0000
  H   H262      1.0  0.34604  0.64359  0.37230  1.0000
  H   H263      1.0  0.01246  0.49974  0.42196  1.0000
  H   H264      1.0  0.02952  0.43422  0.26544  1.0000
  Fe  Fe32      1.0  0.00338  0.42831  0.37241  1.0000
  C   C225      1.0  0.05907  0.43722  0.17881  1.0000
  H   H265      1.0  0.04009  0.33182  0.44044  1.0000
  H   H266      1.0  0.49214  0.51235  0.16823  1.0000
  H   H267      1.0  0.49254  0.51015  0.12452  1.0000
  C   C226      1.0  0.00957  0.52400  0.03030  1.0000
  H   H268      1.0  0.48511  0.33903  0.35068  1.0000
  C   C227      1.0  0.49082  0.50549  0.28457  1.0000
  H   H269      1.0  0.21907  0.33208  0.46398  1.0000
  H   H270      1.0  0.35676  0.62713  0.19874  1.0000
  C   C228      1.0  0.35378  0.63266  0.22389  1.0000
  Fe  Fe33      1.0  0.00117  0.42606  0.44702  1.0000
  H   H271      1.0  0.21277  0.36386  0.47214  1.0000
  C   C229      1.0  0.00037  0.51480  0.00061  1.0000
  C   C230      1.0  0.14885  0.66172  0.18019  1.0000
  H   H272      1.0  0.03014  0.47638  0.47308  1.0000
  H   H273      1.0  0.06714  0.37934  0.97354  1.0000
  H   H274      1.0  0.34216  0.34410  0.68214  1.0000
  C   C231      1.0  0.15888  0.37034  0.94791  1.0000
  S   S65       1.0  0.03295  0.44515  0.89113  1.0000
  H   H275      1.0  0.03864  0.48652  0.80276  1.0000
  H   H276      1.0  0.00999  0.35008  0.91547  1.0000
  H   H277      1.0  0.10777  0.64295  0.52712  1.0000
  Fe  Fe34      1.0  0.03691  0.40463  0.90275  1.0000
  S   S66       1.0  0.07262  0.38170  0.90214  1.0000
  H   H278      1.0  0.15863  0.43781  0.88615  1.0000
  Fe  Fe35      1.0  0.03410  0.61332  0.62612  1.0000
  H   H279      1.0  0.42304  0.34427  0.76750  1.0000
  S   S67       1.0  0.05771  0.64784  0.62855  1.0000
  Fe  Fe36      1.0  0.01484  0.56876  0.58971  1.0000
  C   C232      1.0  0.42582  0.48039  0.54251  1.0000
  Fe  Fe37      1.0  0.01538  0.56672  0.66450  1.0000
  S   S68       1.0  0.02668  0.54315  0.70957  1.0000
  H   H280      1.0  0.12184  0.37993  0.87854  1.0000
  S   S69       1.0  0.04522  0.57362  0.62666  1.0000
  S   S70       1.0  0.46941  0.56935  0.64720  1.0000
  Fe  Fe38      1.0  0.48221  0.60783  0.65744  1.0000
  S   S71       1.0  0.46259  0.64515  0.65399  1.0000
  S   S72       1.0  0.48144  0.43246  0.88252  1.0000
  Fe  Fe39      1.0  0.48273  0.39104  0.87926  1.0000
  S   S73       1.0  0.45127  0.36300  0.87983  1.0000
  H   H281      1.0  0.36770  0.33237  0.65850  1.0000
  C   C233      1.0  0.43449  0.34684  0.84940  1.0000
  C   C234      1.0  0.43605  0.35263  0.81610  1.0000
  C   C235      1.0  0.47359  0.53102  0.84833  1.0000
  H   H282      1.0  0.44757  0.36767  0.80813  1.0000
  C   C236      1.0  0.49505  0.52703  0.86782  1.0000
  C   C237      1.0  0.03747  0.47655  0.66701  1.0000
  C   C238      1.0  0.14213  0.64099  0.61797  1.0000
  H   H283      1.0  0.45508  0.40445  0.49264  1.0000
  C   C239      1.0  0.02499  0.33724  0.92326  1.0000
  H   H284      1.0  0.48086  0.46800  0.80890  1.0000
  H   H285      1.0  0.40930  0.40031  0.48096  1.0000
  C   C240      1.0  0.42726  0.64072  0.70333  1.0000
  H   H286      1.0  0.45604  0.51396  0.90919  1.0000
  H   H287      1.0  0.43320  0.62182  0.70566  1.0000
  C   C241      1.0  0.10261  0.65397  0.54802  1.0000
  S   S74       1.0  0.47526  0.53480  0.72876  1.0000
  C   C242      1.0  0.17113  0.34904  0.95818  1.0000
  C   C243      1.0  0.08466  0.64518  0.57031  1.0000
  H   H288      1.0  0.14181  0.41903  0.95012  1.0000
  H   H289      1.0  0.07387  0.37424  0.47787  1.0000
  H   H290      1.0  0.07618  0.62752  0.56647  1.0000
  H   H291      1.0  0.12180  0.42916  0.91797  1.0000
  H   H292      1.0  0.48624  0.34151  0.83577  1.0000
  N   N16       1.0  0.14884  0.40175  0.90345  1.0000
  C   C244      1.0  0.01727  0.51824  0.73563  1.0000
  C   C245      1.0  0.03271  0.51120  0.76184  1.0000
  C   C246      1.0  0.02631  0.49168  0.78310  1.0000
  C   C247      1.0  0.40889  0.44696  0.51088  1.0000
  C   C248      1.0  0.03816  0.46641  0.58110  1.0000
  H   H293      1.0  0.04981  0.52097  0.76577  1.0000
  H   H294      1.0  0.42429  0.49333  0.56250  1.0000
  H   H295      1.0  0.19654  0.65656  0.65663  1.0000
  H   H296      1.0  0.36866  0.33066  0.70210  1.0000
  H   H297      1.0  0.12044  0.61024  0.60210  1.0000
  H   H298      1.0  0.01668  0.57749  0.79440  1.0000
  C   C249      1.0  0.01990  0.42767  0.56594  1.0000
  H   H299      1.0  0.39358  0.43458  0.50773  1.0000
  C   C250      1.0  0.00904  0.50545  0.86976  1.0000
  C   C251      1.0  0.08476  0.36161  0.93263  1.0000
  C   C252      1.0  0.01014  0.44578  0.61837  1.0000
  H   H300      1.0  0.06325  0.49991  0.62049  1.0000
  C   C253      1.0  0.40776  0.64977  0.72298  1.0000
  C   C254      1.0  0.13406  0.39591  0.87393  1.0000
  N   N17       1.0  0.02752  0.48633  0.63576  1.0000
  H   H301      1.0  0.02526  0.51781  0.86906  1.0000
  S   S75       1.0  0.00699  0.60723  0.66724  1.0000
  C   C255      1.0  0.18624  0.33607  0.93661  1.0000
  C   C256      1.0  0.16159  0.37934  0.91540  1.0000
  H   H302      1.0  0.02461  0.46347  0.67906  1.0000
  H   H303      1.0  0.17938  0.42491  0.91611  1.0000
  H   H304      1.0  0.04975  0.48141  0.57332  1.0000
  C   C257      1.0  0.11328  0.61886  0.65240  1.0000
  H   H305      1.0  0.04480  0.44791  0.53534  1.0000
  C   C258      1.0  0.09788  0.34483  0.49447  1.0000
  H   H306      1.0  0.03695  0.51558  0.60232  1.0000
  H   H307      1.0  0.04064  0.49143  0.68509  1.0000
  H   H308      1.0  0.18051  0.37156  0.86923  1.0000
  H   H309      1.0  0.45593  0.52283  0.85391  1.0000
  C   C259      1.0  0.10155  0.34305  0.92333  1.0000
  S   S76       1.0  0.01035  0.39446  0.86281  1.0000
  C   C260      1.0  0.12519  0.62198  0.62245  1.0000
  C   C261      1.0  0.04401  0.50652  0.62496  1.0000
  C   C262      1.0  0.49175  0.51280  0.75196  1.0000
  C   C263      1.0  0.02547  0.46626  0.61166  1.0000
  H   H310      1.0  0.10902  0.63209  0.70140  1.0000
  C   C264      1.0  0.07845  0.65888  0.59805  1.0000
  H   H311      1.0  0.12179  0.41141  0.86642  1.0000
  H   H312      1.0  0.14978  0.64289  0.59367  1.0000
  C   C265      1.0  0.42211  0.33931  0.79310  1.0000
  C   C266      1.0  0.17744  0.36582  0.89421  1.0000
  C   C267      1.0  0.13587  0.65323  0.67431  1.0000
  H   H313      1.0  0.46583  0.46427  0.48257  1.0000
  C   C268      1.0  0.47455  0.54547  0.82003  1.0000
  H   H314      1.0  0.45859  0.49817  0.77386  1.0000
  C   C269      1.0  0.47064  0.49991  0.90450  1.0000
  H   H315      1.0  0.09657  0.35004  0.51993  1.0000
  H   H316      1.0  0.47134  0.48803  0.92673  1.0000
  H   H317      1.0  0.03966  0.33772  0.90405  1.0000
  H   H318      1.0  0.11716  0.39972  0.93554  1.0000
  C   C270      1.0  0.16753  0.42047  0.89470  1.0000
  C   C271      1.0  0.13176  0.41285  0.92794  1.0000
  H   H319      1.0  0.09932  0.60480  0.65522  1.0000
  C   C272      1.0  0.44683  0.48036  0.52273  1.0000
  C   C273      1.0  0.02856  0.50811  0.50453  1.0000
  S   S77       1.0  0.49358  0.45233  0.97158  1.0000
  C   C274      1.0  0.40688  0.46375  0.53659  1.0000
  H   H320      1.0  0.01706  0.55471  0.84594  1.0000
  H   H321      1.0  0.45825  0.54764  0.80476  1.0000
  C   C275      1.0  0.35612  0.32904  0.68054  1.0000
  H   H322      1.0  0.03302  0.34505  0.94588  1.0000
  H   H323      1.0  0.04480  0.51649  0.49380  1.0000
  C   C276      1.0  0.02023  0.48547  0.49265  1.0000
  C   C277      1.0  0.00732  0.42689  0.59569  1.0000
  H   H324      1.0  0.14576  0.39138  0.85239  1.0000
  H   H325      1.0  0.39891  0.63769  0.74044  1.0000
  C   C278      1.0  0.47860  0.49705  0.77292  1.0000
  C   C279      1.0  0.00266  0.49712  0.64189  1.0000
  C   C280      1.0  0.18945  0.34444  0.90472  1.0000
  C   C281      1.0  0.01614  0.51992  0.53036  1.0000
  C   C282      1.0  0.03549  0.44720  0.55886  1.0000
  H   H326      1.0  0.05547  0.46693  0.66307  1.0000
  H   H327      1.0  0.18006  0.41424  0.87472  1.0000
  S   S78       1.0  0.02739  0.54829  0.54428  1.0000
  H   H328      1.0  0.48910  0.54200  0.92955  1.0000
  N   N18       1.0  0.49501  0.51135  0.89748  1.0000
  S   S79       1.0  0.00819  0.40456  0.94281  1.0000
  H   H329      1.0  0.46159  0.49329  0.52741  1.0000
  H   H330      1.0  0.00370  0.51325  0.65839  1.0000
  H   H331      1.0  0.14695  0.37896  0.96577  1.0000
  C   C283      1.0  0.49117  0.48002  0.79288  1.0000
  H   H332      1.0  0.04531  0.52111  0.64387  1.0000
  H   H333      1.0  0.15665  0.35363  0.48028  1.0000
  C   C284      1.0  0.49669  0.55619  0.81020  1.0000
  H   H334      1.0  0.39056  0.46387  0.55213  1.0000
  C   C285      1.0  0.43018  0.44642  0.49028  1.0000
  S   S80       1.0  0.00572  0.60914  0.58678  1.0000
  C   C286      1.0  0.44906  0.46366  0.49704  1.0000
  C   C287      1.0  0.11867  0.63439  0.67832  1.0000
  Fe  Fe40      1.0  0.49332  0.55912  0.69052  1.0000
  C   C288      1.0  0.14789  0.65735  0.64385  1.0000
  H   H335      1.0  0.46467  0.48789  0.88406  1.0000
  C   C289      1.0  0.07980  0.36500  0.96591  1.0000
  C   C290      1.0  0.43862  0.65595  0.68027  1.0000
  H   H336      1.0  0.10551  0.34012  0.89769  1.0000
  H   H337      1.0  0.49665  0.33523  0.89074  1.0000
  H   H338      1.0  0.01140  0.49184  0.84982  1.0000
  Fe  Fe41      1.0  0.00180  0.44419  0.92802  1.0000
  Fe  Fe42      1.0  0.00391  0.43494  0.85431  1.0000
  C   C291      1.0  0.00425  0.47872  0.77857  1.0000
  C   C292      1.0  0.00239  0.56410  0.79940  1.0000
  C   C293      1.0  0.00254  0.55077  0.82867  1.0000
  H   H339      1.0  0.01016  0.49525  0.89331  1.0000
  H   H340      1.0  0.01715  0.41338  0.54794  1.0000
  H   H341      1.0  0.19639  0.34001  0.49355  1.0000
  H   H342      1.0  0.20117  0.33407  0.88809  1.0000
  H   H343      1.0  0.99991  0.44443  0.64105  1.0000
  H   H344      1.0  0.49741  0.56658  0.78755  1.0000
  Fe  Fe43      1.0  0.19688  0.76249  0.05952  1.0000
  S   S81       1.0  0.19205  0.78719  0.01550  1.0000
  S   S82       1.0  0.21557  0.77505  0.10602  1.0000
  Fe  Fe44      1.0  0.16215  0.72335  0.03404  1.0000
  S   S83       1.0  0.15514  0.74505  0.98814  1.0000
  S   S84       1.0  0.14424  0.68566  0.04046  1.0000
  Fe  Fe45      1.0  0.19643  0.75236  0.98593  1.0000
  H   H345      1.0  0.01679  0.98656  0.40102  1.0000
  Fe  Fe46      1.0  0.15155  0.77799  0.02101  1.0000
  S   S85       1.0  0.11778  0.80311  0.01476  1.0000
  S   S86       1.0  0.20362  0.72822  0.03012  1.0000
  S   S87       1.0  0.15610  0.75569  0.06662  1.0000
  H   H346      1.0  0.49043  0.78948  0.22277  1.0000
  S   S88       1.0  0.03288  0.93757  0.13183  1.0000
  H   H347      1.0  0.31368  0.68317  0.31404  1.0000
  C   C294      1.0  0.20767  0.79568  0.40231  1.0000
  Fe  Fe47      1.0  0.03640  0.89619  0.12674  1.0000
  S   S89       1.0  0.07315  0.87519  0.12378  1.0000
  H   H348      1.0  0.04496  0.76228  0.03060  1.0000
  H   H349      1.0  0.32892  0.80303  0.09452  1.0000
  C   C295      1.0  0.09901  0.67416  0.11979  1.0000
  H   H350      1.0  0.23321  0.77791  0.36926  1.0000
  S   S90       1.0  0.46074  0.85415  0.15709  1.0000
  S   S91       1.0  0.47475  0.92829  0.14816  1.0000
  Fe  Fe48      1.0  0.37191  0.72031  0.25834  1.0000
  S   S92       1.0  0.36991  0.74696  0.21674  1.0000
  S   S93       1.0  0.40295  0.69198  0.26426  1.0000
  Fe  Fe49      1.0  0.32394  0.74082  0.29218  1.0000
  S   S94       1.0  0.31882  0.76908  0.25199  1.0000
  S   S95       1.0  0.29469  0.72968  0.33148  1.0000
  Fe  Fe50      1.0  0.32901  0.73915  0.21661  1.0000
  S   S96       1.0  0.31271  0.72836  0.16773  1.0000
  Fe  Fe51      1.0  0.36037  0.77483  0.25490  1.0000
  S   S97       1.0  0.37760  0.81299  0.25430  1.0000
  S   S98       1.0  0.33164  0.71051  0.25572  1.0000
  S   S99       1.0  0.36488  0.74865  0.29751  1.0000
  H   H351      1.0  0.22360  0.69104  0.08231  1.0000
  C   C296      1.0  0.03205  0.99243  0.24085  1.0000
  C   C297      1.0  0.37916  0.86033  0.16144  1.0000
  H   H352      1.0  0.39672  0.69520  0.19310  1.0000
  H   H353      1.0  0.01937  0.92260  0.33235  1.0000
  C   C298      1.0  0.16684  0.84218  0.44667  1.0000
  C   C299      1.0  0.43870  0.84263  0.18563  1.0000
  C   C300      1.0  0.42849  0.81930  0.18034  1.0000
  C   C301      1.0  0.41046  0.80961  0.20175  1.0000
  C   C302      1.0  0.40203  0.82336  0.22842  1.0000
  C   C303      1.0  0.41246  0.84656  0.23393  1.0000
  C   C304      1.0  0.43084  0.85608  0.21285  1.0000
  H   H354      1.0  0.43433  0.80878  0.15930  1.0000
  H   H355      1.0  0.40271  0.79175  0.19723  1.0000
  H   H356      1.0  0.40608  0.85736  0.25446  1.0000
  H   H357      1.0  0.43847  0.87404  0.21726  1.0000
  C   C305      1.0  0.25389  0.74948  0.42899  1.0000
  C   C306      1.0  0.24680  0.72934  0.41009  1.0000
  C   C307      1.0  0.25943  0.72372  0.38055  1.0000
  C   C308      1.0  0.27925  0.73818  0.36900  1.0000
  C   C309      1.0  0.28617  0.75847  0.38773  1.0000
  C   C310      1.0  0.27367  0.76397  0.41743  1.0000
  H   H358      1.0  0.23166  0.71796  0.41832  1.0000
  H   H359      1.0  0.25372  0.70802  0.36646  1.0000
  H   H360      1.0  0.30128  0.76987  0.37948  1.0000
  H   H361      1.0  0.27940  0.77966  0.43154  1.0000
  C   C311      1.0  0.24250  0.76168  0.12275  1.0000
  C   C312      1.0  0.25609  0.74380  0.10597  1.0000
  C   C313      1.0  0.27754  0.73367  0.12019  1.0000
  C   C314      1.0  0.28545  0.74125  0.15123  1.0000
  C   C315      1.0  0.27180  0.75903  0.16805  1.0000
  C   C316      1.0  0.25043  0.76925  0.15377  1.0000
  H   H362      1.0  0.25026  0.73804  0.08193  1.0000
  H   H363      1.0  0.28815  0.72000  0.10699  1.0000
  H   H364      1.0  0.27762  0.76489  0.19206  1.0000
  H   H365      1.0  0.23993  0.78307  0.16685  1.0000
  C   C317      1.0  0.10559  0.82310  0.04532  1.0000
  C   C318      1.0  0.08278  0.83510  0.03990  1.0000
  C   C319      1.0  0.07236  0.85083  0.06371  1.0000
  C   C320      1.0  0.08479  0.85492  0.09319  1.0000
  C   C321      1.0  0.10745  0.84271  0.09868  1.0000
  C   C322      1.0  0.11776  0.82686  0.07501  1.0000
  H   H366      1.0  0.07323  0.83244  0.01698  1.0000
  H   H367      1.0  0.05501  0.86019  0.05901  1.0000
  H   H368      1.0  0.11727  0.84576  0.12132  1.0000
  H   H369      1.0  0.13533  0.81786  0.07960  1.0000
  C   C323      1.0  0.11569  0.68529  0.09767  1.0000
  H   H370      1.0  0.39882  0.84973  0.08397  1.0000
  H   H371      1.0  0.12389  0.70274  0.10355  1.0000
  H   H372      1.0  0.04067  0.67729  0.10075  1.0000
  C   C324      1.0  0.42180  0.66812  0.17264  1.0000
  H   H373      1.0  0.49563  0.84495  0.21377  1.0000
  S   S100      1.0  0.48409  0.96584  0.22374  1.0000
  H   H374      1.0  0.21321  0.69943  0.16917  1.0000
  H   H375      1.0  0.47643  0.68885  0.15033  1.0000
  H   H376      1.0  0.40538  0.87825  0.12987  1.0000
  H   H377      1.0  0.03515  0.97084  0.06002  1.0000
  C   C325      1.0  0.22329  0.79473  0.37501  1.0000
  C   C326      1.0  0.19471  0.81746  0.41091  1.0000
  H   H378      1.0  0.46637  0.70968  0.25715  1.0000
  C   C327      1.0  0.02286  0.73414  0.12501  1.0000
  C   C328      1.0  0.04542  0.94223  0.30268  1.0000
  H   H379      1.0  0.34723  0.76199  0.14133  1.0000
  C   C329      1.0  0.03992  0.69718  0.10167  1.0000
  C   C330      1.0  0.19818  0.83818  0.39023  1.0000
  H   H380      1.0  0.15493  0.84167  0.46907  1.0000
  H   H381      1.0  0.04898  0.95976  0.42375  1.0000
  C   C331      1.0  0.21384  0.83700  0.36290  1.0000
  H   H382      1.0  0.03891  0.99279  0.11568  1.0000
  C   C332      1.0  0.06319  0.97335  0.41637  1.0000
  H   H383      1.0  0.49625  0.96076  0.99687  1.0000
  H   H384      1.0  0.02562  0.94790  0.38078  1.0000
  H   H385      1.0  0.17351  0.69190  0.18156  1.0000
  H   H386      1.0  0.31132  0.81975  0.12446  1.0000
  H   H387      1.0  0.36443  0.77780  0.11098  1.0000
  N   N19       1.0  0.19798  0.68753  0.12283  1.0000
  H   H388      1.0  0.08078  0.96326  0.41147  1.0000
  C   C333      1.0  0.49533  0.69553  0.14411  1.0000
  C   C334      1.0  0.39217  0.86345  0.13229  1.0000
  C   C335      1.0  0.37232  0.82753  0.11014  1.0000
  S   S101      1.0  0.00495  0.89249  0.09115  1.0000
  C   C336      1.0  0.32259  0.80286  0.12039  1.0000
  H   H389      1.0  0.10163  0.75044  0.02705  1.0000
  H   H390      1.0  0.20607  0.77919  0.41688  1.0000
  H   H391      1.0  0.49482  0.71589  0.14353  1.0000
  C   C337      1.0  0.06574  0.97651  0.32854  1.0000
  C   C338      1.0  0.20860  0.67879  0.09134  1.0000
  N   N20       1.0  0.34353  0.80141  0.14373  1.0000
  C   C339      1.0  0.38859  0.84722  0.10658  1.0000
  C   C340      1.0  0.49702  0.79773  0.19938  1.0000
  H   H392      1.0  0.47165  0.69141  0.20350  1.0000
  H   H393      1.0  0.32156  0.78183  0.17932  1.0000
  C   C341      1.0  0.48469  0.70922  0.24602  1.0000
  H   H394      1.0  0.48130  0.80847  0.18886  1.0000
  C   C342      1.0  0.49155  0.96531  0.45486  1.0000
  C   C343      1.0  0.02347  0.70866  0.12306  1.0000
  H   H395      1.0  0.21005  0.82321  0.47173  1.0000
  N   N21       1.0  0.07354  0.75240  0.06487  1.0000
  C   C344      1.0  0.05955  0.77100  0.04567  1.0000
  C   C345      1.0  0.09038  0.76514  0.08770  1.0000
  C   C346      1.0  0.08917  0.73825  0.04151  1.0000
  C   C347      1.0  0.05611  0.73708  0.08394  1.0000
  C   C348      1.0  0.05601  0.71106  0.08226  1.0000
  H   H396      1.0  0.16554  0.78086  0.43379  1.0000
  C   C349      1.0  0.21877  0.68991  0.14630  1.0000
  H   H397      1.0  0.04294  0.98868  0.21922  1.0000
  H   H398      1.0  0.18100  0.85655  0.45093  1.0000
  H   H399      1.0  0.05073  0.78519  0.06137  1.0000
  H   H400      1.0  0.07185  0.78130  0.02867  1.0000
  H   H401      1.0  0.08045  0.77828  0.10390  1.0000
  H   H402      1.0  0.10453  0.77603  0.07432  1.0000
  H   H403      1.0  0.10049  0.75182  0.10354  1.0000
  H   H404      1.0  0.10164  0.72505  0.05430  1.0000
  H   H405      1.0  0.07773  0.72809  0.02357  1.0000
  H   H406      1.0  0.06856  0.70086  0.06672  1.0000
  C   C350      1.0  0.41663  0.67600  0.23090  1.0000
  H   H407      1.0  0.21637  0.85301  0.34749  1.0000
  C   C351      1.0  0.18705  0.71208  0.11692  1.0000
  C   C352      1.0  0.17862  0.67122  0.13638  1.0000
  C   C353      1.0  0.16780  0.67627  0.16736  1.0000
  C   C354      1.0  0.22641  0.81535  0.35538  1.0000
  H   H408      1.0  0.20068  0.72477  0.10560  1.0000
  H   H409      1.0  0.15453  0.84792  0.42623  1.0000
  C   C355      1.0  0.33290  0.79872  0.17707  1.0000
  C   C356      1.0  0.35947  0.82325  0.13996  1.0000
  H   H410      1.0  0.01024  0.74305  0.14196  1.0000
  C   C357      1.0  0.41037  0.68115  0.19841  1.0000
  H   H411      1.0  0.37020  0.81542  0.08951  1.0000
  H   H412      1.0  0.01146  0.69768  0.13850  1.0000
  H   H413      1.0  0.03828  0.76786  0.10887  1.0000
  H   H414      1.0  0.23868  0.81452  0.33436  1.0000
  H   H415      1.0  0.35435  0.83889  0.18916  1.0000
  H   H416      1.0  0.22647  0.67164  0.15305  1.0000
  H   H417      1.0  0.18913  0.85553  0.39470  1.0000
  H   H418      1.0  0.34773  0.79736  0.19589  1.0000
  C   C358      1.0  0.35819  0.77890  0.13681  1.0000
  C   C359      1.0  0.36307  0.84055  0.16544  1.0000
  H   H419      1.0  0.30994  0.78686  0.12306  1.0000
  H   H420      1.0  0.20001  0.79215  0.46897  1.0000
  H   H421      1.0  0.37492  0.77789  0.15262  1.0000
  C   C360      1.0  0.03261  0.93745  0.33157  1.0000
  C   C361      1.0  0.06210  0.96156  0.30128  1.0000
  C   C362      1.0  0.03896  0.74819  0.10587  1.0000
  H   H422      1.0  0.41688  0.67236  0.14762  1.0000
  C   C363      1.0  0.05293  0.97217  0.35844  1.0000
  N   N22       1.0  0.17858  0.81795  0.44028  1.0000
  H   H423      1.0  0.14695  0.80404  0.41457  1.0000
  C   C364      1.0  0.48789  0.69894  0.21503  1.0000
  H   H424      1.0  0.00455  0.80707  0.05737  1.0000
  H   H425      1.0  0.07158  0.96554  0.27848  1.0000
  C   C365      1.0  0.03632  0.95208  0.35913  1.0000
  H   H426      1.0  0.14582  0.79970  0.45821  1.0000
  H   H427      1.0  0.18061  0.72107  0.13980  1.0000
  C   C366      1.0  0.01166  0.97759  0.24825  1.0000
  C   C367      1.0  0.02542  0.98257  0.04294  1.0000
  H   H428      1.0  0.46522  0.98162  0.40001  1.0000
  C   C368      1.0  0.31860  0.66765  0.33053  1.0000
  H   H429      1.0  0.46693  0.98950  0.07689  1.0000
  H   H430      1.0  0.23419  0.70103  0.13595  1.0000
  H   H431      1.0  0.49662  0.97918  0.11830  1.0000
  Fe  Fe52      1.0  0.48427  0.88896  0.15948  1.0000
  H   H432      1.0  0.32041  0.81430  0.18342  1.0000
  C   C369      1.0  0.49735  0.99340  0.13768  1.0000
  H   H433      1.0  0.38227  0.87281  0.18157  1.0000
  C   C370      1.0  0.19340  0.81141  0.46955  1.0000
  C   C371      1.0  0.15839  0.79988  0.43650  1.0000
  H   H434      1.0  0.47469  0.97605  0.45524  1.0000
  C   C372      1.0  0.12216  0.67344  0.06854  1.0000
  H   H435      1.0  0.09449  0.68327  0.14251  1.0000
  H   H436      1.0  0.07814  0.99177  0.32517  1.0000
  N   N23       1.0  0.05557  0.98809  0.38748  1.0000
  S   S102      1.0  0.01281  0.88902  0.17145  1.0000
  H   H437      1.0  0.35920  0.69309  0.31126  1.0000
  C   C373      1.0  0.48076  0.99491  0.39897  1.0000
  H   H438      1.0  0.19438  0.67855  0.07161  1.0000
  Fe  Fe53      1.0  0.00720  0.93018  0.17444  1.0000
  H   H439      1.0  0.17086  0.71080  0.10022  1.0000
  H   H440      1.0  0.38126  0.67191  0.32728  1.0000
  H   H441      1.0  0.45202  0.97790  0.12474  1.0000
  H   H442      1.0  0.04197  0.93134  0.28102  1.0000
  H   H443      1.0  0.14048  0.66618  0.20358  1.0000
  H   H444      1.0  0.31713  0.67512  0.35580  1.0000
  S   S103      1.0  0.23875  0.75761  0.46685  1.0000
  S   S104      1.0  0.00221  0.95238  0.22278  1.0000
  H   H445      1.0  0.49349  0.95196  0.36978  1.0000
  C   C374      1.0  0.36164  0.67801  0.32929  1.0000
  H   H446      1.0  0.35926  0.68614  0.35403  1.0000
  H   H447      1.0  0.45309  0.98381  0.16723  1.0000
  C   C375      1.0  0.45284  0.99302  0.14283  1.0000
  H   H448      1.0  0.06611  0.98514  0.43829  1.0000
  H   H449      1.0  0.99993  0.82277  0.11373  1.0000
  H   H450      1.0  0.04195  0.99365  0.15942  1.0000
  H   H451      1.0  0.49861  0.68888  0.11872  1.0000
  C   C376      1.0  0.99991  0.97992  0.03854  1.0000
  Fe  Fe54      1.0  0.19739  0.74574  0.57806  1.0000
  S   S105      1.0  0.20326  0.77779  0.54428  1.0000
  S   S106      1.0  0.21197  0.73740  0.62899  1.0000
  Fe  Fe55      1.0  0.16189  0.72049  0.53199  1.0000
  C   C377      1.0  0.29348  0.71423  0.61545  1.0000
  S   S107      1.0  0.13818  0.68620  0.52568  1.0000
  C   C378      1.0  0.01510  0.97701  0.78216  1.0000
  S   S108      1.0  0.21472  0.74702  0.93476  1.0000
  Fe  Fe56      1.0  0.16192  0.77650  0.53642  1.0000
  S   S109      1.0  0.13631  0.80951  0.52736  1.0000
  S   S110      1.0  0.20339  0.71770  0.53859  1.0000
  S   S111      1.0  0.15580  0.74658  0.57338  1.0000
  Fe  Fe57      1.0  0.01289  0.93495  0.67124  1.0000
  S   S112      1.0  0.03967  0.94099  0.62942  1.0000
  H   H452      1.0  0.26970  0.78411  0.75014  1.0000
  H   H453      1.0  0.20835  0.84343  0.83997  1.0000
  Fe  Fe58      1.0  0.04301  0.89964  0.62591  1.0000
  S   S113      1.0  0.08053  0.87978  0.62953  1.0000
  Fe  Fe59      1.0  0.00657  0.93608  0.59641  1.0000
  H   H454      1.0  0.11616  0.95202  0.66976  1.0000
  S   S114      1.0  0.01806  0.89385  0.66943  1.0000
  H   H455      1.0  0.48397  0.98539  0.56413  1.0000
  S   S115      1.0  0.45874  0.86332  0.64841  1.0000
  S   S116      1.0  0.48276  0.93104  0.64546  1.0000
  Fe  Fe60      1.0  0.36157  0.72362  0.75410  1.0000
  S   S117      1.0  0.37048  0.75378  0.71907  1.0000
  S   S118      1.0  0.37481  0.68444  0.74551  1.0000
  Fe  Fe61      1.0  0.33347  0.75788  0.80225  1.0000
  S   S119      1.0  0.34136  0.79088  0.77016  1.0000
  S   S120      1.0  0.31585  0.76408  0.85343  1.0000
  Fe  Fe62      1.0  0.33133  0.76626  0.72831  1.0000
  S   S121      1.0  0.31176  0.78165  0.68402  1.0000
  Fe  Fe63      1.0  0.37991  0.77592  0.76306  1.0000
  S   S122      1.0  0.41639  0.79681  0.76483  1.0000
  S   S123      1.0  0.32113  0.73413  0.76012  1.0000
  S   S124      1.0  0.37331  0.74483  0.79840  1.0000
  C   C379      1.0  0.41119  0.68960  0.69747  1.0000
  C   C380      1.0  0.39957  0.67419  0.72017  1.0000
  H   H456      1.0  0.43916  0.69238  0.65972  1.0000
  H   H457      1.0  0.40510  0.70842  0.69501  1.0000
  H   H458      1.0  0.31712  0.69347  0.67014  1.0000
  H   H459      1.0  0.36091  0.86680  0.68146  1.0000
  C   C381      1.0  0.44780  0.84408  0.68063  1.0000
  C   C382      1.0  0.42561  0.83108  0.67643  1.0000
  C   C383      1.0  0.41591  0.81630  0.70174  1.0000
  C   C384      1.0  0.42826  0.81444  0.73170  1.0000
  C   C385      1.0  0.45062  0.82714  0.73577  1.0000
  C   C386      1.0  0.46039  0.84177  0.71039  1.0000
  H   H460      1.0  0.41570  0.83267  0.65356  1.0000
  H   H461      1.0  0.39868  0.80667  0.69821  1.0000
  H   H462      1.0  0.46040  0.82574  0.75874  1.0000
  H   H463      1.0  0.47766  0.85129  0.71391  1.0000
  C   C387      1.0  0.24422  0.74938  0.91434  1.0000
  C   C388      1.0  0.26434  0.76196  0.92768  1.0000
  C   C389      1.0  0.28610  0.76586  0.90889  1.0000
  C   C390      1.0  0.28832  0.75717  0.87653  1.0000
  C   C391      1.0  0.26844  0.74410  0.86347  1.0000
  C   C392      1.0  0.24670  0.74020  0.88224  1.0000
  H   H464      1.0  0.26293  0.76926  0.95218  1.0000
  H   H465      1.0  0.30129  0.77593  0.91945  1.0000
  H   H466      1.0  0.26970  0.73720  0.83876  1.0000
  H   H467      1.0  0.23152  0.73019  0.87158  1.0000
  C   C393      1.0  0.23931  0.75052  0.64431  1.0000
  C   C394      1.0  0.25263  0.76784  0.62635  1.0000
  C   C395      1.0  0.27475  0.77736  0.63897  1.0000
  C   C396      1.0  0.28373  0.76952  0.66945  1.0000
  C   C397      1.0  0.27042  0.75218  0.68743  1.0000
  C   C398      1.0  0.24821  0.74277  0.67490  1.0000
  H   H468      1.0  0.24596  0.77384  0.60270  1.0000
  H   H469      1.0  0.28500  0.79077  0.62495  1.0000
  H   H470      1.0  0.27716  0.74606  0.71096  1.0000
  H   H471      1.0  0.23797  0.72935  0.68888  1.0000
  C   C399      1.0  0.11983  0.82748  0.55676  1.0000
  C   C400      1.0  0.10008  0.84252  0.54627  1.0000
  C   C401      1.0  0.08730  0.85798  0.56835  1.0000
  C   C402      1.0  0.09447  0.85901  0.60118  1.0000
  C   C403      1.0  0.11421  0.84394  0.61167  1.0000
  C   C404      1.0  0.12664  0.82809  0.58974  1.0000
  H   H472      1.0  0.09464  0.84228  0.52084  1.0000
  H   H473      1.0  0.07226  0.86950  0.55980  1.0000
  H   H474      1.0  0.12001  0.84459  0.63693  1.0000
  H   H475      1.0  0.14186  0.81678  0.59820  1.0000
  C   C405      1.0  0.10711  0.69083  0.57982  1.0000
  H   H476      1.0  0.11648  0.90046  0.72973  1.0000
  H   H477      1.0  0.11530  0.70863  0.58331  1.0000
  C   C406      1.0  0.01459  0.97875  0.74772  1.0000
  H   H478      1.0  0.06526  0.96845  0.71718  1.0000
  C   C407      1.0  0.11810  0.94858  0.75515  1.0000
  C   C408      1.0  0.44670  0.73964  0.74059  1.0000
  H   H479      1.0  0.08317  0.95557  0.66922  1.0000
  C   C409      1.0  0.09839  0.94206  0.67290  1.0000
  H   H480      1.0  0.01740  0.69713  0.55229  1.0000
  H   H481      1.0  0.23821  0.82774  0.88171  1.0000
  N   N24       1.0  0.45349  0.72800  0.77219  1.0000
  H   H482      1.0  0.42651  0.74397  0.73947  1.0000
  C   C410      1.0  0.43708  0.70650  0.77693  1.0000
  C   C411      1.0  0.44810  0.74554  0.79898  1.0000
  C   C412      1.0  0.19657  0.82753  0.84686  1.0000
  H   H483      1.0  0.19780  0.79352  0.79247  1.0000
  H   H484      1.0  0.26445  0.80291  0.85077  1.0000
  C   C413      1.0  0.23248  0.78839  0.76853  1.0000
  Fe  Fe64      1.0  0.20673  0.74969  0.50363  1.0000
  C   C414      1.0  0.49479  0.99233  0.77947  1.0000
  C   C415      1.0  0.35509  0.69219  0.62786  1.0000
  C   C416      1.0  0.25453  0.79935  0.82839  1.0000
  H   H485      1.0  0.45620  0.75744  0.73663  1.0000
  H   H486      1.0  0.31670  0.72646  0.67507  1.0000
  H   H487      1.0  0.41710  0.71176  0.77627  1.0000
  C   C417      1.0  0.08133  0.98474  0.75908  1.0000
  H   H488      1.0  0.42796  0.74988  0.80076  1.0000
  H   H489      1.0  0.45411  0.73809  0.82307  1.0000
  H   H490      1.0  0.36815  0.73565  0.65309  1.0000
  H   H491      1.0  0.36907  0.68966  0.64765  1.0000
  H   H492      1.0  0.28628  0.71242  0.63999  1.0000
  H   H493      1.0  0.34548  0.71894  0.56799  1.0000
  H   H494      1.0  0.39127  0.89962  0.68479  1.0000
  C   C418      1.0  0.15296  0.70135  0.64875  1.0000
  H   H495      1.0  0.43973  0.69270  0.75726  1.0000
  N   N25       1.0  0.21207  0.80579  0.85480  1.0000
  H   H496      1.0  0.18447  0.78789  0.88496  1.0000
  S   S125      1.0  0.48783  0.95850  0.73117  1.0000
  H   H497      1.0  0.05714  0.92909  0.70221  1.0000
  H   H498      1.0  0.35585  0.83734  0.72694  1.0000
  C   C419      1.0  0.32832  0.71044  0.66785  1.0000
  H   H499      1.0  0.02410  0.67006  0.57595  1.0000
  H   H500      1.0  0.23767  0.79577  0.89286  1.0000
  H   H501      1.0  0.49285  0.75925  0.76485  1.0000
  H   H502      1.0  0.16014  0.68422  0.58849  1.0000
  N   N26       1.0  0.09707  0.92992  0.70536  1.0000
  H   H503      1.0  0.44017  0.69752  0.80106  1.0000
  C   C420      1.0  0.17526  0.68055  0.60624  1.0000
  H   H504      1.0  0.38196  0.84059  0.77619  1.0000
  H   H505      1.0  0.04211  0.97799  0.56211  1.0000
  H   H506      1.0  0.26959  0.72170  0.53901  1.0000
  H   H507      1.0  0.20648  0.76780  0.86639  1.0000
  C   C421      1.0  0.27590  0.71625  0.59047  1.0000
  H   H508      1.0  0.01476  0.95912  0.79358  1.0000
  H   H509      1.0  0.07002  0.90995  0.73351  1.0000
  H   H510      1.0  0.22407  0.78402  0.74521  1.0000
  H   H511      1.0  0.45125  0.72742  0.71965  1.0000
  H   H512      1.0  0.34164  0.75259  0.63865  1.0000
  C   C422      1.0  0.08956  0.68187  0.60243  1.0000
  C   C423      1.0  0.43054  0.68046  0.67755  1.0000
  H   H513      1.0  0.18482  0.83313  0.86806  1.0000
  H   H514      1.0  0.02934  0.69220  0.62605  1.0000
  H   H515      1.0  0.13562  0.91926  0.70310  1.0000
  C   C424      1.0  0.11698  0.91102  0.70641  1.0000
  H   H516      1.0  0.00685  0.71410  0.63952  1.0000
  H   H517      1.0  0.47541  0.98962  0.78515  1.0000
  H   H518      1.0  0.18224  0.78108  0.84232  1.0000
  N   N27       1.0  0.16544  0.67792  0.64003  1.0000
  C   C425      1.0  0.26914  0.79375  0.80109  1.0000
  H   H519      1.0  0.07186  0.90120  0.69124  1.0000
  C   C426      1.0  0.19556  0.78485  0.86227  1.0000
  C   C427      1.0  0.22604  0.81154  0.88505  1.0000
  C   C428      1.0  0.00896  0.68280  0.56815  1.0000
  H   H520      1.0  0.14805  0.70243  0.67507  1.0000
  H   H521      1.0  0.34326  0.70891  0.68655  1.0000
  H   H522      1.0  0.21350  0.81553  0.90610  1.0000
  C   C429      1.0  0.48023  0.72167  0.77222  1.0000
  S   S126      1.0  0.01358  0.95110  0.72382  1.0000
  H   H523      1.0  0.09688  0.92854  0.65259  1.0000
  H   H524      1.0  0.28916  0.79329  0.80333  1.0000
  H   H525      1.0  0.45732  0.76351  0.79525  1.0000
  H   H526      1.0  0.08473  0.69273  0.62361  1.0000
  H   H527      1.0  0.13282  0.93513  0.75517  1.0000
  C   C430      1.0  0.08056  0.96731  0.73414  1.0000
  C   C431      1.0  0.00989  0.98005  0.53137  1.0000
  H   H528      1.0  0.18825  0.69616  0.60403  1.0000
  H   H529      1.0  0.18245  0.81329  0.49254  1.0000
  C   C432      1.0  0.03381  0.98653  0.54087  1.0000
  C   C433      1.0  0.35353  0.73615  0.63402  1.0000
  S   S127      1.0  0.16554  0.75031  0.49391  1.0000
  H   H530      1.0  0.36571  0.69418  0.60471  1.0000
  C   C434      1.0  0.30848  0.72036  0.55050  1.0000
  C   C435      1.0  0.11421  0.67669  0.55288  1.0000
  C   C436      1.0  0.31930  0.71514  0.60854  1.0000
  H   H531      1.0  0.11486  0.89737  0.68630  1.0000
  H   H532      1.0  0.18372  0.82409  0.82624  1.0000
  C   C437      1.0  0.09882  0.94857  0.73149  1.0000
  C   C438      1.0  0.32623  0.71806  0.57519  1.0000
  N   N28       1.0  0.33853  0.71347  0.63428  1.0000
  H   H533      1.0  0.18575  0.66401  0.59826  1.0000
  C   C439      1.0  0.07305  0.91701  0.70826  1.0000
  S   S128      1.0  0.01183  0.89528  0.58986  1.0000
  C   C440      1.0  0.25819  0.78838  0.77121  1.0000
  N   N29       1.0  0.42329  0.90992  0.73507  1.0000
  C   C441      1.0  0.41025  0.93388  0.73321  1.0000
  C   C442      1.0  0.43824  0.90973  0.76554  1.0000
  C   C443      1.0  0.44088  0.90821  0.70727  1.0000
  C   C444      1.0  0.40504  0.88979  0.73333  1.0000
  C   C445      1.0  0.40163  0.87246  0.75900  1.0000
  C   C446      1.0  0.38965  0.88731  0.70541  1.0000
  C   C447      1.0  0.38385  0.85400  0.75669  1.0000
  C   C448      1.0  0.37209  0.86865  0.70329  1.0000
  C   C449      1.0  0.36917  0.85206  0.72890  1.0000
  H   H534      1.0  0.39611  0.93556  0.75299  1.0000
  H   H535      1.0  0.42339  0.94947  0.73571  1.0000
  H   H536      1.0  0.40065  0.93654  0.70945  1.0000
  H   H537      1.0  0.45201  0.92490  0.76576  1.0000
  H   H538      1.0  0.44907  0.89238  0.76799  1.0000
  H   H539      1.0  0.42638  0.91217  0.78762  1.0000
  H   H540      1.0  0.43168  0.90873  0.68303  1.0000
  H   H541      1.0  0.45439  0.92346  0.70742  1.0000
  H   H542      1.0  0.45170  0.89091  0.70841  1.0000
  H   H543      1.0  0.41267  0.87242  0.78094  1.0000
  C   C450      1.0  0.22821  0.79968  0.82652  1.0000
  H   H544      1.0  0.34428  0.67492  0.62634  1.0000
  C   C451      1.0  0.21764  0.79390  0.79572  1.0000
  H   H545      1.0  0.36320  0.73920  0.61039  1.0000
  C   C452      1.0  0.01524  0.70569  0.61730  1.0000
  H   H546      1.0  0.31415  0.72307  0.52528  1.0000
  C   C453      1.0  0.28335  0.71955  0.55814  1.0000
  H   H547      1.0  0.16491  0.71747  0.64359  1.0000
  H   H548      1.0  0.02572  0.71984  0.60342  1.0000
  H   H549      1.0  0.13562  0.70391  0.63455  1.0000
  C   C454      1.0  0.11869  0.96616  0.78001  1.0000
  C   C455      1.0  0.48923  0.69730  0.77667  1.0000
  C   C456      1.0  0.49747  0.99164  0.54643  1.0000
  Fe  Fe65      1.0  0.49051  0.89065  0.65267  1.0000
  H   H550      1.0  0.20069  0.68920  0.65936  1.0000
  C   C457      1.0  0.18690  0.67417  0.66207  1.0000
  H   H551      1.0  0.47703  0.68183  0.77960  1.0000
  H   H552      1.0  0.25628  0.71581  0.59626  1.0000
  H   H553      1.0  0.49696  0.70226  0.65902  1.0000
  H   H554      1.0  0.13934  0.66484  0.69509  1.0000
  C   C458      1.0  0.49590  0.95049  0.48223  1.0000
  C   C459      1.0  0.10029  0.98413  0.78202  1.0000
  H   H555      1.0  0.48265  0.95015  0.50222  1.0000
  H   H556      1.0  0.13338  0.96580  0.79802  1.0000
  H   H557      1.0  0.18135  0.67384  0.68824  1.0000
  C   C460      1.0  0.49827  0.74032  0.76843  1.0000
  Fe  Fe66      1.0  0.87931  0.22083  0.01682  1.0000
  S   S129      1.0  0.87397  0.25245  0.05150  1.0000
  H   H558      1.0  0.66458  0.12559  0.24830  1.0000
  H   H559      1.0  0.57749  0.22843  0.36660  1.0000
  S   S130      1.0  0.83967  0.20898  0.02196  1.0000
  S   S131      1.0  0.81241  0.21284  0.43677  1.0000
  Fe  Fe67      1.0  0.83343  0.24216  0.05409  1.0000
  S   S132      1.0  0.81756  0.23831  0.10679  1.0000
  H   H560      1.0  0.66184  0.14018  0.35094  1.0000
  Fe  Fe68      1.0  0.86476  0.27489  0.00692  1.0000
  S   S133      1.0  0.82372  0.26711  0.01153  1.0000
  H   H561      1.0  0.97182  0.13362  0.98275  1.0000
  C   C461      1.0  0.59377  0.31715  0.36121  1.0000
  S   S134      1.0  0.95474  0.10830  0.42276  1.0000
  C   C462      1.0  0.51932  0.25243  0.36947  1.0000
  Fe  Fe69      1.0  0.66164  0.22126  0.29054  1.0000
  S   S135      1.0  0.65882  0.24639  0.24701  1.0000
  S   S136      1.0  0.63408  0.18960  0.28844  1.0000
  Fe  Fe70      1.0  0.70154  0.25301  0.32070  1.0000
  S   S137      1.0  0.70086  0.28023  0.27917  1.0000
  S   S138      1.0  0.72204  0.26566  0.36605  1.0000
  Fe  Fe71      1.0  0.65939  0.27715  0.28309  1.0000
  S   S139      1.0  0.63426  0.31075  0.27700  1.0000
  Fe  Fe72      1.0  0.70068  0.24734  0.24581  1.0000
  S   S140      1.0  0.71725  0.24775  0.19316  1.0000
  S   S141      1.0  0.65994  0.25219  0.32654  1.0000
  S   S142      1.0  0.70364  0.21988  0.28747  1.0000
  Fe  Fe73      1.0  0.54296  0.10575  0.39269  1.0000
  S   S143      1.0  0.52392  0.10185  0.34441  1.0000
  S   S144      1.0  0.57246  0.13503  0.40047  1.0000
  Fe  Fe74      1.0  0.51141  0.06465  0.42646  1.0000
  H   H562      1.0  0.63229  0.09468  0.25417  1.0000
  Fe  Fe75      1.0  0.52685  0.06127  0.35439  1.0000
  S   S145      1.0  0.54490  0.03450  0.31913  1.0000
  S   S146      1.0  0.54847  0.06518  0.40112  1.0000
  C   C463      1.0  0.51305  0.17604  0.42035  1.0000
  C   C464      1.0  0.61590  0.17647  0.32028  1.0000
  C   C465      1.0  0.59629  0.16084  0.31189  1.0000
  C   C466      1.0  0.58242  0.14863  0.33618  1.0000
  C   C467      1.0  0.58842  0.15135  0.36918  1.0000
  C   C468      1.0  0.60761  0.16743  0.37767  1.0000
  C   C469      1.0  0.62119  0.18007  0.35340  1.0000
  H   H563      1.0  0.59197  0.15804  0.28637  1.0000
  H   H564      1.0  0.56723  0.13697  0.32936  1.0000
  H   H565      1.0  0.61229  0.16987  0.40316  1.0000
  H   H566      1.0  0.63626  0.19196  0.36025  1.0000
  H   H567      1.0  0.94632  0.24583  0.99230  1.0000
  H   H568      1.0  0.61087  0.07317  0.36134  1.0000
  N   N30       1.0  0.50482  0.18517  0.38793  1.0000
  H   H569      1.0  0.62291  0.05581  0.27478  1.0000
  S   S147      1.0  0.91320  0.19608  0.02355  1.0000
  C   C470      1.0  0.91943  0.13983  0.44780  1.0000
  H   H570      1.0  0.62930  0.11048  0.35846  1.0000
  C   C471      1.0  0.83619  0.28271  0.43268  1.0000
  H   H571      1.0  0.63209  0.05076  0.31642  1.0000
  C   C472      1.0  0.98463  0.23453  0.99018  1.0000
  C   C473      1.0  0.52767  0.01534  0.29310  1.0000
  C   C474      1.0  0.94580  0.16096  0.00054  1.0000
  H   H572      1.0  0.82843  0.18687  0.11208  1.0000
  C   C475      1.0  0.91279  0.11628  0.07693  1.0000
  H   H573      1.0  0.67628  0.26544  0.15379  1.0000
  C   C476      1.0  0.91286  0.30083  0.45402  1.0000
  H   H574      1.0  0.67937  0.14850  0.29629  1.0000
  H   H575      1.0  0.58154  0.06564  0.34469  1.0000
  H   H576      1.0  0.87569  0.19944  0.07455  1.0000
  C   C477      1.0  0.78937  0.24140  0.13021  1.0000
  C   C478      1.0  0.79020  0.23814  0.16446  1.0000
  C   C479      1.0  0.76857  0.24010  0.18410  1.0000
  C   C480      1.0  0.74553  0.24523  0.16983  1.0000
  C   C481      1.0  0.74469  0.24845  0.13557  1.0000
  C   C482      1.0  0.76635  0.24662  0.11595  1.0000
  H   H577      1.0  0.80777  0.23414  0.17599  1.0000
  H   H578      1.0  0.76974  0.23754  0.21028  1.0000
  H   H579      1.0  0.72711  0.25234  0.12402  1.0000
  H   H580      1.0  0.76518  0.24913  0.08976  1.0000
  C   C483      1.0  0.78676  0.22733  0.41807  1.0000
  C   C484      1.0  0.77768  0.21787  0.38856  1.0000
  C   C485      1.0  0.75771  0.22926  0.37237  1.0000
  C   C486      1.0  0.74679  0.25030  0.38558  1.0000
  C   C487      1.0  0.75592  0.25980  0.41505  1.0000
  C   C488      1.0  0.77574  0.24830  0.43137  1.0000
  H   H581      1.0  0.78614  0.20164  0.37815  1.0000
  H   H582      1.0  0.75084  0.22182  0.34967  1.0000
  H   H583      1.0  0.74748  0.27603  0.42546  1.0000
  H   H584      1.0  0.78238  0.25558  0.45426  1.0000
  H   H585      1.0  0.58034  0.10722  0.29170  1.0000
  C   C489      1.0  0.90982  0.15735  0.46988  1.0000
  H   H586      1.0  0.85594  0.32465  0.43617  1.0000
  C   C490      1.0  0.94421  0.13177  0.44978  1.0000
  H   H587      1.0  0.60154  0.04239  0.30293  1.0000
  H   H588      1.0  0.61143  0.22459  0.17632  1.0000
  H   H589      1.0  0.67177  0.30419  0.22766  1.0000
  H   H590      1.0  0.93735  0.29939  0.41218  1.0000
  H   H591      1.0  0.57001  0.07603  0.29105  1.0000
  H   H592      1.0  0.95618  0.16458  0.02257  1.0000
  H   H593      1.0  0.59162  0.08639  0.26131  1.0000
  C   C491      1.0  0.87376  0.30532  0.35991  1.0000
  C   C492      1.0  0.87657  0.19834  0.10157  1.0000
  C   C493      1.0  0.84079  0.17199  0.10275  1.0000
  H   H594      1.0  0.51038  0.19023  0.43954  1.0000
  C   C494      1.0  0.88458  0.15020  0.06798  1.0000
  H   H595      1.0  0.52220  0.01375  0.37712  1.0000
  C   C495      1.0  0.50180  0.01631  0.29228  1.0000
  H   H596      1.0  0.99027  0.24688  0.00942  1.0000
  C   C496      1.0  0.62103  0.24198  0.17597  1.0000
  C   C497      1.0  0.89556  0.13831  0.12320  1.0000
  C   C498      1.0  0.53231  0.01455  0.03476  1.0000
  C   C499      1.0  0.52458  0.01649  0.00189  1.0000
  C   C500      1.0  0.54501  0.25151  0.36601  1.0000
  H   H597      1.0  0.58866  0.09705  0.35163  1.0000
  Fe  Fe76      1.0  0.83270  0.23461  0.97965  1.0000
  H   H598      1.0  0.50993  0.27148  0.27646  1.0000
  H   H599      1.0  0.85143  0.28396  0.45086  1.0000
  S   S148      1.0  0.87848  0.31426  0.00106  1.0000
  C   C501      1.0  0.52177  0.29935  0.30856  1.0000
  H   H600      1.0  0.98724  0.03855  0.11297  1.0000
  C   C502      1.0  0.54434  0.20785  0.37643  1.0000
  C   C503      1.0  0.61326  0.32105  0.30768  1.0000
  C   C504      1.0  0.67341  0.31521  0.14598  1.0000
  C   C505      1.0  0.62287  0.28484  0.19093  1.0000
  H   H601      1.0  0.85077  0.24301  0.40363  1.0000
  C   C506      1.0  0.55748  0.22921  0.36932  1.0000
  C   C507      1.0  0.92353  0.17383  0.99479  1.0000
  C   C508      1.0  0.93045  0.31061  0.43200  1.0000
  C   C509      1.0  0.86111  0.25955  0.39528  1.0000
  C   C510      1.0  0.95992  0.23408  0.98048  1.0000
  H   H602      1.0  0.54228  0.02959  0.04558  1.0000
  N   N31       1.0  0.66106  0.31032  0.17788  1.0000
  H   H603      1.0  0.85789  0.15997  0.16185  1.0000
  C   C511      1.0  0.67908  0.32031  0.35169  1.0000
  H   H604      1.0  0.97934  0.03556  0.24406  1.0000
  Fe  Fe77      1.0  0.99473  0.09611  0.41227  1.0000
  H   H605      1.0  0.88450  0.18018  0.16086  1.0000
  S   S149      1.0  0.50776  0.10590  0.42250  1.0000
  H   H606      1.0  0.83295  0.15418  0.11089  1.0000
  H   H607      1.0  0.89074  0.16337  0.46790  1.0000
  H   H608      1.0  0.85380  0.19240  0.15855  1.0000
  H   H609      1.0  0.92088  0.10768  0.12704  1.0000
  N   N32       1.0  0.60707  0.08115  0.30977  1.0000
  C   C512      1.0  0.61636  0.05649  0.30054  1.0000
  C   C513      1.0  0.59669  0.07929  0.34336  1.0000
  C   C514      1.0  0.58646  0.08801  0.28751  1.0000
  C   C515      1.0  0.62735  0.09920  0.30684  1.0000
  C   C516      1.0  0.63669  0.11245  0.33402  1.0000
  C   C517      1.0  0.63834  0.10406  0.27591  1.0000
  C   C518      1.0  0.65556  0.12966  0.33013  1.0000
  C   C519      1.0  0.65700  0.12153  0.27228  1.0000
  C   C520      1.0  0.66552  0.13436  0.29933  1.0000
  H   H610      1.0  0.61824  0.29008  0.33961  1.0000
  H   H611      1.0  0.99465  0.28777  0.47235  1.0000
  C   C521      1.0  0.86443  0.32398  0.41222  1.0000
  C   C522      1.0  0.50350  0.28583  0.29250  1.0000
  C   C523      1.0  0.60925  0.30766  0.33641  1.0000
  C   C524      1.0  0.88933  0.32492  0.35226  1.0000
  H   H612      1.0  0.59125  0.30692  0.38367  1.0000
  H   H613      1.0  0.71103  0.31184  0.39844  1.0000
  C   C525      1.0  0.64684  0.28719  0.17671  1.0000
  H   H614      1.0  0.86597  0.21445  0.11095  1.0000
  C   C526      1.0  0.90199  0.32600  0.97479  1.0000
  H   H615      1.0  0.83048  0.27897  0.35027  1.0000
  H   H616      1.0  0.90180  0.12928  0.02943  1.0000
  H   H617      1.0  0.55531  0.26812  0.36099  1.0000
  H   H618      1.0  0.53023  0.16038  0.36331  1.0000
  C   C527      1.0  0.89976  0.13155  0.05568  1.0000
  C   C528      1.0  0.88215  0.15434  0.10211  1.0000
  H   H619      1.0  0.65993  0.31415  0.12548  1.0000
  H   H620      1.0  0.50254  0.15950  0.42805  1.0000
  C   C529      1.0  0.82463  0.28091  0.37620  1.0000
  H   H621      1.0  0.82577  0.26575  0.43864  1.0000
  H   H622      1.0  0.86656  0.25581  0.36959  1.0000
  H   H623      1.0  0.68882  0.30212  0.14087  1.0000
  H   H624      1.0  0.89496  0.13998  0.14947  1.0000
  H   H625      1.0  0.90757  0.13251  0.42898  1.0000
  H   H626      1.0  0.89638  0.20069  0.10829  1.0000
  C   C530      1.0  0.61017  0.26257  0.19023  1.0000
  H   H627      1.0  0.69340  0.29274  0.19827  1.0000
  C   C531      1.0  0.86128  0.30393  0.39049  1.0000
  H   H628      1.0  0.65362  0.22724  0.15275  1.0000
  C   C532      1.0  0.52463  0.00128  0.39846  1.0000
  N   N33       1.0  0.86665  0.17489  0.11430  1.0000
  S   S150      1.0  0.53084  0.04426  0.97954  1.0000
  H   H629      1.0  0.90651  0.28222  0.45118  1.0000
  H   H630      1.0  0.53298  0.17063  0.42041  1.0000
  H   H631      1.0  0.81270  0.26484  0.38188  1.0000
  C   C533      1.0  0.51049  0.16625  0.36300  1.0000
  C   C534      1.0  0.95481  0.14352  0.97792  1.0000
  H   H632      1.0  0.50972  0.26988  0.36725  1.0000
  H   H633      1.0  0.61382  0.29971  0.20367  1.0000
  C   C535      1.0  0.50595  0.23109  0.37612  1.0000
  C   C536      1.0  0.99169  0.04018  0.22400  1.0000
  H   H634      1.0  0.87837  0.26064  0.41004  1.0000
  C   C537      1.0  0.51815  0.20807  0.37992  1.0000
  H   H635      1.0  0.82315  0.29828  0.43665  1.0000
  H   H636      1.0  0.67545  0.28230  0.38978  1.0000
  H   H637      1.0  0.99222  0.27272  0.41550  1.0000
  N   N34       1.0  0.84604  0.28227  0.39873  1.0000
  H   H638      1.0  0.55491  0.19110  0.37943  1.0000
  C   C538      1.0  0.86578  0.17678  0.15052  1.0000
  H   H639      1.0  0.87529  0.16184  0.05035  1.0000
  H   H640      1.0  0.87188  0.29102  0.34190  1.0000
  C   C539      1.0  0.91061  0.11957  0.11061  1.0000
  C   C540      1.0  0.99256  0.02544  0.19610  1.0000
  H   H641      1.0  0.83935  0.17278  0.07570  1.0000
  H   H642      1.0  0.59213  0.26108  0.20175  1.0000
  H   H643      1.0  0.92475  0.10202  0.06718  1.0000
  H   H644      1.0  0.52413  0.01266  0.42103  1.0000
  C   C541      1.0  0.68029  0.30804  0.20342  1.0000
  H   H645      1.0  0.99365  0.00643  0.31935  1.0000
  N   N35       1.0  0.67326  0.32183  0.38717  1.0000
  H   H646      1.0  0.81282  0.29764  0.37801  1.0000
  H   H647      1.0  0.51423  0.00449  0.13303  1.0000
  H   H648      1.0  0.69146  0.32500  0.20569  1.0000
  C   C542      1.0  0.65751  0.26568  0.16304  1.0000
  C   C543      1.0  0.64470  0.24351  0.16254  1.0000
  C   C544      1.0  0.51515  0.31835  0.32960  1.0000
  H   H649      1.0  0.64464  0.29459  0.38661  1.0000
  H   H650      1.0  0.98035  0.00983  0.19609  1.0000
  H   H651      1.0  0.98085  0.08208  0.47197  1.0000
  H   H652      1.0  0.89932  0.32526  0.32922  1.0000
  H   H653      1.0  0.50615  0.17303  0.33797  1.0000
  H   H654      1.0  0.69257  0.30537  0.34631  1.0000
  C   C545      1.0  0.51175  0.99671  0.98841  1.0000
  H   H655      1.0  0.99104  0.02423  0.98016  1.0000
  H   H656      1.0  0.98841  0.30298  0.40000  1.0000
  H   H657      1.0  0.98822  0.31758  0.45540  1.0000
  H   H658      1.0  0.66127  0.29606  0.42441  1.0000
  H   H659      1.0  0.54125  0.29525  0.30459  1.0000
  C   C546      1.0  0.66320  0.29774  0.39748  1.0000
  C   C547      1.0  0.54032  0.99875  0.27273  1.0000
  H   H660      1.0  0.66227  0.31624  0.33711  1.0000
  H   H661      1.0  0.56034  0.99786  0.27329  1.0000
  H   H662      1.0  0.97451  0.99980  0.14163  1.0000
  C   C548      1.0  0.69687  0.32607  0.40466  1.0000
  H   H663      1.0  0.69457  0.32540  0.43165  1.0000
  H   H664      1.0  0.94537  0.05737  0.47137  1.0000
  C   C549      1.0  0.53303  0.19657  0.87100  1.0000
  S   S151      1.0  0.87321  0.24313  0.55505  1.0000
  C   C550      1.0  0.73239  0.16962  0.65778  1.0000
  C   C551      1.0  0.54470  0.99964  0.76491  1.0000
  S   S152      1.0  0.83908  0.20039  0.52386  1.0000
  S   S153      1.0  0.81349  0.22112  0.93406  1.0000
  Fe  Fe78      1.0  0.83256  0.23294  0.55702  1.0000
  S   S154      1.0  0.81327  0.22429  0.60684  1.0000
  H   H665      1.0  0.50899  0.15357  0.82059  1.0000
  C   C552      1.0  0.53987  0.26334  0.79921  1.0000
  S   S155      1.0  0.82285  0.25833  0.51497  1.0000
  C   C553      1.0  0.52362  0.16511  0.83172  1.0000
  C   C554      1.0  0.84221  0.28576  0.92149  1.0000
  S   S156      1.0  0.95215  0.11734  0.91947  1.0000
  H   H666      1.0  0.68508  0.23584  0.90126  1.0000
  Fe  Fe79      1.0  0.66921  0.22018  0.79014  1.0000
  S   S157      1.0  0.66109  0.24507  0.74763  1.0000
  S   S158      1.0  0.65409  0.18128  0.78988  1.0000
  Fe  Fe80      1.0  0.70087  0.25863  0.82291  1.0000
  S   S159      1.0  0.69488  0.28626  0.78259  1.0000
  S   S160      1.0  0.71830  0.27029  0.87070  1.0000
  Fe  Fe81      1.0  0.65505  0.27448  0.78547  1.0000
  S   S161      1.0  0.62091  0.29929  0.78192  1.0000
  Fe  Fe82      1.0  0.70182  0.25453  0.74798  1.0000
  S   S162      1.0  0.72156  0.25965  0.69783  1.0000
  S   S163      1.0  0.66055  0.24881  0.82762  1.0000
  S   S164      1.0  0.71040  0.22764  0.78864  1.0000
  Fe  Fe83      1.0  0.55020  0.10482  0.88702  1.0000
  S   S165      1.0  0.52642  0.09746  0.84326  1.0000
  S   S166      1.0  0.57396  0.13945  0.89072  1.0000
  Fe  Fe84      1.0  0.52761  0.06088  0.92725  1.0000
  H   H667      1.0  0.52195  0.15234  0.89417  1.0000
  Fe  Fe85      1.0  0.53540  0.05768  0.85303  1.0000
  S   S167      1.0  0.55143  0.03451  0.81189  1.0000
  S   S168      1.0  0.56136  0.06545  0.89482  1.0000
  H   H668      1.0  0.81819  0.29749  0.86701  1.0000
  C   C555      1.0  0.63023  0.17078  0.81654  1.0000
  C   C556      1.0  0.62020  0.14731  0.81186  1.0000
  C   C557      1.0  0.60237  0.13773  0.83369  1.0000
  C   C558      1.0  0.59469  0.15138  0.86083  1.0000
  C   C559      1.0  0.60442  0.17502  0.86520  1.0000
  C   C560      1.0  0.62189  0.18476  0.84305  1.0000
  H   H669      1.0  0.62649  0.13630  0.79148  1.0000
  H   H670      1.0  0.59512  0.11951  0.83004  1.0000
  H   H671      1.0  0.59876  0.18567  0.88622  1.0000
  H   H672      1.0  0.62937  0.20282  0.84699  1.0000
  C   C561      1.0  0.99713  0.31234  0.95521  1.0000
  H   H673      1.0  0.83052  0.31838  0.96640  1.0000
  Fe  Fe86      1.0  0.87878  0.21204  0.51936  1.0000
  Fe  Fe87      1.0  0.83198  0.22644  0.48215  1.0000
  C   C562      1.0  0.94816  0.08729  0.52218  1.0000
  S   S169      1.0  0.87860  0.30511  0.50499  1.0000
  C   C563      1.0  0.52449  0.29186  0.84112  1.0000
  H   H674      1.0  0.85035  0.27737  0.89916  1.0000
  H   H675      1.0  0.94013  0.09481  0.49911  1.0000
  H   H676      1.0  0.62850  0.11921  0.92050  1.0000
  H   H677      1.0  0.67777  0.15746  0.85740  1.0000
  C   C564      1.0  0.98660  0.07531  0.49649  1.0000
  C   C565      1.0  0.96948  0.20167  0.94204  1.0000
  H   H678      1.0  0.98880  0.15569  0.92255  1.0000
  S   S170      1.0  0.51852  0.10127  0.92272  1.0000
  C   C566      1.0  0.92808  0.32375  0.92617  1.0000
  C   C567      1.0  0.64537  0.15111  0.94156  1.0000
  H   H679      1.0  0.51508  0.05120  0.61977  1.0000
  H   H680      1.0  0.66910  0.22066  0.93332  1.0000
  C   C568      1.0  0.78830  0.23533  0.63229  1.0000
  C   C569      1.0  0.78414  0.22413  0.66299  1.0000
  C   C570      1.0  0.76422  0.23145  0.68353  1.0000
  C   C571      1.0  0.74790  0.25014  0.67370  1.0000
  C   C572      1.0  0.75212  0.26139  0.64307  1.0000
  C   C573      1.0  0.77213  0.25417  0.62262  1.0000
  H   H681      1.0  0.79637  0.20955  0.67095  1.0000
  H   H682      1.0  0.76149  0.22256  0.70690  1.0000
  H   H683      1.0  0.73977  0.27587  0.63503  1.0000
  H   H684      1.0  0.77488  0.26307  0.59923  1.0000
  C   C574      1.0  0.78714  0.23520  0.91681  1.0000
  C   C575      1.0  0.77910  0.22755  0.88588  1.0000
  C   C576      1.0  0.75817  0.23832  0.87123  1.0000
  C   C577      1.0  0.74503  0.25670  0.88762  1.0000
  C   C578      1.0  0.75303  0.26432  0.91860  1.0000
  C   C579      1.0  0.77407  0.25365  0.93317  1.0000
  H   H685      1.0  0.78924  0.21331  0.87312  1.0000
  H   H686      1.0  0.75231  0.23249  0.84723  1.0000
  H   H687      1.0  0.74283  0.27848  0.93144  1.0000
  H   H688      1.0  0.77999  0.25947  0.95715  1.0000
  H   H689      1.0  0.73561  0.21981  0.59074  1.0000
  H   H690      1.0  0.80278  0.30430  0.95290  1.0000
  C   C580      1.0  0.91922  0.15144  0.94375  1.0000
  C   C581      1.0  0.94159  0.13873  0.94927  1.0000
  H   H691      1.0  0.52577  0.20886  0.89050  1.0000
  H   H692      1.0  0.79840  0.14731  0.56809  1.0000
  H   H693      1.0  0.99616  0.09084  0.50845  1.0000
  H   H694      1.0  0.90879  0.14780  0.92176  1.0000
  H   H695      1.0  0.95771  0.10289  0.53404  1.0000
  C   C582      1.0  0.54098  0.01061  0.63774  1.0000
  C   C583      1.0  0.52102  0.27819  0.81202  1.0000
  Fe  Fe88      1.0  0.86403  0.26609  0.51089  1.0000
  C   C584      1.0  0.91099  0.31285  0.94790  1.0000
  H   H696      1.0  0.53846  0.15253  0.84071  1.0000
  H   H697      1.0  0.90431  0.29455  0.94334  1.0000
  N   N36       1.0  0.68904  0.19637  0.90043  1.0000
  C   C585      1.0  0.71066  0.19557  0.92272  1.0000
  C   C586      1.0  0.69866  0.19840  0.86647  1.0000
  C   C587      1.0  0.67443  0.21895  0.90720  1.0000
  C   C588      1.0  0.67342  0.17449  0.90588  1.0000
  C   C589      1.0  0.66951  0.15641  0.88145  1.0000
  H   H698      1.0  0.82887  0.27220  0.93157  1.0000
  H   H699      1.0  0.57750  0.25058  0.80469  1.0000
  H   H700      1.0  0.98646  0.31740  0.89272  1.0000
  H   H701      1.0  0.63382  0.30565  0.85112  1.0000
  H   H702      1.0  0.72307  0.21161  0.91886  1.0000
  H   H703      1.0  0.50386  0.27946  0.79854  1.0000
  H   H704      1.0  0.93430  0.31367  0.90492  1.0000
  C   C590      1.0  0.95926  0.14132  0.47441  1.0000
  H   H705      1.0  0.70956  0.21545  0.86287  1.0000
  C   C591      1.0  0.92474  0.16663  0.49480  1.0000
  H   H706      1.0  0.55223  0.29880  0.87930  1.0000
  H   H707      1.0  0.50609  0.02447  0.59737  1.0000
  C   C592      1.0  0.84920  0.32720  0.90334  1.0000
  H   H708      1.0  0.96211  0.18898  0.92439  1.0000
  H   H709      1.0  0.85789  0.30729  0.85845  1.0000
  H   H710      1.0  0.70508  0.19583  0.94888  1.0000
  N   N37       1.0  0.83018  0.30970  0.91486  1.0000
  H   H711      1.0  0.55467  0.03465  0.68763  1.0000
  N   N38       1.0  0.87056  0.17164  0.62303  1.0000
  C   C593      1.0  0.85495  0.17604  0.65250  1.0000
  C   C594      1.0  0.89217  0.15652  0.63342  1.0000
  C   C595      1.0  0.87964  0.19563  0.61131  1.0000
  C   C596      1.0  0.85702  0.15959  0.59608  1.0000
  C   C597      1.0  0.83070  0.15847  0.59501  1.0000
  C   C598      1.0  0.87006  0.14994  0.56873  1.0000
  C   C599      1.0  0.81846  0.14753  0.56875  1.0000
  C   C600      1.0  0.85766  0.13920  0.54253  1.0000
  C   C601      1.0  0.83192  0.13785  0.54263  1.0000
  H   H712      1.0  0.84625  0.15880  0.66127  1.0000
  H   H713      1.0  0.86587  0.18374  0.67306  1.0000
  H   H714      1.0  0.84014  0.18990  0.64771  1.0000
  H   H715      1.0  0.90706  0.15596  0.61457  1.0000
  H   H716      1.0  0.88649  0.13737  0.63888  1.0000
  H   H717      1.0  0.90121  0.16404  0.65564  1.0000
  H   H718      1.0  0.86387  0.20763  0.60399  1.0000
  H   H719      1.0  0.89024  0.20551  0.63042  1.0000
  H   H720      1.0  0.89196  0.19377  0.58955  1.0000
  H   H721      1.0  0.81912  0.16667  0.61361  1.0000
  H   H722      1.0  0.88993  0.15150  0.56662  1.0000
  H   H723      1.0  0.86810  0.13275  0.52149  1.0000
  H   H724      1.0  0.51414  0.21336  0.80765  1.0000
  C   C602      1.0  0.56254  0.26137  0.81522  1.0000
  H   H725      1.0  0.99504  0.17820  0.89105  1.0000
  H   H726      1.0  0.51568  0.31030  0.90365  1.0000
  C   C603      1.0  0.81088  0.30639  0.88946  1.0000
  C   C604      1.0  0.94946  0.15838  0.49702  1.0000
  C   C605      1.0  0.64144  0.13412  0.91682  1.0000
  C   C606      1.0  0.50808  0.01857  0.49989  1.0000
  H   H727      1.0  0.66375  0.18355  0.95633  1.0000
  N   N39       1.0  0.50481  0.30875  0.85284  1.0000
  C   C607      1.0  0.50861  0.00913  0.79783  1.0000
  C   C608      1.0  0.66129  0.17089  0.93638  1.0000
  H   H728      1.0  0.66576  0.20585  0.65307  1.0000
  H   H729      1.0  0.82236  0.13009  0.52186  1.0000
  H   H730      1.0  0.99119  0.08942  0.56399  1.0000
  H   H731      1.0  0.97685  0.00209  0.59102  1.0000
  H   H732      1.0  0.85743  0.28792  0.93955  1.0000
  H   H733      1.0  0.71128  0.18291  0.86022  1.0000
  H   H734      1.0  0.58415  0.27270  0.85636  1.0000
  H   H735      1.0  0.68327  0.19900  0.84840  1.0000
  C   C609      1.0  0.53173  0.00787  0.49932  1.0000
  C   C610      1.0  0.75241  0.18722  0.61022  1.0000
  C   C611      1.0  0.90292  0.31545  0.47894  1.0000
  H   H736      1.0  0.54862  0.18573  0.88166  1.0000
  C   C612      1.0  0.99275  0.03613  0.60635  1.0000
  H   H737      1.0  0.93251  0.08167  0.53823  1.0000
  H   H738      1.0  0.54123  0.20819  0.85147  1.0000
  H   H739      1.0  0.93470  0.04169  0.50723  1.0000
  H   H740      1.0  0.65715  0.21941  0.89243  1.0000
  H   H741      1.0  0.76588  0.15545  0.63571  1.0000
  C   C613      1.0  0.91025  0.16889  0.96628  1.0000
  H   H742      1.0  0.55120  0.05608  0.73932  1.0000
  H   H743      1.0  0.65037  0.12345  0.86775  1.0000
  C   C614      1.0  0.73429  0.20544  0.60905  1.0000
  H   H744      1.0  0.70252  0.22134  0.63065  1.0000
  H   H745      1.0  0.56396  0.00276  0.75894  1.0000
  C   C615      1.0  0.97014  0.03083  0.55582  1.0000
  C   C616      1.0  0.53622  0.03867  0.69635  1.0000
  H   H746      1.0  0.96049  0.01807  0.54037  1.0000
  N   N40       1.0  0.51325  0.18040  0.85847  1.0000
  C   C617      1.0  0.75148  0.16933  0.63455  1.0000
  C   C618      1.0  0.71522  0.20604  0.63228  1.0000
  H   H747      1.0  0.71792  0.17689  0.72206  1.0000
  H   H748      1.0  0.71534  0.20928  0.71582  1.0000
  C   C619      1.0  0.97948  0.02131  0.58512  1.0000
  H   H749      1.0  0.54513  0.01388  0.48135  1.0000
  H   H750      1.0  0.99013  0.29360  0.96049  1.0000
  C   C620      1.0  0.53360  0.01288  0.79053  1.0000
  C   C621      1.0  0.70485  0.19179  0.71514  1.0000
  H   H751      1.0  0.65977  0.20660  0.69610  1.0000
  H   H752      1.0  0.69043  0.19259  0.73469  1.0000
  H   H753      1.0  0.79564  0.29431  0.89816  1.0000
  Fe  Fe89      1.0  0.98955  0.09747  0.91463  1.0000
  H   H754      1.0  0.76762  0.18751  0.59280  1.0000
  C   C622      1.0  0.56627  0.27388  0.84437  1.0000
  H   H755      1.0  0.98086  0.32412  0.94911  1.0000
  C   C623      1.0  0.71356  0.18793  0.65729  1.0000
  H   H756      1.0  0.69285  0.14863  0.68966  1.0000
  C   C624      1.0  0.65376  0.13658  0.88706  1.0000
  C   C625      1.0  0.98739  0.07039  0.56926  1.0000
  C   C626      1.0  0.60697  0.31578  0.81464  1.0000
  N   N41       1.0  0.69374  0.18799  0.68246  1.0000
  C   C627      1.0  0.68061  0.16416  0.68255  1.0000
  H   H757      1.0  0.66500  0.16406  0.70051  1.0000
  C   C628      1.0  0.54764  0.28897  0.85727  1.0000
  C   C629      1.0  0.95159  0.04870  0.49475  1.0000
  C   C630      1.0  0.99663  0.06066  0.59850  1.0000
  C   C631      1.0  0.67478  0.20748  0.67738  1.0000
  H   H758      1.0  0.67287  0.16011  0.65796  1.0000
  H   H759      1.0  0.68296  0.22611  0.67947  1.0000
  H   H760      1.0  0.96120  0.16542  0.51616  1.0000
  H   H761      1.0  0.54993  0.99861  0.65642  1.0000
  H   H762      1.0  0.89306  0.17855  0.96151  1.0000
  C   C632      1.0  0.86191  0.32307  0.87336  1.0000
  H   H763      1.0  0.53716  0.25379  0.77630  1.0000
  C   C633      1.0  0.61706  0.31596  0.84614  1.0000
  H   H764      1.0  0.73273  0.15565  0.67653  1.0000
  S   S171      1.0  0.91289  0.18713  0.52498  1.0000
  H   H765      1.0  0.49988  0.01932  0.81743  1.0000
  C   C634      1.0  0.51179  0.32266  0.88259  1.0000
  C   C635      1.0  0.97398  0.05573  0.54689  1.0000
  H   H766      1.0  0.53220  0.17612  0.81191  1.0000
  N   N42       1.0  0.96512  0.06635  0.51563  1.0000
  H   H767      1.0  0.72197  0.17871  0.91870  1.0000
  S   S172      1.0  0.87294  0.24403  0.97239  1.0000
  H   H768      1.0  0.55285  0.02685  0.63311  1.0000
  H   H769      1.0  0.96359  0.03293  0.48774  1.0000
  H   H770      1.0  0.54096  0.99999  0.61446  1.0000
  H   H771      1.0  0.80248  0.32428  0.88227  1.0000
  H   H772      1.0  0.63571  0.14905  0.96468  1.0000
  C   C636      1.0  0.50599  0.16357  0.88543  1.0000
  H   H773      1.0  0.99454  0.28611  0.90004  1.0000
  S   S173      1.0  0.99446  0.05650  0.90785  1.0000
  S   S174      1.0  0.50218  0.05097  0.88553  1.0000
  C   C637      1.0  0.50495  0.03354  0.62170  1.0000
  C   C638      1.0  0.81742  0.31751  0.94540  1.0000
  N   N43       1.0  0.51550  0.01784  0.64790  1.0000
  H   H774      1.0  0.50560  0.99774  0.96330  1.0000
  H   H775      1.0  0.97835  0.13536  0.47632  1.0000
  C   C639      1.0  0.53455  0.05126  0.72604  1.0000
  C   C640      1.0  0.95246  0.21791  0.95624  1.0000
  S   S175      1.0  0.87223  0.23585  0.47548  1.0000
  H   H776      1.0  0.93305  0.21719  0.94945  1.0000
  C   C641      1.0  0.51457  0.03124  0.67935  1.0000
  C   C642      1.0  0.99481  0.20149  0.95156  1.0000
  C   C643      1.0  0.51153  0.05670  0.73973  1.0000
  H   H777      1.0  0.51045  0.06567  0.76334  1.0000
  Fe  Fe90      1.0  0.98269  0.38175  0.40915  1.0000
  S   S176      1.0  0.95943  0.34693  0.40511  1.0000
  S   S177      1.0  0.97208  0.42167  0.40822  1.0000
  C   C644      1.0  0.65528  0.34151  0.39533  1.0000
  H   H778      1.0  0.98847  0.58853  0.39772  1.0000
  S   S178      1.0  0.94934  0.60939  0.13897  1.0000
  Fe  Fe91      1.0  0.53737  0.59639  0.16714  1.0000
  S   S179      1.0  0.51682  0.60127  0.11979  1.0000
  S   S180      1.0  0.57457  0.61542  0.17384  1.0000
  H   H779      1.0  0.53817  0.58812  0.27654  1.0000
  N   N44       1.0  0.50660  0.47815  0.14989  1.0000
  Fe  Fe92      1.0  0.51157  0.56014  0.11945  1.0000
  S   S181      1.0  0.52350  0.53588  0.07553  1.0000
  S   S182      1.0  0.53464  0.55519  0.16515  1.0000
  C   C645      1.0  0.59525  0.62639  0.31218  1.0000
  Fe  Fe93      1.0  0.54000  0.38649  0.38733  1.0000
  S   S183      1.0  0.51554  0.39348  0.34416  1.0000
  S   S184      1.0  0.56365  0.35171  0.39012  1.0000
  Fe  Fe94      1.0  0.51855  0.43170  0.42656  1.0000
  C   C646      1.0  0.58501  0.35288  0.32809  1.0000
  Fe  Fe95      1.0  0.52555  0.43309  0.35216  1.0000
  S   S185      1.0  0.54194  0.45383  0.30913  1.0000
  C   C647      1.0  0.98795  0.56804  0.35299  1.0000
  S   S186      1.0  0.55192  0.42564  0.39380  1.0000
  H   H780      1.0  0.54023  0.47906  0.98403  1.0000
  H   H781      1.0  0.91944  0.58727  0.08178  1.0000
  H   H782      1.0  0.57201  0.54217  0.22786  1.0000
  N   N45       1.0  0.57325  0.57122  0.26365  1.0000
  H   H783      1.0  0.93161  0.56156  0.12493  1.0000
  C   C648      1.0  0.51449  0.51297  0.04645  1.0000
  C   C649      1.0  0.53221  0.50405  0.02393  1.0000
  C   C650      1.0  0.52627  0.48566  0.00091  1.0000
  H   H784      1.0  0.88278  0.35818  0.42163  1.0000
  H   H785      1.0  0.55078  0.51139  0.02437  1.0000
  H   H786      1.0  0.53145  0.41672  0.22294  1.0000
  C   C651      1.0  0.64524  0.35779  0.37149  1.0000
  C   C652      1.0  0.52456  0.50839  0.24567  1.0000
  C   C653      1.0  0.53700  0.48941  0.26230  1.0000
  C   C654      1.0  0.52630  0.47832  0.28996  1.0000
  C   C655      1.0  0.98593  0.57064  0.38678  1.0000
  H   H787      1.0  0.94690  0.53307  0.11900  1.0000
  H   H788      1.0  0.53266  0.51656  0.22411  1.0000
  H   H789      1.0  0.55477  0.48294  0.25344  1.0000
  C   C656      1.0  0.54796  0.57983  0.25532  1.0000
  H   H790      1.0  0.91427  0.53563  0.11104  1.0000
  S   S187      1.0  0.99387  0.45214  0.32692  1.0000
  C   C657      1.0  0.58368  0.64051  0.19862  1.0000
  N   N46       1.0  0.97348  0.50447  0.41319  1.0000
  H   H791      1.0  0.98602  0.51179  0.23634  1.0000
  H   H792      1.0  0.55224  0.63977  0.23117  1.0000
  H   H793      1.0  0.63808  0.62787  0.25149  1.0000
  C   C658      1.0  0.89257  0.34389  0.37449  1.0000
  C   C659      1.0  0.93832  0.63173  0.11068  1.0000
  C   C660      1.0  0.95142  0.63769  0.08220  1.0000
  Fe  Fe96      1.0  0.98819  0.59251  0.14153  1.0000
  C   C661      1.0  0.58177  0.33991  0.35736  1.0000
  H   H794      1.0  0.97697  0.55113  0.08164  1.0000
  H   H795      1.0  0.96927  0.62929  0.07754  1.0000
  C   C662      1.0  0.92948  0.34923  0.46064  1.0000
  H   H796      1.0  0.62315  0.36440  0.46136  1.0000
  H   H797      1.0  0.98944  0.52659  0.98492  1.0000
  H   H798      1.0  0.68215  0.33362  0.14523  1.0000
  S   S188      1.0  0.50365  0.60086  0.19869  1.0000
  C   C663      1.0  0.62264  0.62130  0.26606  1.0000
  H   H799      1.0  0.97864  0.50716  0.34638  1.0000
  C   C664      1.0  0.95334  0.48931  0.03977  1.0000
  C   C665      1.0  0.95271  0.50994  0.05991  1.0000
  H   H800      1.0  0.56128  0.53630  0.28306  1.0000
  C   C666      1.0  0.99014  0.48573  0.27618  1.0000
  H   H801      1.0  0.70474  0.34425  0.39818  1.0000
  H   H802      1.0  0.96622  0.47446  0.04488  1.0000
  H   H803      1.0  0.90473  0.63831  0.13806  1.0000
  C   C667      1.0  0.50133  0.51631  0.25666  1.0000
  H   H804      1.0  0.56576  0.60101  0.31692  1.0000
  C   C668      1.0  0.62802  0.37592  0.38014  1.0000
  H   H805      1.0  0.61514  0.59255  0.23325  1.0000
  C   C669      1.0  0.60919  0.60088  0.25589  1.0000
  H   H806      1.0  0.57582  0.37039  0.32476  1.0000
  H   H807      1.0  0.60361  0.35401  0.28129  1.0000
  C   C670      1.0  0.93871  0.33492  0.43501  1.0000
  H   H808      1.0  0.98702  0.54303  0.31260  1.0000
  C   C671      1.0  0.57154  0.55301  0.29061  1.0000
  H   H809      1.0  0.99201  0.58378  0.33769  1.0000
  C   C672      1.0  0.51152  0.65955  0.17083  1.0000
  H   H810      1.0  0.65397  0.33310  0.44755  1.0000
  H   H811      1.0  0.56139  0.56021  0.31224  1.0000
  H   H812      1.0  0.53603  0.56460  0.24659  1.0000
  C   C673      1.0  0.97768  0.52661  0.39292  1.0000
  H   H813      1.0  0.58355  0.57046  0.21255  1.0000
  C   C674      1.0  0.64716  0.34474  0.42811  1.0000
  S   S189      1.0  0.50912  0.39144  0.42375  1.0000
  C   C675      1.0  0.62969  0.36272  0.43637  1.0000
  C   C676      1.0  0.62007  0.37821  0.41239  1.0000
  H   H814      1.0  0.92247  0.57880  0.04002  1.0000
  H   H815      1.0  0.64978  0.35655  0.34582  1.0000
  C   C677      1.0  0.92238  0.50761  0.00490  1.0000
  C   C678      1.0  0.56952  0.64863  0.22523  1.0000
  H   H816      1.0  0.93960  0.47251  0.99605  1.0000
  H   H817      1.0  0.93586  0.50123  0.39642  1.0000
  H   H818      1.0  0.95096  0.52243  0.44977  1.0000
  C   C679      1.0  0.93838  0.48823  0.01217  1.0000
  H   H819      1.0  0.96300  0.49317  0.46209  1.0000
  S   S190      1.0  0.99356  0.55224  0.15315  1.0000
  C   C680      1.0  0.98099  0.55030  0.40663  1.0000
  H   H820      1.0  0.51488  0.44620  0.12052  1.0000
  H   H821      1.0  0.97341  0.47595  0.27010  1.0000
  H   H822      1.0  0.60591  0.39160  0.41862  1.0000
  C   C681      1.0  0.91883  0.57126  0.06489  1.0000
  C   C682      1.0  0.98011  0.52464  0.35846  1.0000
  H   H823      1.0  0.99422  0.47271  0.42843  1.0000
  C   C683      1.0  0.60079  0.34354  0.30348  1.0000
  H   H824      1.0  0.54628  0.47292  0.14425  1.0000
  H   H825      1.0  0.96707  0.56783  0.04608  1.0000
  C   C684      1.0  0.98506  0.54507  0.33888  1.0000
  H   H826      1.0  0.62945  0.33364  0.16870  1.0000
  C   C685      1.0  0.60643  0.65200  0.19201  1.0000
  C   C686      1.0  0.87986  0.34359  0.40414  1.0000
  C   C687      1.0  0.92146  0.52831  0.02500  1.0000
  C   C688      1.0  0.58174  0.60591  0.30239  1.0000
  C   C689      1.0  0.61567  0.63405  0.29406  1.0000
  H   H827      1.0  0.65607  0.34941  0.18425  1.0000
  H   H828      1.0  0.62569  0.65039  0.30112  1.0000
  C   C690      1.0  0.58341  0.55832  0.23454  1.0000
  H   H829      1.0  0.59030  0.54710  0.29885  1.0000
  N   N47       1.0  0.93731  0.55217  0.07413  1.0000
  H   H830      1.0  0.61996  0.38765  0.36149  1.0000
  C   C691      1.0  0.93232  0.54522  0.10865  1.0000
  H   H831      1.0  0.93559  0.36796  0.46329  1.0000
  C   C692      1.0  0.93676  0.53012  0.05315  1.0000
  H   H832      1.0  0.89959  0.56411  0.06609  1.0000
  H   H833      1.0  0.96319  0.58068  0.08600  1.0000
  C   C693      1.0  0.95276  0.48975  0.39988  1.0000
  H   H834      1.0  0.96546  0.51025  0.08025  1.0000
  H   H835      1.0  0.98326  0.51856  0.46088  1.0000
  H   H836      1.0  0.58964  0.63674  0.33358  1.0000
  H   H837      1.0  0.54876  0.59399  0.23570  1.0000
  H   H838      1.0  0.90534  0.35864  0.36906  1.0000
  C   C694      1.0  0.96738  0.51008  0.44787  1.0000
  H   H839      1.0  0.63824  0.33133  0.21132  1.0000
  C   C695      1.0  0.53223  0.48769  0.14715  1.0000
  H   H840      1.0  0.90406  0.36019  0.00085  1.0000
  C   C696      1.0  0.58833  0.59243  0.27397  1.0000
  C   C697      1.0  0.91509  0.64284  0.11618  1.0000
  C   C698      1.0  0.96220  0.56337  0.07187  1.0000
  H   H841      1.0  0.91086  0.50666  0.98329  1.0000
  H   H842      1.0  0.60258  0.55149  0.23902  1.0000
  H   H843      1.0  0.90885  0.54273  0.01775  1.0000
  H   H844      1.0  0.61763  0.64579  0.17163  1.0000
  H   H845      1.0  0.94785  0.47422  0.41639  1.0000
  C   C699      1.0  0.51828  0.43119  0.21731  1.0000
  H   H846      1.0  0.95744  0.48101  0.37607  1.0000
  H   H847      1.0  0.53464  0.43902  0.17115  1.0000
  C   C700      1.0  0.50242  0.47570  0.00005  1.0000
  C   C701      1.0  0.52011  0.44430  0.18796  1.0000
  H   H848      1.0  0.53451  0.49985  0.12539  1.0000
  C   C702      1.0  0.50177  0.46195  0.12161  1.0000
  C   C703      1.0  0.50374  0.46405  0.18069  1.0000
  H   H849      1.0  0.68758  0.33747  0.34237  1.0000
  C   C704      1.0  0.94117  0.65428  0.05933  1.0000
  H   H850      1.0  0.53719  0.49851  0.16915  1.0000
  H   H851      1.0  0.52650  0.65141  0.18598  1.0000
  H   H852      1.0  0.51125  0.50085  0.46092  1.0000
  C   C705      1.0  0.50326  0.48653  0.30121  1.0000
  C   C706      1.0  0.99628  0.48928  0.41276  1.0000
  H   H853      1.0  0.95128  0.65847  0.03715  1.0000
  C   C707      1.0  0.90502  0.65975  0.09358  1.0000
  H   H854      1.0  0.98013  0.55358  0.43263  1.0000
  H   H855      1.0  0.51179  0.65018  0.14672  1.0000
  C   C708      1.0  0.91091  0.34985  0.98014  1.0000
  C   C709      1.0  0.99728  0.50612  0.25688  1.0000
  H   H856      1.0  0.50370  0.47199  0.09796  1.0000
  C   C710      1.0  0.64541  0.33205  0.18575  1.0000
  C   C711      1.0  0.49982  0.43695  0.23989  1.0000
  H   H857      1.0  0.52932  0.32886  0.34192  1.0000
  Fe  Fe97      1.0  0.98140  0.39532  0.90261  1.0000
  S   S191      1.0  0.95726  0.36084  0.90201  1.0000
  S   S192      1.0  0.97259  0.43474  0.89091  1.0000
  H   H858      1.0  0.97184  0.47582  0.74820  1.0000
  H   H859      1.0  0.50113  0.51503  0.94939  1.0000
  S   S193      1.0  0.94362  0.62368  0.63636  1.0000
  Fe  Fe98      1.0  0.53593  0.59128  0.66855  1.0000
  C   C712      1.0  0.91070  0.66024  0.61911  1.0000
  S   S194      1.0  0.57462  0.60791  0.67158  1.0000
  H   H860      1.0  0.50650  0.53839  0.49480  1.0000
  C   C713      1.0  0.51335  0.49122  0.89350  1.0000
  H   H861      1.0  0.65154  0.35861  0.85075  1.0000
  N   N48       1.0  0.59784  0.41525  0.80199  1.0000
  S   S195      1.0  0.52746  0.55118  0.66026  1.0000
  C   C714      1.0  0.92837  0.36057  0.95876  1.0000
  Fe  Fe99      1.0  0.53848  0.38886  0.89187  1.0000
  S   S196      1.0  0.51607  0.39044  0.84601  1.0000
  S   S197      1.0  0.57153  0.36261  0.89645  1.0000
  H   H862      1.0  0.96606  0.49027  0.89335  1.0000
  C   C715      1.0  0.50898  0.52082  0.50670  1.0000
  Fe  Fe100     1.0  0.51695  0.43142  0.85335  1.0000
  S   S198      1.0  0.53373  0.45745  0.81605  1.0000
  C   C716      1.0  0.99530  0.50518  0.73093  1.0000
  S   S199      1.0  0.54150  0.42981  0.89767  1.0000
  C   C717      1.0  0.58426  0.34396  0.86486  1.0000
  H   H863      1.0  0.80828  0.33569  0.94235  1.0000
  C   C718      1.0  0.60274  0.43432  0.82696  1.0000
  H   H864      1.0  0.63727  0.52701  0.50471  1.0000
  H   H865      1.0  0.65536  0.36517  0.74661  1.0000
  H   H866      1.0  0.53266  0.49790  0.89129  1.0000
  C   C719      1.0  0.57502  0.40202  0.81120  1.0000
  H   H867      1.0  0.98529  0.51818  0.56364  1.0000
  C   C720      1.0  0.51509  0.47645  0.50201  1.0000
  H   H868      1.0  0.60300  0.42684  0.85226  1.0000
  C   C721      1.0  0.98688  0.48637  0.53228  1.0000
  H   H869      1.0  0.62078  0.44346  0.82230  1.0000
  C   C722      1.0  0.51760  0.51133  0.75091  1.0000
  C   C723      1.0  0.53016  0.49425  0.77076  1.0000
  C   C724      1.0  0.51700  0.47858  0.79178  1.0000
  H   H870      1.0  0.55679  0.35295  0.82882  1.0000
  H   H871      1.0  0.51806  0.45780  0.54841  1.0000
  H   H872      1.0  0.52787  0.52347  0.73501  1.0000
  H   H873      1.0  0.55016  0.49326  0.76988  1.0000
  H   H874      1.0  0.95232  0.51463  0.81300  1.0000
  Fe  Fe101     1.0  0.50422  0.56322  0.61723  1.0000
  C   C725      1.0  0.57429  0.62936  0.73345  1.0000
  C   C726      1.0  0.58619  0.62708  0.70315  1.0000
  H   H875      1.0  0.99396  0.50335  0.61864  1.0000
  S   S200      1.0  0.98534  0.56008  0.62724  1.0000
  H   H876      1.0  0.55766  0.61901  0.73837  1.0000
  H   H877      1.0  0.53424  0.53645  0.87088  1.0000
  H   H878      1.0  0.57150  0.38659  0.79415  1.0000
  C   C727      1.0  0.92612  0.64119  0.60769  1.0000
  S   S201      1.0  0.51494  0.60293  0.62380  1.0000
  H   H879      1.0  0.53522  0.56101  0.82087  1.0000
  C   C728      1.0  0.51555  0.47537  0.53651  1.0000
  C   C729      1.0  0.92672  0.63624  0.57416  1.0000
  C   C730      1.0  0.58424  0.64471  0.75777  1.0000
  C   C731      1.0  0.51170  0.49946  0.48730  1.0000
  H   H880      1.0  0.93837  0.62158  0.56501  1.0000
  H   H881      1.0  0.58657  0.41525  0.75130  1.0000
  H   H882      1.0  0.60258  0.49995  0.48929  1.0000
  C   C732      1.0  0.61855  0.39735  0.80049  1.0000
  S   S202      1.0  0.50387  0.59802  0.70244  1.0000
  H   H883      1.0  0.93482  0.37900  0.96307  1.0000
  C   C733      1.0  0.60792  0.64055  0.69739  1.0000
  C   C734      1.0  0.62947  0.38964  0.77048  1.0000
  N   N49       1.0  0.98511  0.51871  0.86654  1.0000
  N   N50       1.0  0.59180  0.56145  0.59178  1.0000
  C   C735      1.0  0.57008  0.57760  0.58569  1.0000
  C   C736      1.0  0.58722  0.54689  0.62186  1.0000
  C   C737      1.0  0.61339  0.57749  0.59817  1.0000
  C   C738      1.0  0.59533  0.54470  0.56370  1.0000
  C   C739      1.0  0.61765  0.54358  0.54514  1.0000
  C   C740      1.0  0.57596  0.52878  0.55415  1.0000
  H   H884      1.0  0.53652  0.65954  0.70720  1.0000
  H   H885      1.0  0.52105  0.53334  0.92469  1.0000
  C   C741      1.0  0.50190  0.52610  0.92644  1.0000
  H   H886      1.0  0.55239  0.56733  0.58522  1.0000
  H   H887      1.0  0.56785  0.59168  0.60512  1.0000
  H   H888      1.0  0.57179  0.58734  0.56185  1.0000
  H   H889      1.0  0.57026  0.53554  0.62000  1.0000
  H   H890      1.0  0.58460  0.55889  0.64365  1.0000
  H   H891      1.0  0.60299  0.53425  0.62705  1.0000
  H   H892      1.0  0.61743  0.58957  0.57686  1.0000
  H   H893      1.0  0.60992  0.58984  0.61944  1.0000
  H   H894      1.0  0.63025  0.56662  0.60438  1.0000
  H   H895      1.0  0.63342  0.55491  0.55050  1.0000
  H   H896      1.0  0.56345  0.50105  0.52072  1.0000
  H   H897      1.0  0.98450  0.56987  0.75307  1.0000
  H   H898      1.0  0.91140  0.64513  0.52681  1.0000
  C   C742      1.0  0.98251  0.53595  0.89434  1.0000
  H   H899      1.0  0.97068  0.47797  0.54307  1.0000
  H   H900      1.0  0.99834  0.54880  0.89595  1.0000
  C   C743      1.0  0.99522  0.50901  0.54416  1.0000
  S   S203      1.0  0.50530  0.38763  0.92538  1.0000
  H   H901      1.0  0.55844  0.52859  0.56706  1.0000
  H   H902      1.0  0.88095  0.37893  0.92552  1.0000
  C   C744      1.0  0.62707  0.38558  0.82941  1.0000
  C   C745      1.0  0.96618  0.54226  0.78182  1.0000
  H   H903      1.0  0.90397  0.35110  0.50139  1.0000
  C   C746      1.0  0.96508  0.50028  0.86960  1.0000
  C   C747      1.0  0.98456  0.53250  0.83527  1.0000
  H   H904      1.0  0.96524  0.54706  0.89211  1.0000
  S   S204      1.0  0.99133  0.47923  0.95508  1.0000
  H   H905      1.0  0.90220  0.37079  0.87313  1.0000
  C   C748      1.0  0.98420  0.55991  0.77608  1.0000
  C   C749      1.0  0.60578  0.33005  0.87105  1.0000
  C   C750      1.0  0.59309  0.42809  0.77049  1.0000
  H   H906      1.0  0.50939  0.48042  0.87110  1.0000
  H   H907      1.0  0.58797  0.44872  0.82715  1.0000
  H   H908      1.0  0.55849  0.41416  0.81051  1.0000
  Fe  Fe102     1.0  0.97890  0.60130  0.62746  1.0000
  H   H909      1.0  0.57609  0.39445  0.83644  1.0000
  Fe  Fe103     1.0  0.50608  0.42905  0.92696  1.0000
  C   C751      1.0  0.96636  0.52854  0.81077  1.0000
  H   H910      1.0  0.60993  0.43774  0.76161  1.0000
  H   H911      1.0  0.57808  0.44215  0.77294  1.0000
  H   H912      1.0  0.61877  0.38940  0.85296  1.0000
  S   S205      1.0  0.98795  0.44631  0.49226  1.0000
  C   C752      1.0  0.61766  0.65618  0.72152  1.0000
  C   C753      1.0  0.65578  0.36035  0.79863  1.0000
  C   C754      1.0  0.98896  0.48558  0.75211  1.0000
  C   C755      1.0  0.57367  0.34295  0.83374  1.0000
  H   H913      1.0  0.66943  0.34568  0.79785  1.0000
  C   C756      1.0  0.87515  0.36361  0.91062  1.0000
  C   C757      1.0  0.64566  0.36766  0.82841  1.0000
  H   H914      1.0  0.62385  0.39702  0.74714  1.0000
  C   C758      1.0  0.91136  0.64960  0.55256  1.0000
  H   H915      1.0  0.94641  0.50897  0.86849  1.0000
  C   C759      1.0  0.62014  0.52756  0.51864  1.0000
  C   C760      1.0  0.57864  0.51290  0.52763  1.0000
  C   C761      1.0  0.64773  0.37133  0.76976  1.0000
  C   C762      1.0  0.93672  0.34772  0.93130  1.0000
  H   H916      1.0  0.61404  0.33049  0.89511  1.0000
  C   C763      1.0  0.51720  0.53863  0.85737  1.0000
  H   H917      1.0  0.95245  0.53866  0.76317  1.0000
  H   H918      1.0  0.61734  0.63897  0.67410  1.0000
  H   H919      1.0  0.51314  0.47843  0.91479  1.0000
  C   C764      1.0  0.91151  0.33962  0.48222  1.0000
  H   H920      1.0  0.98979  0.48402  0.65379  1.0000
  C   C765      1.0  0.51274  0.49672  0.55592  1.0000
  C   C766      1.0  0.60067  0.51229  0.50989  1.0000
  H   H921      1.0  0.98292  0.51039  0.71137  1.0000
  H   H922      1.0  0.57513  0.64608  0.78130  1.0000
  S   S206      1.0  0.51848  0.44854  0.47889  1.0000
  C   C767      1.0  0.51796  0.55286  0.82888  1.0000
  C   C768      1.0  0.88719  0.35903  0.88110  1.0000
  H   H923      1.0  0.54054  0.65459  0.63324  1.0000
  H   H924      1.0  0.52825  0.33437  0.87808  1.0000
  H   H925      1.0  0.51154  0.65257  0.68074  1.0000
  H   H926      1.0  0.98184  0.52604  0.91823  1.0000
  C   C769      1.0  0.50943  0.51974  0.54119  1.0000
  S   S207      1.0  0.50630  0.54770  0.56426  1.0000
  H   H927      1.0  0.84884  0.35204  0.94562  1.0000
  C   C770      1.0  0.85655  0.34793  0.92186  1.0000
  H   H928      1.0  0.51599  0.33598  0.81770  1.0000
  H   H929      1.0  0.51314  0.49533  0.58231  1.0000
  C   C771      1.0  0.60599  0.65822  0.75200  1.0000
  H   H930      1.0  0.96655  0.48607  0.85015  1.0000
  S   S208      1.0  0.99479  0.45391  0.80479  1.0000
  H   H931      1.0  0.99504  0.41172  0.60094  1.0000
  H   H932      1.0  0.89035  0.33508  0.83982  1.0000
  C   C772      1.0  0.88058  0.33880  0.86249  1.0000
  H   H933      1.0  0.97312  0.66167  0.60144  1.0000
  C   C773      1.0  0.99930  0.47457  0.50645  1.0000
  H   H934      1.0  0.99912  0.66175  0.62770  1.0000
  H   H935      1.0  0.56513  0.66180  0.66017  1.0000
  H   H936      1.0  0.57695  0.32887  0.78460  1.0000
  C   C774      1.0  0.58509  0.32918  0.80873  1.0000
  Fe  Fe104     1.0  0.87178  0.71116  0.03894  1.0000
  H   H937      1.0  0.71878  0.87993  0.18511  1.0000
  S   S209      1.0  0.90585  0.68597  0.03497  1.0000
  Fe  Fe105     1.0  0.82708  0.73190  0.07608  1.0000
  S   S210      1.0  0.81982  0.76212  0.03941  1.0000
  S   S211      1.0  0.80605  0.72015  0.12170  1.0000
  C   C775      1.0  0.56789  0.78856  0.26425  1.0000
  H   H938      1.0  0.52642  0.84740  0.22945  1.0000
  Fe  Fe106     1.0  0.86172  0.76643  0.03981  1.0000
  S   S212      1.0  0.88513  0.80129  0.03532  1.0000
  S   S213      1.0  0.83117  0.70236  0.03815  1.0000
  S   S214      1.0  0.86819  0.73859  0.07938  1.0000
  Fe  Fe107     1.0  0.98113  0.88730  0.13564  1.0000
  S   S215      1.0  0.95070  0.85820  0.14032  1.0000
  S   S216      1.0  0.97342  0.92755  0.14230  1.0000
  C   C776      1.0  0.86318  0.80149  0.44795  1.0000
  S   S217      1.0  0.53445  0.94108  0.15706  1.0000
  H   H939      1.0  0.90667  0.94211  0.06333  1.0000
  H   H940      1.0  0.51267  0.83587  0.16190  1.0000
  H   H941      1.0  0.97494  0.73051  0.03838  1.0000
  C   C777      1.0  0.52853  0.71723  0.24892  1.0000
  Fe  Fe108     1.0  0.53929  0.90040  0.16711  1.0000
  S   S218      1.0  0.57503  0.87790  0.16978  1.0000
  S   S219      1.0  0.51610  0.88999  0.12384  1.0000
  Fe  Fe109     1.0  0.65121  0.78229  0.27513  1.0000
  S   S220      1.0  0.64794  0.75076  0.31021  1.0000
  S   S221      1.0  0.62790  0.81691  0.28250  1.0000
  Fe  Fe110     1.0  0.68904  0.75487  0.23356  1.0000
  S   S222      1.0  0.68761  0.72068  0.26502  1.0000
  S   S223      1.0  0.70814  0.76490  0.18550  1.0000
  Fe  Fe111     1.0  0.64601  0.72682  0.26549  1.0000
  S   S224      1.0  0.61174  0.70199  0.26600  1.0000
  Fe  Fe112     1.0  0.68968  0.74706  0.30796  1.0000
  S   S225      1.0  0.71026  0.73705  0.35627  1.0000
  S   S226      1.0  0.64744  0.75878  0.23092  1.0000
  S   S227      1.0  0.69300  0.78083  0.27610  1.0000
  H   H942      1.0  0.54281  0.77346  0.17818  1.0000
  H   H943      1.0  0.56744  0.67349  0.26611  1.0000
  C   C778      1.0  0.89448  0.77088  0.43479  1.0000
  C   C779      1.0  0.51397  0.97385  0.04057  1.0000
  C   C780      1.0  0.76371  0.68587  0.03402  1.0000
  C   C781      1.0  0.99421  0.99374  0.14089  1.0000
  H   H944      1.0  0.54357  0.99339  0.39627  1.0000
  C   C782      1.0  0.73058  0.71284  0.98863  1.0000
  C   C783      1.0  0.51096  0.83431  0.22546  1.0000
  H   H945      1.0  0.54043  0.68270  0.12700  1.0000
  C   C784      1.0  0.50138  0.98438  0.25050  1.0000
  C   C785      1.0  0.58541  0.85908  0.20247  1.0000
  C   C786      1.0  0.58524  0.86732  0.23481  1.0000
  C   C787      1.0  0.59767  0.85379  0.25927  1.0000
  C   C788      1.0  0.61001  0.83174  0.25178  1.0000
  C   C789      1.0  0.60868  0.82268  0.21988  1.0000
  C   C790      1.0  0.59687  0.83652  0.19525  1.0000
  H   H946      1.0  0.57673  0.88477  0.24065  1.0000
  H   H947      1.0  0.59842  0.86086  0.28393  1.0000
  H   H948      1.0  0.61746  0.80541  0.21394  1.0000
  H   H949      1.0  0.59713  0.83000  0.17029  1.0000
  C   C791      1.0  0.77749  0.75613  0.42300  1.0000
  C   C792      1.0  0.76192  0.73637  0.43016  1.0000
  C   C793      1.0  0.74183  0.73069  0.40928  1.0000
  C   C794      1.0  0.73682  0.74458  0.38082  1.0000
  C   C795      1.0  0.75253  0.76423  0.37355  1.0000
  C   C796      1.0  0.77260  0.76993  0.39445  1.0000
  C   C797      1.0  0.91791  0.66538  0.06483  1.0000
  H   H950      1.0  0.72991  0.71548  0.41537  1.0000
  H   H951      1.0  0.74910  0.77516  0.35191  1.0000
  Fe  Fe113     1.0  0.50880  0.93040  0.11608  1.0000
  C   C798      1.0  0.77947  0.73365  0.13977  1.0000
  C   C799      1.0  0.76756  0.75399  0.12597  1.0000
  C   C800      1.0  0.74573  0.76331  0.14035  1.0000
  C   C801      1.0  0.73581  0.75260  0.16883  1.0000
  C   C802      1.0  0.74783  0.73241  0.18277  1.0000
  C   C803      1.0  0.76950  0.72292  0.16817  1.0000
  H   H952      1.0  0.77516  0.76253  0.10429  1.0000
  H   H953      1.0  0.73652  0.77895  0.12941  1.0000
  H   H954      1.0  0.74037  0.72399  0.20465  1.0000
  H   H955      1.0  0.77861  0.70715  0.17898  1.0000
  C   C804      1.0  0.90514  0.81415  0.06524  1.0000
  C   C805      1.0  0.92572  0.82787  0.05485  1.0000
  C   C806      1.0  0.94045  0.84069  0.07747  1.0000
  C   C807      1.0  0.93437  0.84051  0.11079  1.0000
  C   C808      1.0  0.91448  0.82584  0.12130  1.0000
  C   C809      1.0  0.90007  0.81257  0.09875  1.0000
  H   H956      1.0  0.93012  0.82875  0.02907  1.0000
  H   H957      1.0  0.95643  0.85075  0.06906  1.0000
  H   H958      1.0  0.90978  0.82523  0.14702  1.0000
  H   H959      1.0  0.88433  0.80211  0.10719  1.0000
  C   C810      1.0  0.86804  0.86331  0.07404  1.0000
  H   H960      1.0  0.86814  0.77095  0.37620  1.0000
  C   C811      1.0  0.53190  0.70707  0.21785  1.0000
  H   H961      1.0  0.54413  0.83474  0.17556  1.0000
  N   N51       1.0  0.91988  0.90670  0.04763  1.0000
  C   C812      1.0  0.85896  0.77929  0.39790  1.0000
  H   H962      1.0  0.73223  0.71918  0.09054  1.0000
  C   C813      1.0  0.92534  0.89441  0.01600  1.0000
  C   C814      1.0  0.90120  0.89362  0.06764  1.0000
  C   C815      1.0  0.91303  0.77780  0.45745  1.0000
  C   C816      1.0  0.89822  0.89910  0.10136  1.0000
  C   C817      1.0  0.54935  0.77816  0.20226  1.0000
  H   H963      1.0  0.69769  0.71194  0.06034  1.0000
  C   C818      1.0  0.74160  0.70290  0.07959  1.0000
  H   H964      1.0  0.71537  0.81528  0.22101  1.0000
  C   C819      1.0  0.70948  0.83492  0.22033  1.0000
  C   C820      1.0  0.66750  0.91535  0.19339  1.0000
  H   H965      1.0  0.54441  0.72384  0.26247  1.0000
  H   H966      1.0  0.72650  0.84566  0.21557  1.0000
  H   H967      1.0  0.88594  0.87010  0.02908  1.0000
  H   H968      1.0  0.90913  0.89474  0.99930  1.0000
  H   H969      1.0  0.71721  0.84348  0.15670  1.0000
  C   C821      1.0  0.71363  0.77966  0.44298  1.0000
  S   S228      1.0  0.98259  0.95840  0.06136  1.0000
  H   H970      1.0  0.90950  0.91273  0.11316  1.0000
  H   H971      1.0  0.68297  0.76078  0.42139  1.0000
  H   H972      1.0  0.57608  0.74846  0.20212  1.0000
  H   H973      1.0  0.94609  0.72419  0.12145  1.0000
  C   C822      1.0  0.65709  0.87268  0.20107  1.0000
  H   H974      1.0  0.71789  0.78959  0.42066  1.0000
  C   C823      1.0  0.64999  0.89732  0.19971  1.0000
  H   H975      1.0  0.98150  0.77106  0.03963  1.0000
  H   H976      1.0  0.64252  0.85984  0.20622  1.0000
  H   H977      1.0  0.74888  0.71178  0.97802  1.0000
  H   H978      1.0  0.63065  0.90232  0.20334  1.0000
  C   C824      1.0  0.54922  0.80338  0.25089  1.0000
  N   N52       1.0  0.94876  0.74309  0.07508  1.0000
  C   C825      1.0  0.93405  0.73110  0.10136  1.0000
  C   C826      1.0  0.93120  0.75142  0.04952  1.0000
  C   C827      1.0  0.96542  0.72413  0.06090  1.0000
  C   C828      1.0  0.96335  0.76431  0.08656  1.0000
  C   C829      1.0  0.96122  0.77389  0.11878  1.0000
  S   S229      1.0  0.80304  0.76478  0.44870  1.0000
  C   C830      1.0  0.72871  0.78222  0.47050  1.0000
  H   H979      1.0  0.78021  0.72780  0.06021  1.0000
  H   H980      1.0  0.98238  0.97161  0.28329  1.0000
  H   H981      1.0  0.91977  0.74373  0.11167  1.0000
  H   H982      1.0  0.92359  0.71503  0.09198  1.0000
  H   H983      1.0  0.87534  0.81053  0.46616  1.0000
  H   H984      1.0  0.92002  0.73602  0.03977  1.0000
  H   H985      1.0  0.94057  0.76004  0.02824  1.0000
  N   N53       1.0  0.50520  0.98223  0.39947  1.0000
  H   H986      1.0  0.54333  0.81878  0.26553  1.0000
  H   H987      1.0  0.95492  0.70751  0.05353  1.0000
  H   H988      1.0  0.93125  0.87506  0.02001  1.0000
  C   C831      1.0  0.53096  0.95235  0.43205  1.0000
  H   H989      1.0  0.91504  0.79664  0.46505  1.0000
  H   H990      1.0  0.90362  0.80010  0.38419  1.0000
  H   H991      1.0  0.92458  0.94257  0.02644  1.0000
  H   H992      1.0  0.94315  0.92341  0.08438  1.0000
  H   H993      1.0  0.94841  0.89137  0.07857  1.0000
  C   C832      1.0  0.99284  0.79739  0.07464  1.0000
  N   N54       1.0  0.87730  0.78954  0.42111  1.0000
  H   H994      1.0  0.77169  0.73280  0.01850  1.0000
  H   H995      1.0  0.94885  0.76625  0.13685  1.0000
  H   H996      1.0  0.66183  0.93442  0.19223  1.0000
  H   H997      1.0  0.53714  0.97064  0.23578  1.0000
  C   C833      1.0  0.60115  0.67905  0.23875  1.0000
  H   H998      1.0  0.75334  0.74600  0.05070  1.0000
  H   H999      1.0  0.88008  0.89023  0.14684  1.0000
  H   H1000     1.0  0.75822  0.69945  0.09514  1.0000
  C   C834      1.0  0.69947  0.88415  0.18948  1.0000
  H   H1001     1.0  0.87975  0.73839  0.40988  1.0000
  C   C835      1.0  0.89326  0.74556  0.42667  1.0000
  C   C836      1.0  0.90913  0.72838  0.44129  1.0000
  H   H1002     1.0  0.91797  0.76514  0.05953  1.0000
  N   N55       1.0  0.74853  0.70718  0.04482  1.0000
  C   C837      1.0  0.94364  0.90869  0.06572  1.0000
  H   H1003     1.0  0.50247  0.72616  0.28708  1.0000
  H   H1004     1.0  0.70256  0.83972  0.24522  1.0000
  C   C838      1.0  0.72699  0.71064  0.02290  1.0000
  H   H1005     1.0  0.63279  0.67965  0.20670  1.0000
  C   C839      1.0  0.53521  0.93780  0.45972  1.0000
  H   H1006     1.0  0.52577  0.95927  0.36556  1.0000
  H   H1007     1.0  0.72947  0.68663  0.08232  1.0000
  Fe  Fe114     1.0  0.50068  0.93739  0.18946  1.0000
  C   C840      1.0  0.99033  0.80626  0.10637  1.0000
  H   H1008     1.0  0.76527  0.72543  0.45179  1.0000
  H   H1009     1.0  0.85181  0.78793  0.46154  1.0000
  H   H1010     1.0  0.50323  0.97844  0.34688  1.0000
  C   C841      1.0  0.86623  0.86853  0.10726  1.0000
  S   S230      1.0  0.50778  0.89785  0.20298  1.0000
  H   H1011     1.0  0.77897  0.68173  0.05154  1.0000
  N   N56       1.0  0.51452  0.68631  0.16720  1.0000
  C   C842      1.0  0.89167  0.80852  0.40341  1.0000
  N   N57       1.0  0.51899  0.81338  0.20477  1.0000
  H   H1012     1.0  0.59216  0.75764  0.25711  1.0000
  Fe  Fe115     1.0  0.82564  0.73272  0.00105  1.0000
  S   S231      1.0  0.86699  0.73924  0.99887  1.0000
  H   H1013     1.0  0.65466  0.82327  0.18379  1.0000
  H   H1014     1.0  0.66157  0.82512  0.22719  1.0000
  C   C843      1.0  0.76409  0.72941  0.04345  1.0000
  H   H1015     1.0  0.95953  0.91333  0.04947  1.0000
  H   H1016     1.0  0.55441  0.68172  0.16601  1.0000
  C   C844      1.0  0.57825  0.66775  0.24514  1.0000
  C   C845      1.0  0.66958  0.82195  0.20243  1.0000
  C   C846      1.0  0.57739  0.76879  0.24675  1.0000
  H   H1017     1.0  0.96785  0.99317  0.01239  1.0000
  H   H1018     1.0  0.67601  0.80258  0.20226  1.0000
  H   H1019     1.0  0.84589  0.79358  0.38868  1.0000
  H   H1020     1.0  0.50364  0.82807  0.24952  1.0000
  H   H1021     1.0  0.70580  0.92290  0.18348  1.0000
  C   C847      1.0  0.68208  0.86527  0.19568  1.0000
  C   C848      1.0  0.50895  0.96654  0.42870  1.0000
  H   H1022     1.0  0.77304  0.68912  0.01008  1.0000
  C   C849      1.0  0.69222  0.90881  0.18843  1.0000
  C   C850      1.0  0.61509  0.67124  0.21183  1.0000
  H   H1023     1.0  0.89316  0.93126  0.02611  1.0000
  S   S232      1.0  0.50539  0.94720  0.06403  1.0000
  H   H1024     1.0  0.85015  0.81574  0.43863  1.0000
  C   C851      1.0  0.56824  0.76366  0.21574  1.0000
  H   H1025     1.0  0.87932  0.82222  0.39137  1.0000
  C   C852      1.0  0.91063  0.93174  0.04048  1.0000
  H   H1026     1.0  0.54305  0.71065  0.14986  1.0000
  N   N58       1.0  0.69003  0.83924  0.19537  1.0000
  H   H1027     1.0  0.53102  0.80928  0.15435  1.0000
  H   H1028     1.0  0.75217  0.66916  0.03173  1.0000
  H   H1029     1.0  0.97200  0.80219  0.15260  1.0000
  C   C853      1.0  0.88121  0.88648  0.12087  1.0000
  C   C854      1.0  0.52724  0.98331  0.25146  1.0000
  C   C855      1.0  0.51154  0.69787  0.19971  1.0000
  H   H1030     1.0  0.78438  0.78524  0.38843  1.0000
  C   C856      1.0  0.69389  0.76338  0.44334  1.0000
  C   C857      1.0  0.53916  0.69072  0.15199  1.0000
  H   H1031     1.0  0.97973  0.71822  0.07882  1.0000
  H   H1032     1.0  0.85680  0.84887  0.06365  1.0000
  C   C858      1.0  0.53922  0.79852  0.21942  1.0000
  C   C859      1.0  0.50701  0.96728  0.36925  1.0000
  H   H1033     1.0  0.85353  0.85830  0.12258  1.0000
  C   C860      1.0  0.97957  0.77675  0.06478  1.0000
  C   C861      1.0  0.70021  0.83301  0.16267  1.0000
  C   C862      1.0  0.50646  0.97568  0.00761  1.0000
  H   H1034     1.0  0.68633  0.83672  0.14315  1.0000
  H   H1035     1.0  0.70545  0.81327  0.16106  1.0000
  H   H1036     1.0  0.57571  0.79292  0.28795  1.0000
  C   C863      1.0  0.68673  0.71889  0.97959  1.0000
  H   H1037     1.0  0.84714  0.76520  0.40994  1.0000
  H   H1038     1.0  0.90392  0.81900  0.42006  1.0000
  C   C864      1.0  0.88515  0.87565  0.05435  1.0000
  H   H1039     1.0  0.55073  0.70621  0.20893  1.0000
  C   C865      1.0  0.97460  0.79453  0.12835  1.0000
  H   H1040     1.0  0.94052  0.90372  0.00234  1.0000
  H   H1041     1.0  0.54526  0.95273  0.41353  1.0000
  C   C866      1.0  0.52708  0.82362  0.17282  1.0000
  H   H1042     1.0  0.55231  0.92743  0.46206  1.0000
  C   C867      1.0  0.50497  0.71844  0.26290  1.0000
  H   H1043     1.0  0.99786  0.98132  0.16204  1.0000
  C   C868      1.0  0.70225  0.71295  0.03465  1.0000
  H   H1044     1.0  0.50084  0.78260  0.18199  1.0000
  H   H1045     1.0  0.88711  0.66809  0.09817  1.0000
  H   H1046     1.0  0.90734  0.70907  0.43562  1.0000
  C   C869      1.0  0.68248  0.71692  0.01313  1.0000
  H   H1047     1.0  0.74428  0.79438  0.46783  1.0000
  H   H1048     1.0  0.53350  0.99240  0.07887  1.0000
  H   H1049     1.0  0.67358  0.73703  0.47149  1.0000
  C   C870      1.0  0.68879  0.74989  0.47150  1.0000
  C   C871      1.0  0.52723  0.99343  0.05386  1.0000
  H   H1050     1.0  0.66375  0.71867  0.02253  1.0000
  C   C872      1.0  0.92668  0.73579  0.46406  1.0000
  C   C873      1.0  0.99811  0.98289  0.27700  1.0000
  Fe  Fe116     1.0  0.99932  0.93301  0.09976  1.0000
  H   H1051     1.0  0.99634  0.98236  0.11857  1.0000
  H   H1052     1.0  0.49993  0.98364  0.16134  1.0000
  C   C874      1.0  0.98758  0.99508  0.01592  1.0000
  C   C875      1.0  0.92870  0.76048  0.47199  1.0000
  Fe  Fe117     1.0  0.85507  0.72023  0.54178  1.0000
  H   H1053     1.0  0.76380  0.69919  0.79193  1.0000
  S   S233      1.0  0.87608  0.68399  0.53576  1.0000
  Fe  Fe118     1.0  0.81954  0.75695  0.57217  1.0000
  S   S234      1.0  0.82683  0.78509  0.53304  1.0000
  S   S235      1.0  0.79241  0.77265  0.60934  1.0000
  H   H1054     1.0  0.71130  0.76303  0.56473  1.0000
  C   C876      1.0  0.89568  0.66843  0.56403  1.0000
  Fe  Fe119     1.0  0.86687  0.77503  0.53914  1.0000
  S   S236      1.0  0.89856  0.80241  0.53305  1.0000
  S   S237      1.0  0.81357  0.72622  0.53623  1.0000
  S   S238      1.0  0.86024  0.74891  0.58075  1.0000
  H   H1055     1.0  0.76451  0.74654  0.55649  1.0000
  S   S239      1.0  0.95506  0.86492  0.64208  1.0000
  S   S240      1.0  0.97958  0.93269  0.63832  1.0000
  Fe  Fe120     1.0  0.51919  0.93340  0.61859  1.0000
  S   S241      1.0  0.54101  0.94006  0.66474  1.0000
  S   S242      1.0  0.53036  0.95696  0.57356  1.0000
  H   H1056     1.0  0.98089  0.98610  0.49615  1.0000
  C   C877      1.0  0.50073  0.99505  0.65035  1.0000
  S   S243      1.0  0.86361  0.74606  0.50045  1.0000
  Fe  Fe121     1.0  0.54480  0.89896  0.66921  1.0000
  S   S244      1.0  0.58347  0.88399  0.68056  1.0000
  S   S245      1.0  0.52523  0.89225  0.62148  1.0000
  Fe  Fe122     1.0  0.64841  0.76173  0.76378  1.0000
  S   S246      1.0  0.64687  0.73939  0.81021  1.0000
  S   S247      1.0  0.61533  0.78840  0.76126  1.0000
  Fe  Fe123     1.0  0.68983  0.72842  0.73703  1.0000
  S   S248      1.0  0.68940  0.70365  0.78128  1.0000
  S   S249      1.0  0.71604  0.71409  0.69787  1.0000
  Fe  Fe124     1.0  0.64778  0.70647  0.77701  1.0000
  H   H1057     1.0  0.75290  0.80712  0.52105  1.0000
  Fe  Fe125     1.0  0.68882  0.73874  0.81023  1.0000
  S   S250      1.0  0.71377  0.74953  0.85435  1.0000
  S   S251      1.0  0.64838  0.72866  0.73098  1.0000
  S   S252      1.0  0.69036  0.76362  0.76575  1.0000
  H   H1058     1.0  0.73971  0.72040  0.80137  1.0000
  C   C878      1.0  0.97721  0.73675  0.59136  1.0000
  H   H1059     1.0  0.51808  0.70426  0.62443  1.0000
  C   C879      1.0  0.52112  0.98094  0.54584  1.0000
  H   H1060     1.0  0.95446  0.68311  0.56104  1.0000
  H   H1061     1.0  0.71511  0.79472  0.55380  1.0000
  H   H1062     1.0  0.76267  0.73981  0.51340  1.0000
  H   H1063     1.0  0.57186  0.68171  0.70809  1.0000
  H   H1064     1.0  0.93961  0.93604  0.68728  1.0000
  C   C880      1.0  0.72517  0.77714  0.55802  1.0000
  H   H1065     1.0  0.50669  0.98386  0.67176  1.0000
  C   C881      1.0  0.59157  0.85638  0.70128  1.0000
  C   C882      1.0  0.57441  0.84339  0.72016  1.0000
  C   C883      1.0  0.58206  0.82253  0.73804  1.0000
  C   C884      1.0  0.60678  0.81414  0.73688  1.0000
  C   C885      1.0  0.62384  0.82692  0.71761  1.0000
  C   C886      1.0  0.61629  0.84806  0.70020  1.0000
  H   H1066     1.0  0.55537  0.84957  0.72137  1.0000
  H   H1067     1.0  0.56874  0.81283  0.75298  1.0000
  H   H1068     1.0  0.64293  0.82081  0.71661  1.0000
  H   H1069     1.0  0.62975  0.85803  0.68580  1.0000
  C   C887      1.0  0.77707  0.73022  0.92804  1.0000
  C   C888      1.0  0.76512  0.75310  0.92846  1.0000
  C   C889      1.0  0.74593  0.75854  0.90588  1.0000
  C   C890      1.0  0.73814  0.74131  0.88247  1.0000
  C   C891      1.0  0.75005  0.71840  0.88208  1.0000
  C   C892      1.0  0.76927  0.71297  0.90462  1.0000
  H   H1070     1.0  0.77059  0.76663  0.94624  1.0000
  H   H1071     1.0  0.73697  0.77632  0.90665  1.0000
  H   H1072     1.0  0.74435  0.70476  0.86457  1.0000
  H   H1073     1.0  0.77809  0.69512  0.90405  1.0000
  C   C893      1.0  0.77069  0.75608  0.63280  1.0000
  C   C894      1.0  0.76943  0.73057  0.63151  1.0000
  C   C895      1.0  0.75243  0.71803  0.65152  1.0000
  C   C896      1.0  0.73655  0.73088  0.67281  1.0000
  C   C897      1.0  0.73755  0.75644  0.67371  1.0000
  C   C898      1.0  0.75462  0.76898  0.65379  1.0000
  H   H1074     1.0  0.78179  0.72045  0.61557  1.0000
  H   H1075     1.0  0.75172  0.69824  0.65074  1.0000
  H   H1076     1.0  0.72524  0.76651  0.68977  1.0000
  H   H1077     1.0  0.75552  0.78876  0.65484  1.0000
  C   C899      1.0  0.91415  0.81932  0.56396  1.0000
  C   C900      1.0  0.93328  0.83536  0.55475  1.0000
  C   C901      1.0  0.94603  0.84933  0.57826  1.0000
  C   C902      1.0  0.93981  0.84742  0.61142  1.0000
  C   C903      1.0  0.92079  0.83123  0.62067  1.0000
  C   C904      1.0  0.90803  0.81726  0.59714  1.0000
  H   H1078     1.0  0.93823  0.83713  0.52921  1.0000
  H   H1079     1.0  0.96060  0.86166  0.57069  1.0000
  H   H1080     1.0  0.91581  0.82953  0.64620  1.0000
  H   H1081     1.0  0.89339  0.80500  0.60466  1.0000
  H   H1082     1.0  0.55410  0.90152  0.83107  1.0000
  H   H1083     1.0  0.77174  0.78943  0.54815  1.0000
  H   H1084     1.0  0.74247  0.76285  0.78955  1.0000
  H   H1085     1.0  0.92195  0.71100  0.54215  1.0000
  C   C905      1.0  0.53929  0.73005  0.67642  1.0000
  C   C906      1.0  0.55294  0.74890  0.69081  1.0000
  C   C907      1.0  0.57300  0.74345  0.71097  1.0000
  C   C908      1.0  0.82299  0.70331  0.73204  1.0000
  H   H1086     1.0  0.58367  0.75808  0.72189  1.0000
  H   H1087     1.0  0.77114  0.74813  0.82822  1.0000
  H   H1088     1.0  0.74486  0.75547  0.74707  1.0000
  H   H1089     1.0  0.76747  0.77522  0.76626  1.0000
  C   C909      1.0  0.80987  0.73753  0.69884  1.0000
  H   H1090     1.0  0.74469  0.71102  0.75965  1.0000
  H   H1091     1.0  0.57433  0.98969  0.83970  1.0000
  H   H1092     1.0  0.97608  0.91673  0.71156  1.0000
  H   H1093     1.0  0.73798  0.73152  0.54068  1.0000
  N   N59       1.0  0.57693  0.91841  0.77528  1.0000
  C   C910      1.0  0.55345  0.91004  0.76046  1.0000
  C   C911      1.0  0.59030  0.93299  0.75013  1.0000
  C   C912      1.0  0.59251  0.89663  0.78297  1.0000
  C   C913      1.0  0.57130  0.93227  0.80553  1.0000
  C   C914      1.0  0.55908  0.92064  0.83215  1.0000
  C   C915      1.0  0.57694  0.95753  0.80925  1.0000
  H   H1094     1.0  0.93848  0.72233  0.47593  1.0000
  S   S253      1.0  0.80087  0.72171  0.95689  1.0000
  C   C916      1.0  0.93441  0.96050  0.80408  1.0000
  H   H1095     1.0  0.54091  0.92583  0.75496  1.0000
  H   H1096     1.0  0.55693  0.89999  0.73724  1.0000
  H   H1097     1.0  0.54314  0.89724  0.77660  1.0000
  H   H1098     1.0  0.57905  0.94893  0.74169  1.0000
  H   H1099     1.0  0.59444  0.92193  0.72785  1.0000
  H   H1100     1.0  0.60842  0.93958  0.75945  1.0000
  H   H1101     1.0  0.58276  0.88305  0.79859  1.0000
  H   H1102     1.0  0.59805  0.88651  0.76039  1.0000
  H   H1103     1.0  0.60979  0.90201  0.79581  1.0000
  H   H1104     1.0  0.83480  0.68738  0.73549  1.0000
  H   H1105     1.0  0.58606  0.96809  0.79047  1.0000
  H   H1106     1.0  0.90924  0.92503  0.69685  1.0000
  H   H1107     1.0  0.97315  0.89480  0.74390  1.0000
  H   H1108     1.0  0.69912  0.74134  0.52038  1.0000
  N   N60       1.0  0.93835  0.90820  0.72509  1.0000
  C   C917      1.0  0.92903  0.91947  0.69440  1.0000
  C   C918      1.0  0.92188  0.92171  0.78079  1.0000
  H   H1109     1.0  0.81147  0.74818  0.67645  1.0000
  C   C919      1.0  0.93625  0.92607  0.75217  1.0000
  C   C920      1.0  0.94931  0.94856  0.75062  1.0000
  C   C921      1.0  0.50589  0.97916  0.75384  1.0000
  H   H1110     1.0  0.92370  0.75522  0.55447  1.0000
  H   H1111     1.0  0.63440  0.66642  0.71672  1.0000
  C   C922      1.0  0.52364  0.73501  0.76984  1.0000
  H   H1112     1.0  0.95888  0.77186  0.58553  1.0000
  C   C923      1.0  0.92104  0.93878  0.80627  1.0000
  H   H1113     1.0  0.93052  0.90657  0.67337  1.0000
  C   C924      1.0  0.95623  0.70233  0.56677  1.0000
  C   C925      1.0  0.96474  0.90124  0.72057  1.0000
  H   H1114     1.0  0.99197  0.74526  0.60485  1.0000
  H   H1115     1.0  0.90403  0.88893  0.73304  1.0000
  H   H1116     1.0  0.52121  0.67360  0.78185  1.0000
  H   H1117     1.0  0.92640  0.87239  0.70950  1.0000
  C   C926      1.0  0.75424  0.71592  0.78287  1.0000
  Fe  Fe126     1.0  0.82265  0.75415  0.49728  1.0000
  C   C927      1.0  0.56599  0.70021  0.70277  1.0000
  C   C928      1.0  0.57939  0.71913  0.71712  1.0000
  C   C929      1.0  0.54564  0.70500  0.68179  1.0000
  H   H1118     1.0  0.59488  0.71488  0.73311  1.0000
  C   C930      1.0  0.95830  0.75238  0.58029  1.0000
  C   C931      1.0  0.72409  0.76864  0.49964  1.0000
  S   S254      1.0  0.51052  0.89501  0.70016  1.0000
  C   C932      1.0  0.51770  0.93688  0.48476  1.0000
  H   H1119     1.0  0.88389  0.68844  0.60659  1.0000
  C   C933      1.0  0.75597  0.75856  0.76961  1.0000
  H   H1120     1.0  0.79384  0.72543  0.81897  1.0000
  C   C934      1.0  0.78431  0.74187  0.80887  1.0000
  N   N61       1.0  0.77136  0.73673  0.77770  1.0000
  H   H1121     1.0  0.78098  0.75991  0.71697  1.0000
  C   C935      1.0  0.80567  0.70984  0.75605  1.0000
  S   S255      1.0  0.99214  0.95880  0.55384  1.0000
  C   C936      1.0  0.53091  0.98282  0.74659  1.0000
  H   H1122     1.0  0.71408  0.71872  0.94128  1.0000
  N   N62       1.0  0.53236  0.68445  0.66619  1.0000
  C   C937      1.0  0.79236  0.74413  0.72256  1.0000
  C   C938      1.0  0.78969  0.73039  0.75199  1.0000
  H   H1123     1.0  0.79839  0.75649  0.80556  1.0000
  H   H1124     1.0  0.55153  0.70705  0.77643  1.0000
  C   C939      1.0  0.93751  0.71815  0.55577  1.0000
  Fe  Fe127     1.0  0.98662  0.89218  0.63347  1.0000
  H   H1125     1.0  0.80472  0.69856  0.77777  1.0000
  H   H1126     1.0  0.91013  0.93509  0.82802  1.0000
  S   S256      1.0  0.61778  0.67726  0.78349  1.0000
  C   C940      1.0  0.70356  0.75249  0.49932  1.0000
  C   C941      1.0  0.55270  0.93355  0.86049  1.0000
  N   N63       1.0  0.74011  0.77018  0.52892  1.0000
  H   H1127     1.0  0.94204  0.76626  0.49015  1.0000
  H   H1128     1.0  0.67143  0.72215  0.96297  1.0000
  H   H1129     1.0  0.55297  0.96847  0.88492  1.0000
  H   H1130     1.0  0.52406  0.73561  0.66101  1.0000
  C   C942      1.0  0.99932  0.99124  0.50371  1.0000
  H   H1131     1.0  0.73703  0.77944  0.58011  1.0000
  C   C943      1.0  0.52196  0.66805  0.69170  1.0000
  C   C944      1.0  0.75178  0.74596  0.53510  1.0000
  C   C945      1.0  0.76033  0.78837  0.52555  1.0000
  H   H1132     1.0  0.97296  0.68133  0.63638  1.0000
  C   C946      1.0  0.98485  0.67393  0.61638  1.0000
  C   C947      1.0  0.97661  0.71108  0.58514  1.0000
  C   C948      1.0  0.55822  0.95836  0.86314  1.0000
  H   H1133     1.0  0.91128  0.90519  0.78421  1.0000
  C   C949      1.0  0.94849  0.96538  0.77628  1.0000
  H   H1134     1.0  0.83833  0.71194  0.68472  1.0000
  H   H1135     1.0  0.55648  0.98118  0.52118  1.0000
  C   C950      1.0  0.57036  0.97027  0.83764  1.0000
  H   H1136     1.0  0.77334  0.78338  0.50540  1.0000
  C   C951      1.0  0.93845  0.74308  0.56267  1.0000
  C   C952      1.0  0.92425  0.88525  0.73056  1.0000
  H   H1137     1.0  0.55859  0.68188  0.62658  1.0000
  H   H1138     1.0  0.53953  0.97295  0.72670  1.0000
  C   C953      1.0  0.82505  0.71711  0.70346  1.0000
  H   H1139     1.0  0.93098  0.87522  0.75258  1.0000
  C   C954      1.0  0.54989  0.67013  0.64565  1.0000
  C   C955      1.0  0.53182  0.71104  0.77481  1.0000
  C   C956      1.0  0.71074  0.71689  0.96738  1.0000
  H   H1140     1.0  0.53711  0.74961  0.76746  1.0000
  H   H1141     1.0  0.52128  0.92610  0.50661  1.0000
  Fe  Fe128     1.0  0.50504  0.93529  0.69140  1.0000
  H   H1142     1.0  0.50893  0.67815  0.70799  1.0000
  C   C957      1.0  0.53816  0.98930  0.52213  1.0000
  H   H1143     1.0  0.91012  0.66425  0.64499  1.0000
  H   H1144     1.0  0.96710  0.88635  0.70229  1.0000
  C   C958      1.0  0.51467  0.69222  0.77796  1.0000
  N   N64       1.0  0.99613  0.69388  0.59668  1.0000
  C   C959      1.0  0.89579  0.67399  0.59740  1.0000
  H   H1145     1.0  0.99620  0.67187  0.55277  1.0000
  H   H1146     1.0  0.96066  0.95317  0.72969  1.0000
  H   H1147     1.0  0.54814  0.76793  0.68615  1.0000
  H   H1148     1.0  0.54321  0.92438  0.88043  1.0000
  C   C960      1.0  0.51155  0.69241  0.64486  1.0000
  H   H1149     1.0  0.50268  0.98352  0.62803  1.0000
  H   H1150     1.0  0.93400  0.97357  0.82400  1.0000
  H   H1151     1.0  0.95913  0.98218  0.77471  1.0000
  H   H1152     1.0  0.50220  0.67647  0.63333  1.0000
