data_image0
_chemical_formula_structural       FeSFeSFeSC2SCSHC3HNHCHC3H3CSC6H4C2H5CHSH8CHCSC2FeH3CH4CH5C3HSH3SHFeSFeS2FeSFeHS2CH2CHCHSC6H4CH2C2HCH2NH3CH3CH2FeC2H3CH2CH3C2NCH2CH2CSC2SC2FeSCFeS2FeSFeS3HC5H3C2HCHCHCH2C7H3C3H3C2H2CH8NHCHCH4CSH2C3HC2HCHC2H2C2HC3HCHC2H2C2H2CH2NCHC2HNCH3CFeS2FeS2FeSC2SHS2C6H4C3HCH3SHCHCH5SHC3H5FeHFeH3C3HCHNC5HCHFeCHCH2CH2CH3FeC3HNSHC2HC3HCHC2HSCHNSH4CHFeSFeS2FeHFeHS2FeCSFeS2C6H5SFeCH2C2HCH2CNCNH2SH6C4H3C2H2CH3CH2SHS2NH2CHCHCHFeC3H2C3SC2HC2H2C2FeS2Fe2S2C2HS2H2CH2NCH2CHC4H4C3H2CHC3SCH3C2HCSH3CHC2HFeC4HCH2SNC8H11CHC2H4CSH4CH3CH2SH2CHCHCFeSFeS2FeSFeS3C2SH2CH4C6H4C6H5C2FeHNCSC6HCHCH6CHCH4C3SCH3C2HNCNCH6CHC2HCH5C2HC2SHCFeCHC2HCHCH3CH2C2FeHFeS2Fe2S2H2SHCH2CHC6H4SHCH2C3HNCH2C2H6C2HC2H3CHCSHCHNH4CSCSCH3C3H2NCH3CHC2H4CHC3HCNHFeS2FeSHS2FeHSH4C6H4CH2FeH3CHCH5C2H5SHFeS2FeSHFeSFeS3CHC4H3CHCH2CH2CHC2HSC3NCH2C4H6CH2SH3CHC3H3CH2C3HCHCHCH2C4H2NC2HCHC2HCHNH2C7H2CSHCH2CHC3HFeSFeS2FeSFeS3CSCSHCHCH2C2H2C2H3SC4H2C2HCH3C3H2CH6CHCNHCH3SH2NC9H16C2FeC5HNHCNC2H6CHC2SCHCHSCFeCH4C2FeH2CSFeSHFe2S2FeS2FeS2C6H4CH2SHC6H6CHCFeC3H2SHC2NHCH2CH2SC2SHC2H2CH2C2H5CH2SH2NFeHC3HCHNH8C5NH4CHC
_chemical_formula_sum              "Fe64 S128 C480 H576 N32"
_cell_length_a       38.2517
_cell_length_b       38.45
_cell_length_c       32.4793
_cell_angle_alpha    89.5254
_cell_angle_beta     89.4784
_cell_angle_gamma    90.6085

_space_group_name_H-M_alt    "P 1"
_space_group_IT_number       1

loop_
  _space_group_symop_operation_xyz
  'x, y, z'

loop_
  _atom_site_type_symbol
  _atom_site_label
  _atom_site_symmetry_multiplicity
  _atom_site_fract_x
  _atom_site_fract_y
  _atom_site_fract_z
  _atom_site_occupancy
  Fe  Fe1       1.0  0.10240  0.25714  0.29571  1.0000
  S   S1        1.0  0.11224  0.22681  0.35402  1.0000
  Fe  Fe2       1.0  0.06675  0.19359  0.33542  1.0000
  S   S2        1.0  0.05910  0.13676  0.34919  1.0000
  Fe  Fe3       1.0  0.07138  0.26127  0.38150  1.0000
  S   S3        1.0  0.06023  0.22026  0.27455  1.0000
  C   C1        1.0  0.17562  0.32228  0.20225  1.0000
  C   C2        1.0  0.10039  0.19262  0.47203  1.0000
  S   S4        1.0  0.07536  0.27729  0.44740  1.0000
  C   C3        1.0  0.17914  0.12631  0.37719  1.0000
  S   S5        1.0  0.17674  0.03825  0.28015  1.0000
  H   H1        1.0  0.29836  0.32479  0.18415  1.0000
  C   C4        1.0  0.15558  0.31449  0.23763  1.0000
  C   C5        1.0  0.14249  0.13527  0.43716  1.0000
  C   C6        1.0  0.15317  0.17069  0.43964  1.0000
  H   H2        1.0  0.12915  0.33587  0.29034  1.0000
  N   N1        1.0  0.13920  0.19312  0.47272  1.0000
  H   H3        1.0  0.08909  0.21109  0.49472  1.0000
  C   C7        1.0  0.17769  0.18285  0.40945  1.0000
  H   H4        1.0  0.18415  0.30142  0.18249  1.0000
  C   C8        1.0  0.21749  0.06163  0.45886  1.0000
  C   C9        1.0  0.22059  0.02721  0.44570  1.0000
  C   C10       1.0  0.19031  0.16084  0.37874  1.0000
  H   H5        1.0  0.17967  0.23275  0.47235  1.0000
  H   H6        1.0  0.21506  0.08228  0.43636  1.0000
  H   H7        1.0  0.22040  0.02154  0.41315  1.0000
  C   C11       1.0  0.15508  0.11362  0.40612  1.0000
  S   S6        1.0  0.14503  0.27075  0.24925  1.0000
  C   C12       1.0  0.09092  0.10965  0.32770  1.0000
  C   C13       1.0  0.08956  0.07398  0.33656  1.0000
  C   C14       1.0  0.11525  0.05188  0.32084  1.0000
  C   C15       1.0  0.14261  0.06535  0.29647  1.0000
  C   C16       1.0  0.14320  0.10086  0.28626  1.0000
  C   C17       1.0  0.11747  0.12308  0.30207  1.0000
  H   H8        1.0  0.06870  0.06337  0.35569  1.0000
  H   H9        1.0  0.11372  0.02433  0.32737  1.0000
  H   H10       1.0  0.16417  0.11138  0.26718  1.0000
  H   H11       1.0  0.11855  0.15061  0.29496  1.0000
  C   C18       1.0  0.09968  0.01040  0.46496  1.0000
  C   C19       1.0  0.01669  0.07560  0.26642  1.0000
  H   H12       1.0  0.18751  0.20924  0.40878  1.0000
  H   H13       1.0  0.34969  0.32129  0.22115  1.0000
  H   H14       1.0  0.13893  0.24638  0.49370  1.0000
  H   H15       1.0  0.18926  0.10922  0.35361  1.0000
  H   H16       1.0  0.12332  0.02287  0.45068  1.0000
  C   C20       1.0  0.05647  0.30635  0.21450  1.0000
  H   H17       1.0  0.14279  0.24177  0.43934  1.0000
  S   S7        1.0  0.02669  0.22577  0.36722  1.0000
  H   H18       1.0  0.25938  0.29496  0.26240  1.0000
  H   H19       1.0  0.03488  0.29471  0.23331  1.0000
  H   H20       1.0  0.14663  0.08667  0.40469  1.0000
  H   H21       1.0  0.20894  0.17055  0.35597  1.0000
  H   H22       1.0  0.25244  0.32568  0.19461  1.0000
  H   H23       1.0  0.30429  0.29112  0.24885  1.0000
  H   H24       1.0  0.07807  0.33508  0.14422  1.0000
  H   H25       1.0  0.29241  0.31025  0.29724  1.0000
  C   C21       1.0  0.03337  0.27984  0.46930  1.0000
  H   H26       1.0  0.02020  0.13059  0.27032  1.0000
  C   C22       1.0  0.21783  0.06952  0.50083  1.0000
  S   S8        1.0  0.06519  0.29473  0.32501  1.0000
  C   C23       1.0  0.28525  0.30852  0.26416  1.0000
  C   C24       1.0  0.15084  0.23004  0.46918  1.0000
  Fe  Fe4       1.0  0.02385  0.25556  0.30816  1.0000
  H   H27       1.0  0.09066  0.20036  0.44110  1.0000
  H   H28       1.0  0.06068  0.28857  0.18809  1.0000
  H   H29       1.0  0.12471  0.12390  0.45956  1.0000
  C   C25       1.0  0.48425  0.33607  0.04466  1.0000
  H   H30       1.0  0.01610  0.32641  0.15058  1.0000
  H   H31       1.0  0.01598  0.08819  0.40140  1.0000
  H   H32       1.0  0.08038  0.03122  0.47090  1.0000
  H   H33       1.0  0.08048  0.30568  0.23348  1.0000
  C   C26       1.0  0.02794  0.27093  0.51078  1.0000
  H   H34       1.0  0.08915  0.16666  0.47972  1.0000
  H   H35       1.0  0.04483  0.07281  0.26367  1.0000
  H   H36       1.0  0.00932  0.29772  0.41344  1.0000
  H   H37       1.0  0.00646  0.02058  0.26322  1.0000
  H   H38       1.0  0.15303  0.02527  0.51150  1.0000
  C   C27       1.0  0.20625  0.26759  0.68655  1.0000
  C   C28       1.0  0.15105  0.02331  0.67314  1.0000
  C   C29       1.0  0.33172  0.28585  0.93788  1.0000
  H   H39       1.0  0.17918  0.29521  0.61954  1.0000
  S   S9        1.0  0.40898  0.30267  0.84569  1.0000
  H   H40       1.0  0.09194  0.06946  0.64687  1.0000
  H   H41       1.0  0.21995  0.30115  0.59099  1.0000
  H   H42       1.0  0.21946  0.26718  0.71680  1.0000
  S   S10       1.0  0.31128  0.30415  0.79921  1.0000
  H   H43       1.0  0.06121  0.03476  0.64236  1.0000
  Fe  Fe5       1.0  0.17880  0.10636  0.66677  1.0000
  S   S11       1.0  0.15286  0.12664  0.61006  1.0000
  Fe  Fe6       1.0  0.23995  0.15681  0.65961  1.0000
  S   S12       1.0  0.21922  0.18049  0.60157  1.0000
  S   S13       1.0  0.29322  0.17577  0.67988  1.0000
  Fe  Fe7       1.0  0.16744  0.17909  0.63391  1.0000
  S   S14       1.0  0.13267  0.22483  0.62268  1.0000
  Fe  Fe8       1.0  0.20662  0.12598  0.58257  1.0000
  H   H44       1.0  0.27658  0.28727  0.62551  1.0000
  S   S15       1.0  0.18861  0.15943  0.69384  1.0000
  S   S16       1.0  0.23203  0.10184  0.63753  1.0000
  C   C30       1.0  0.23073  0.32441  0.67036  1.0000
  H   H45       1.0  0.03197  0.07284  0.73976  1.0000
  H   H46       1.0  0.04572  0.03395  0.71431  1.0000
  C   C31       1.0  0.22245  0.04281  0.52980  1.0000
  H   H47       1.0  0.47258  0.31400  0.92901  1.0000
  C   C32       1.0  0.06250  0.23684  0.62821  1.0000
  H   H48       1.0  0.14231  0.15264  0.51916  1.0000
  S   S17       1.0  0.14889  0.06323  0.69908  1.0000
  C   C33       1.0  0.30804  0.26612  0.76941  1.0000
  C   C34       1.0  0.27576  0.24845  0.76771  1.0000
  C   C35       1.0  0.27110  0.22008  0.74116  1.0000
  C   C36       1.0  0.29878  0.20918  0.71621  1.0000
  C   C37       1.0  0.33138  0.22613  0.71892  1.0000
  C   C38       1.0  0.33601  0.25460  0.74536  1.0000
  H   H49       1.0  0.25413  0.25710  0.78655  1.0000
  H   H50       1.0  0.24608  0.20680  0.73975  1.0000
  H   H51       1.0  0.35297  0.21768  0.69983  1.0000
  H   H52       1.0  0.36099  0.26804  0.74644  1.0000
  C   C39       1.0  0.06369  0.06357  0.64237  1.0000
  H   H53       1.0  0.05667  0.07347  0.61128  1.0000
  H   H54       1.0  0.17961  0.27824  0.69162  1.0000
  C   C40       1.0  0.09139  0.22113  0.64656  1.0000
  C   C41       1.0  0.08712  0.20322  0.68396  1.0000
  H   H55       1.0  0.26289  0.31015  0.72309  1.0000
  C   C42       1.0  0.02924  0.23398  0.64661  1.0000
  H   H56       1.0  0.25825  0.24492  0.63728  1.0000
  H   H57       1.0  0.10944  0.19145  0.69857  1.0000
  N   N2        1.0  0.04166  0.07953  0.67477  1.0000
  H   H58       1.0  0.04909  0.13097  0.64829  1.0000
  H   H59       1.0  0.14071  0.19589  0.53909  1.0000
  H   H60       1.0  0.20298  0.24000  0.67692  1.0000
  C   C43       1.0  0.17755  0.01705  0.64429  1.0000
  H   H61       1.0  0.06583  0.25111  0.59959  1.0000
  H   H62       1.0  0.00706  0.24600  0.63209  1.0000
  H   H63       1.0  0.20431  0.25868  0.60533  1.0000
  C   C44       1.0  0.05407  0.20154  0.70320  1.0000
  H   H64       1.0  0.05101  0.18845  0.73264  1.0000
  H   H65       1.0  0.04976  0.26280  0.52930  1.0000
  Fe  Fe9       1.0  0.36366  0.32889  0.81466  1.0000
  C   C45       1.0  0.28385  0.30818  0.89826  1.0000
  C   C46       1.0  0.22627  0.00826  0.51650  1.0000
  H   H66       1.0  0.22312  0.04874  0.56227  1.0000
  H   H67       1.0  0.34817  0.31493  0.98916  1.0000
  H   H68       1.0  0.11483  0.03794  0.53947  1.0000
  C   C47       1.0  0.04924  0.06266  0.71496  1.0000
  H   H69       1.0  0.07684  0.06731  0.72444  1.0000
  H   H70       1.0  0.31146  0.26146  0.88348  1.0000
  C   C48       1.0  0.26068  0.27219  0.64843  1.0000
  H   H71       1.0  0.19714  0.03673  0.63773  1.0000
  H   H72       1.0  0.27635  0.27048  0.67692  1.0000
  H   H73       1.0  0.08043  0.11963  0.68631  1.0000
  C   C49       1.0  0.05230  0.11668  0.67795  1.0000
  C   C50       1.0  0.30905  0.28291  0.90478  1.0000
  N   N3        1.0  0.22603  0.28837  0.65534  1.0000
  C   C51       1.0  0.02499  0.21639  0.68419  1.0000
  H   H74       1.0  0.26671  0.30604  0.87196  1.0000
  H   H75       1.0  0.17997  0.18023  0.51502  1.0000
  C   C52       1.0  0.20659  0.28606  0.61603  1.0000
  H   H76       1.0  0.03700  0.13008  0.70234  1.0000
  H   H77       1.0  0.35178  0.26650  0.94243  1.0000
  C   C53       1.0  0.32942  0.31415  0.96452  1.0000
  S   S18       1.0  0.49085  0.32739  0.76841  1.0000
  C   C54       1.0  0.12988  0.01504  0.52898  1.0000
  C   C55       1.0  0.47583  0.32029  0.96117  1.0000
  S   S19       1.0  0.21121  0.11290  0.51544  1.0000
  C   C56       1.0  0.25086  0.33100  0.70607  1.0000
  C   C57       1.0  0.15090  0.17991  0.51324  1.0000
  Fe  Fe10      1.0  0.25349  0.46362  0.07614  1.0000
  S   S20       1.0  0.23307  0.49382  0.13020  1.0000
  C   C58       1.0  0.23914  0.54093  0.01438  1.0000
  Fe  Fe11      1.0  0.29828  0.41732  0.12908  1.0000
  S   S21       1.0  0.28249  0.44315  0.18765  1.0000
  S   S22       1.0  0.33593  0.37328  0.12471  1.0000
  Fe  Fe12      1.0  0.22825  0.44144  0.16196  1.0000
  S   S23       1.0  0.18357  0.42772  0.20565  1.0000
  Fe  Fe13      1.0  0.28876  0.49286  0.15165  1.0000
  S   S24       1.0  0.32083  0.53579  0.17963  1.0000
  S   S25       1.0  0.24365  0.41132  0.10596  1.0000
  S   S26       1.0  0.30948  0.46695  0.09516  1.0000
  H   H78       1.0  0.46161  0.35820  0.14475  1.0000
  C   C59       1.0  0.14442  0.34156  0.26286  1.0000
  C   C60       1.0  0.31060  0.57816  0.16354  1.0000
  C   C61       1.0  0.28503  0.58422  0.13388  1.0000
  C   C62       1.0  0.27861  0.61831  0.12020  1.0000
  C   C63       1.0  0.32981  0.60619  0.17923  1.0000
  H   H79       1.0  0.27013  0.56273  0.12155  1.0000
  H   H80       1.0  0.25851  0.62296  0.09765  1.0000
  H   H81       1.0  0.34931  0.60167  0.20254  1.0000
  C   C64       1.0  0.17334  0.38397  0.21738  1.0000
  C   C65       1.0  0.15345  0.37615  0.25282  1.0000
  H   H82       1.0  0.41727  0.58582  0.22002  1.0000
  C   C66       1.0  0.36835  0.60551  0.06834  1.0000
  H   H83       1.0  0.43329  0.35900  0.04071  1.0000
  C   C67       1.0  0.50358  0.57525  0.19717  1.0000
  H   H84       1.0  0.14510  0.39697  0.27273  1.0000
  C   C68       1.0  0.01968  0.37901  0.30403  1.0000
  H   H85       1.0  0.40106  0.64363  0.12451  1.0000
  H   H86       1.0  0.19943  0.36276  0.16443  1.0000
  C   C69       1.0  0.37763  0.38676  0.14038  1.0000
  C   C70       1.0  0.40643  0.36510  0.13452  1.0000
  C   C71       1.0  0.43956  0.37524  0.14872  1.0000
  C   C72       1.0  0.44376  0.40688  0.16910  1.0000
  C   C73       1.0  0.41506  0.42876  0.17428  1.0000
  C   C74       1.0  0.38208  0.41881  0.15974  1.0000
  C   C75       1.0  0.43591  0.49428  0.08305  1.0000
  H   H87       1.0  0.41806  0.45303  0.19050  1.0000
  H   H88       1.0  0.35989  0.43548  0.16480  1.0000
  H   H89       1.0  0.41649  0.52285  0.20523  1.0000
  C   C76       1.0  0.18436  0.35694  0.19201  1.0000
  C   C77       1.0  0.04670  0.36539  0.23720  1.0000
  C   C78       1.0  0.45421  0.51771  0.05766  1.0000
  H   H90       1.0  0.40312  0.34032  0.11939  1.0000
  H   H91       1.0  0.40991  0.40694  0.26504  1.0000
  H   H92       1.0  0.35041  0.59190  0.09033  1.0000
  C   C79       1.0  0.44465  0.55280  0.05599  1.0000
  C   C80       1.0  0.02182  0.35828  0.26897  1.0000
  H   H93       1.0  0.33914  0.66154  0.17696  1.0000
  H   H94       1.0  0.47261  0.61943  0.21512  1.0000
  C   C81       1.0  0.44122  0.57296  0.21093  1.0000
  H   H95       1.0  0.25787  0.35264  0.01767  1.0000
  H   H96       1.0  0.43782  0.61575  0.13181  1.0000
  H   H97       1.0  0.07213  0.37953  0.15812  1.0000
  H   H98       1.0  0.41764  0.65232  0.05270  1.0000
  H   H99       1.0  0.08843  0.40282  0.21991  1.0000
  H   H100      1.0  0.39300  0.48759  0.12578  1.0000
  H   H101      1.0  0.08378  0.43788  0.28096  1.0000
  H   H102      1.0  0.32109  0.34871  0.04024  1.0000
  N   N4        1.0  0.40562  0.60232  0.08012  1.0000
  H   H103      1.0  0.23659  0.59684  0.01774  1.0000
  C   C82       1.0  0.47179  0.52073  0.19144  1.0000
  H   H104      1.0  0.47031  0.49299  0.18669  1.0000
  C   C83       1.0  0.42653  0.62488  0.05163  1.0000
  H   H105      1.0  0.32401  0.39512  0.03915  1.0000
  H   H106      1.0  0.29908  0.40968  0.27854  1.0000
  H   H107      1.0  0.44342  0.46714  0.08459  1.0000
  H   H108      1.0  0.04045  0.42345  0.33575  1.0000
  C   C84       1.0  0.40759  0.50571  0.10626  1.0000
  S   S27       1.0  0.48427  0.41928  0.18947  1.0000
  H   H109      1.0  0.35596  0.43667  0.28743  1.0000
  H   H110      1.0  0.37592  0.54807  0.12379  1.0000
  C   C85       1.0  0.32409  0.64010  0.16476  1.0000
  C   C86       1.0  0.29827  0.64628  0.13550  1.0000
  C   C87       1.0  0.39779  0.54055  0.10472  1.0000
  H   H111      1.0  0.39463  0.60135  0.14559  1.0000
  C   C88       1.0  0.06872  0.39508  0.24231  1.0000
  C   C89       1.0  0.32153  0.39504  0.26867  1.0000
  H   H112      1.0  0.24261  0.53746  0.04717  1.0000
  C   C90       1.0  0.41605  0.56530  0.07978  1.0000
  H   H113      1.0  0.45465  0.62565  0.06026  1.0000
  C   C91       1.0  0.35422  0.41099  0.27400  1.0000
  C   C92       1.0  0.44086  0.53751  0.20255  1.0000
  H   H114      1.0  0.36360  0.59456  0.03729  1.0000
  H   H115      1.0  0.42407  0.61640  0.01910  1.0000
  C   C93       1.0  0.04197  0.40759  0.30837  1.0000
  C   C94       1.0  0.40997  0.61624  0.12220  1.0000
  H   H116      1.0  0.37545  0.45525  0.04599  1.0000
  C   C95       1.0  0.38462  0.39433  0.26147  1.0000
  C   C96       1.0  0.06633  0.41567  0.27751  1.0000
  C   C97       1.0  0.32661  0.37152  0.01978  1.0000
  H   H117      1.0  0.00760  0.36931  0.16999  1.0000
  C   C98       1.0  0.50407  0.53917  0.18773  1.0000
  H   H118      1.0  0.35976  0.63315  0.06811  1.0000
  C   C99       1.0  0.38248  0.36192  0.24285  1.0000
  C   C100      1.0  0.47247  0.59179  0.20823  1.0000
  H   H119      1.0  0.46006  0.56960  0.03598  1.0000
  H   H120      1.0  0.48724  0.34199  0.07693  1.0000
  C   C101      1.0  0.45375  0.34576  0.02405  1.0000
  C   C102      1.0  0.31845  0.36165  0.25037  1.0000
  H   H121      1.0  0.40615  0.34966  0.23176  1.0000
  H   H122      1.0  0.27626  0.36539  0.18449  1.0000
  C   C103      1.0  0.27756  0.33962  0.20018  1.0000
  H   H123      1.0  0.47589  0.50854  0.03911  1.0000
  H   H124      1.0  0.24989  0.38783  0.24763  1.0000
  N   N5        1.0  0.04893  0.34241  0.20088  1.0000
  C   C104      1.0  0.25433  0.36232  0.26321  1.0000
  H   H125      1.0  0.25802  0.36673  0.29670  1.0000
  C   C105      1.0  0.37945  0.45838  0.01306  1.0000
  C   C106      1.0  0.07672  0.35303  0.17090  1.0000
  H   H126      1.0  0.10305  0.35265  0.18529  1.0000
  N   N6        1.0  0.28440  0.34361  0.24475  1.0000
  C   C107      1.0  0.34995  0.34588  0.23701  1.0000
  H   H127      1.0  0.22944  0.34732  0.26024  1.0000
  H   H128      1.0  0.26491  0.39874  0.02176  1.0000
  H   H129      1.0  0.29321  0.66148  0.03649  1.0000
  C   C108      1.0  0.01506  0.34240  0.17898  1.0000
  Fe  Fe14      1.0  0.31880  0.62727  0.82445  1.0000
  S   S28       1.0  0.29447  0.62264  0.76264  1.0000
  S   S29       1.0  0.37627  0.61993  0.83433  1.0000
  Fe  Fe15      1.0  0.24838  0.62519  0.86828  1.0000
  S   S30       1.0  0.21771  0.62013  0.80963  1.0000
  S   S31       1.0  0.22950  0.62178  0.93407  1.0000
  Fe  Fe16      1.0  0.25958  0.58235  0.79156  1.0000
  S   S32       1.0  0.25513  0.52839  0.76588  1.0000
  C   C109      1.0  0.35013  0.63179  0.67599  1.0000
  C   C110      1.0  0.49219  0.42808  0.75095  1.0000
  S   S33       1.0  0.28666  0.58442  0.85190  1.0000
  H   H130      1.0  0.43505  0.54060  0.75392  1.0000
  S   S34       1.0  0.39905  0.45844  0.80782  1.0000
  S   S35       1.0  0.44531  0.38104  0.85051  1.0000
  C   C111      1.0  0.29519  0.50799  0.77503  1.0000
  C   C112      1.0  0.32514  0.52834  0.78123  1.0000
  C   C113      1.0  0.35705  0.51271  0.78995  1.0000
  C   C114      1.0  0.35917  0.47657  0.79337  1.0000
  C   C115      1.0  0.32938  0.45589  0.78700  1.0000
  C   C116      1.0  0.29737  0.47166  0.77749  1.0000
  H   H131      1.0  0.32390  0.55629  0.77908  1.0000
  H   H132      1.0  0.37994  0.52885  0.79489  1.0000
  H   H133      1.0  0.33093  0.42787  0.78965  1.0000
  H   H134      1.0  0.27421  0.45583  0.77298  1.0000
  C   C117      1.0  0.23189  0.57941  0.95502  1.0000
  C   C118      1.0  0.23048  0.55035  0.92944  1.0000
  C   C119      1.0  0.23320  0.51674  0.94623  1.0000
  H   H135      1.0  0.27186  0.36879  0.74798  1.0000
  C   C120      1.0  0.24091  0.39287  0.70082  1.0000
  H   H136      1.0  0.38126  0.51661  0.87149  1.0000
  H   H137      1.0  0.22650  0.55371  0.89672  1.0000
  H   H138      1.0  0.23185  0.49444  0.92618  1.0000
  S   S36       1.0  0.36062  0.37209  0.86098  1.0000
  H   H139      1.0  0.30356  0.51130  0.87786  1.0000
  C   C121      1.0  0.40226  0.65450  0.81589  1.0000
  H   H140      1.0  0.48508  0.43563  0.71900  1.0000
  C   C122      1.0  0.29983  0.59335  0.66230  1.0000
  H   H141      1.0  0.46792  0.42658  0.77021  1.0000
  H   H142      1.0  0.39174  0.46429  0.89490  1.0000
  H   H143      1.0  0.45018  0.62687  0.82537  1.0000
  H   H144      1.0  0.33910  0.40126  0.94621  1.0000
  H   H145      1.0  0.34322  0.55286  0.96878  1.0000
  S   S37       1.0  0.39683  0.36043  0.77034  1.0000
  H   H146      1.0  0.36540  0.54698  0.70470  1.0000
  C   C123      1.0  0.46149  0.53362  0.76216  1.0000
  C   C124      1.0  0.25600  0.36468  0.72081  1.0000
  C   C125      1.0  0.31775  0.56492  0.67803  1.0000
  H   H147      1.0  0.42489  0.42229  0.93447  1.0000
  H   H148      1.0  0.30502  0.52485  0.96794  1.0000
  H   H149      1.0  0.35398  0.61539  0.92349  1.0000
  H   H150      1.0  0.30486  0.53968  0.68041  1.0000
  H   H151      1.0  0.40341  0.65852  0.72428  1.0000
  Fe  Fe17      1.0  0.39768  0.40091  0.81929  1.0000
  H   H152      1.0  0.38940  0.54641  0.91258  1.0000
  Fe  Fe18      1.0  0.40846  0.34842  0.88849  1.0000
  H   H153      1.0  0.41994  0.65310  0.67246  1.0000
  H   H154      1.0  0.30016  0.64772  0.65013  1.0000
  H   H155      1.0  0.30006  0.47851  0.91735  1.0000
  C   C126      1.0  0.35182  0.56919  0.69200  1.0000
  C   C127      1.0  0.35327  0.64193  0.93432  1.0000
  C   C128      1.0  0.43852  0.65051  0.81396  1.0000
  H   H156      1.0  0.29420  0.40688  0.93230  1.0000
  C   C129      1.0  0.40283  0.43679  0.99278  1.0000
  H   H157      1.0  0.24494  0.41899  0.71239  1.0000
  N   N7        1.0  0.34476  0.51259  0.92297  1.0000
  C   C130      1.0  0.36845  0.53294  0.89514  1.0000
  C   C131      1.0  0.31901  0.49343  0.89765  1.0000
  C   C132      1.0  0.32536  0.53793  0.94855  1.0000
  C   C133      1.0  0.36491  0.48729  0.94763  1.0000
  C   C134      1.0  0.38835  0.46421  0.92796  1.0000
  H   H158      1.0  0.38035  0.66523  0.61267  1.0000
  C   C135      1.0  0.40732  0.43978  0.95034  1.0000
  H   H159      1.0  0.33182  0.47471  0.87652  1.0000
  Fe  Fe19      1.0  0.25526  0.66137  0.78531  1.0000
  C   C136      1.0  0.36077  0.48345  0.99109  1.0000
  H   H160      1.0  0.35412  0.55304  0.87726  1.0000
  C   C137      1.0  0.48444  0.55905  0.77642  1.0000
  H   H161      1.0  0.31046  0.42761  0.97725  1.0000
  H   H162      1.0  0.27300  0.59003  0.65240  1.0000
  C   C138      1.0  0.21534  0.35373  0.65091  1.0000
  H   H163      1.0  0.31096  0.55703  0.92936  1.0000
  H   H164      1.0  0.40328  0.65535  0.90731  1.0000
  C   C139      1.0  0.38093  0.66452  0.92470  1.0000
  H   H165      1.0  0.20863  0.40944  0.65080  1.0000
  H   H166      1.0  0.45282  0.48072  0.74821  1.0000
  H   H167      1.0  0.39396  0.60349  0.70365  1.0000
  Fe  Fe20      1.0  0.44202  0.33795  0.80488  1.0000
  C   C140      1.0  0.36792  0.60204  0.69121  1.0000
  C   C141      1.0  0.47219  0.49906  0.75899  1.0000
  C   C142      1.0  0.22052  0.38739  0.66606  1.0000
  H   H168      1.0  0.19914  0.35138  0.62402  1.0000
  N   N8        1.0  0.30268  0.37230  0.98402  1.0000
  S   S38       1.0  0.41077  0.35038  0.95774  1.0000
  H   H169      1.0  0.34275  0.49890  0.00880  1.0000
  C   C143      1.0  0.23772  0.51193  0.98867  1.0000
  C   C144      1.0  0.31201  0.40338  0.95881  1.0000
  H   H170      1.0  0.24732  0.38184  0.97597  1.0000
  C   C145      1.0  0.23590  0.57459  0.99761  1.0000
  C   C146      1.0  0.31569  0.62630  0.66113  1.0000
  C   C147      1.0  0.40196  0.66850  0.69211  1.0000
  H   H171      1.0  0.26269  0.35644  0.91673  1.0000
  C   C148      1.0  0.26664  0.37635  0.00044  1.0000
  H   H172      1.0  0.30257  0.63571  0.96052  1.0000
  C   C149      1.0  0.44950  0.33796  0.98229  1.0000
  C   C150      1.0  0.30459  0.34088  0.95807  1.0000
  H   H173      1.0  0.47608  0.58580  0.77874  1.0000
  S   S39       1.0  0.24404  0.46956  0.00797  1.0000
  C   C151      1.0  0.32391  0.65395  0.95565  1.0000
  H   H174      1.0  0.25965  0.65498  0.99877  1.0000
  N   N9        1.0  0.36551  0.66733  0.67659  1.0000
  S   S40       1.0  0.28296  0.66935  0.84575  1.0000
  H   H175      1.0  0.50214  0.40098  0.74940  1.0000
  H   H176      1.0  0.41693  0.41706  0.00975  1.0000
  H   H177      1.0  0.35452  0.37074  0.00994  1.0000
  H   H178      1.0  0.50294  0.44264  0.83124  1.0000
  C   C152      1.0  0.28178  0.33692  0.92415  1.0000
  H   H179      1.0  0.24851  0.82839  0.35836  1.0000
  Fe  Fe21      1.0  0.41353  0.72667  0.14746  1.0000
  S   S41       1.0  0.38433  0.71284  0.09052  1.0000
  Fe  Fe22      1.0  0.36833  0.78981  0.16308  1.0000
  S   S42       1.0  0.33564  0.78074  0.10697  1.0000
  S   S43       1.0  0.36028  0.83659  0.20392  1.0000
  Fe  Fe23      1.0  0.33641  0.72480  0.12696  1.0000
  H   H180      1.0  0.26330  0.86294  0.41992  1.0000
  Fe  Fe24      1.0  0.38666  0.76947  0.07524  1.0000
  H   H181      1.0  0.18325  0.90905  0.20954  1.0000
  S   S44       1.0  0.36501  0.73436  0.18574  1.0000
  S   S45       1.0  0.41985  0.78302  0.12945  1.0000
  Fe  Fe25      1.0  0.12953  0.93775  0.36245  1.0000
  C   C153      1.0  0.26341  0.86711  0.14040  1.0000
  S   S46       1.0  0.07749  0.92626  0.39258  1.0000
  Fe  Fe26      1.0  0.19425  0.91237  0.31558  1.0000
  S   S47       1.0  0.20884  0.86568  0.27717  1.0000
  S   S48       1.0  0.17391  0.90381  0.37977  1.0000
  C   C154      1.0  0.31866  0.84328  0.22639  1.0000
  C   C155      1.0  0.29082  0.82028  0.21944  1.0000
  C   C156      1.0  0.25746  0.82728  0.23577  1.0000
  C   C157      1.0  0.25170  0.85714  0.25938  1.0000
  C   C158      1.0  0.27975  0.87968  0.26731  1.0000
  C   C159      1.0  0.31306  0.87284  0.25065  1.0000
  H   H182      1.0  0.29487  0.79738  0.20094  1.0000
  H   H183      1.0  0.23595  0.80962  0.22970  1.0000
  H   H184      1.0  0.27585  0.90241  0.28608  1.0000
  H   H185      1.0  0.33457  0.89060  0.25633  1.0000
  H   H186      1.0  0.23223  0.93497  0.24760  1.0000
  S   S49       1.0  0.22628  0.95704  0.45785  1.0000
  Fe  Fe27      1.0  0.20217  0.95302  0.39518  1.0000
  C   C160      1.0  0.12007  0.85661  0.46158  1.0000
  H   H187      1.0  0.31800  0.86120  0.12579  1.0000
  H   H188      1.0  0.16465  0.95083  0.20159  1.0000
  C   C161      1.0  0.04545  0.90853  0.36024  1.0000
  C   C162      1.0  0.05049  0.90741  0.31755  1.0000
  H   H189      1.0  0.21076  0.97239  0.12676  1.0000
  C   C163      1.0  0.23814  0.84974  0.41833  1.0000
  H   H190      1.0  0.28965  0.96043  0.17238  1.0000
  H   H191      1.0  0.07457  0.91709  0.30397  1.0000
  C   C164      1.0  0.24587  0.92367  0.16816  1.0000
  N   N10       1.0  0.10825  0.99132  0.50350  1.0000
  C   C165      1.0  0.17268  0.81738  0.41281  1.0000
  N   N11       1.0  0.21949  0.94766  0.18531  1.0000
  H   H192      1.0  0.22152  0.86996  0.47539  1.0000
  H   H193      1.0  0.25525  0.97236  0.22783  1.0000
  S   S50       1.0  0.22647  0.95944  0.33228  1.0000
  H   H194      1.0  0.25696  0.84041  0.13282  1.0000
  H   H195      1.0  0.25330  0.68546  0.03790  1.0000
  H   H196      1.0  0.10764  0.83834  0.43966  1.0000
  H   H197      1.0  0.15478  0.96893  0.47754  1.0000
  H   H198      1.0  0.32169  0.72529  0.03831  1.0000
  H   H199      1.0  0.21192  0.87769  0.16019  1.0000
  C   C166      1.0  0.23770  0.88899  0.15632  1.0000
  C   C167      1.0  0.14417  0.80844  0.49948  1.0000
  C   C168      1.0  0.28126  0.93471  0.16336  1.0000
  C   C169      1.0  0.02404  0.89409  0.29222  1.0000
  H   H200      1.0  0.27718  0.73883  0.03878  1.0000
  H   H201      1.0  0.24229  0.99435  0.15822  1.0000
  H   H202      1.0  0.13259  0.78982  0.47728  1.0000
  C   C170      1.0  0.17972  0.83798  0.44796  1.0000
  C   C171      1.0  0.01414  0.89582  0.37759  1.0000
  H   H203      1.0  0.09959  0.86186  0.48529  1.0000
  H   H204      1.0  0.14768  0.80452  0.40908  1.0000
  C   C172      1.0  0.12989  0.96088  0.49303  1.0000
  H   H205      1.0  0.11630  0.94286  0.47169  1.0000
  H   H206      1.0  0.17381  0.92424  0.15789  1.0000
  H   H207      1.0  0.46376  0.71106  0.06926  1.0000
  C   C173      1.0  0.30679  0.91243  0.14794  1.0000
  H   H208      1.0  0.46200  0.79291  0.04619  1.0000
  H   H209      1.0  0.19096  0.79934  0.35364  1.0000
  S   S51       1.0  0.45394  0.68656  0.16361  1.0000
  H   H210      1.0  0.12538  0.88135  0.44460  1.0000
  S   S52       1.0  0.14673  0.94235  0.29643  1.0000
  S   S53       1.0  0.29089  0.68863  0.11712  1.0000
  N   N12       1.0  0.15246  0.84262  0.48012  1.0000
  H   H211      1.0  0.48652  0.75429  0.15039  1.0000
  H   H212      1.0  0.05466  0.95260  0.47064  1.0000
  C   C174      1.0  0.19737  0.81392  0.38107  1.0000
  H   H213      1.0  0.17029  0.89302  0.50049  1.0000
  C   C175      1.0  0.46585  0.79052  0.01332  1.0000
  H   H214      1.0  0.21028  0.97583  0.24153  1.0000
  C   C176      1.0  0.18379  0.93215  0.18851  1.0000
  H   H215      1.0  0.02787  0.89359  0.25919  1.0000
  Fe  Fe28      1.0  0.17734  0.98877  0.31755  1.0000
  C   C177      1.0  0.29786  0.87875  0.13637  1.0000
  C   C178      1.0  0.05051  0.95935  0.50255  1.0000
  C   C179      1.0  0.22992  0.83025  0.38369  1.0000
  H   H216      1.0  0.33392  0.92084  0.14599  1.0000
  H   H217      1.0  0.19705  0.99748  0.17065  1.0000
  C   C180      1.0  0.21734  0.97928  0.15902  1.0000
  C   C181      1.0  0.22982  0.95820  0.22727  1.0000
  C   C182      1.0  0.47814  0.70617  0.04096  1.0000
  S   S54       1.0  0.15635  0.98664  0.38204  1.0000
  C   C183      1.0  0.21361  0.85358  0.45018  1.0000
  C   C184      1.0  0.22482  0.00041  0.47445  1.0000
  H   H218      1.0  0.01533  0.80659  0.44326  1.0000
  C   C185      1.0  0.49765  0.69978  0.15697  1.0000
  C   C186      1.0  0.27369  0.67482  0.01693  1.0000
  H   H219      1.0  0.01030  0.89614  0.41063  1.0000
  H   H220      1.0  0.08887  0.99300  0.44086  1.0000
  C   C187      1.0  0.29937  0.73185  0.01809  1.0000
  C   C188      1.0  0.00824  0.82379  0.50574  1.0000
  Fe  Fe29      1.0  0.08689  0.81943  0.67257  1.0000
  S   S55       1.0  0.11667  0.82457  0.61298  1.0000
  S   S56       1.0  0.10049  0.78182  0.72392  1.0000
  Fe  Fe30      1.0  0.06367  0.83061  0.58442  1.0000
  Fe  Fe31      1.0  0.11346  0.88187  0.62428  1.0000
  S   S57       1.0  0.15824  0.91802  0.60941  1.0000
  S   S58       1.0  0.08740  0.87669  0.68599  1.0000
  C   C189      1.0  0.14718  0.73791  0.76057  1.0000
  C   C190      1.0  0.45975  0.67687  0.79683  1.0000
  H   H221      1.0  0.43219  0.70537  0.00331  1.0000
  S   S59       1.0  0.24621  0.70445  0.73826  1.0000
  S   S60       1.0  0.47140  0.73983  0.75923  1.0000
  H   H222      1.0  0.12757  0.73511  0.78464  1.0000
  H   H223      1.0  0.20089  0.97959  0.60374  1.0000
  C   C191      1.0  0.44235  0.78242  0.94512  1.0000
  H   H224      1.0  0.39977  0.71730  0.92630  1.0000
  H   H225      1.0  0.46528  0.69514  0.93864  1.0000
  N   N13       1.0  0.29056  0.70222  0.99070  1.0000
  C   C192      1.0  0.34397  0.68977  0.70352  1.0000
  H   H226      1.0  0.42019  0.77890  0.92509  1.0000
  H   H227      1.0  0.35931  0.68900  0.80488  1.0000
  C   C193      1.0  0.15454  0.95873  0.63325  1.0000
  H   H228      1.0  0.00656  0.75276  0.56952  1.0000
  C   C194      1.0  0.06913  0.98436  0.56706  1.0000
  C   C195      1.0  0.17964  0.98463  0.62497  1.0000
  C   C196      1.0  0.47622  0.78424  0.92814  1.0000
  C   C197      1.0  0.12728  0.96540  0.66099  1.0000
  H   H229      1.0  0.26121  0.94014  0.81524  1.0000
  H   H230      1.0  0.22992  0.98756  0.53872  1.0000
  H   H231      1.0  0.25715  0.69252  0.93904  1.0000
  H   H232      1.0  0.10753  0.94581  0.66726  1.0000
  C   C198      1.0  0.14044  0.75907  0.72614  1.0000
  C   C199      1.0  0.16592  0.76236  0.69510  1.0000
  C   C200      1.0  0.19809  0.74520  0.69902  1.0000
  H   H233      1.0  0.16090  0.77819  0.66821  1.0000
  H   H234      1.0  0.21778  0.74804  0.67507  1.0000
  C   C201      1.0  0.26500  0.71411  0.95984  1.0000
  H   H235      1.0  0.27614  0.73528  0.93999  1.0000
  C   C202      1.0  0.40852  0.71187  0.78484  1.0000
  C   C203      1.0  0.44478  0.70746  0.78191  1.0000
  C   C204      1.0  0.32177  0.68908  0.96868  1.0000
  S   S61       1.0  0.06388  0.88828  0.59001  1.0000
  C   C205      1.0  0.37894  0.69939  0.93536  1.0000
  H   H236      1.0  0.39698  0.73580  0.77400  1.0000
  H   H237      1.0  0.19903  0.83933  0.78825  1.0000
  H   H238      1.0  0.20491  0.91991  0.68070  1.0000
  C   C206      1.0  0.34967  0.71168  0.95650  1.0000
  C   C207      1.0  0.03831  0.97194  0.58586  1.0000
  H   H239      1.0  0.22477  0.97809  0.69909  1.0000
  C   C208      1.0  0.01373  0.95335  0.56323  1.0000
  S   S62       1.0  0.03361  0.82092  0.64320  1.0000
  H   H240      1.0  0.47996  0.78210  0.89521  1.0000
  H   H241      1.0  0.24150  0.88172  0.79910  1.0000
  H   H242      1.0  0.34909  0.73923  0.96233  1.0000
  C   C209      1.0  0.47903  0.69719  0.96760  1.0000
  H   H243      1.0  0.37903  0.70846  0.63349  1.0000
  C   C210      1.0  0.24419  0.96271  0.75827  1.0000
  C   C211      1.0  0.50499  0.78994  0.95358  1.0000
  H   H244      1.0  0.31679  0.69287  0.69221  1.0000
  Fe  Fe32      1.0  0.03736  0.87902  0.65078  1.0000
  C   C212      1.0  0.43706  0.78525  0.98774  1.0000
  C   C213      1.0  0.38725  0.68547  0.80220  1.0000
  C   C214      1.0  0.20485  0.72419  0.73361  1.0000
  C   C215      1.0  0.17916  0.72040  0.76424  1.0000
  H   H245      1.0  0.18404  0.70428  0.79100  1.0000
  C   C216      1.0  0.12587  0.99741  0.68140  1.0000
  H   H246      1.0  0.24073  0.72384  0.97478  1.0000
  H   H247      1.0  0.20231  0.80688  0.74984  1.0000
  S   S63       1.0  0.04987  0.81031  0.52175  1.0000
  N   N14       1.0  0.20750  0.85968  0.72674  1.0000
  C   C217      1.0  0.16943  0.86140  0.71896  1.0000
  C   C218      1.0  0.22533  0.84791  0.68863  1.0000
  C   C219      1.0  0.21290  0.83274  0.75910  1.0000
  C   C220      1.0  0.22074  0.89466  0.73799  1.0000
  C   C221      1.0  0.23724  0.90167  0.77618  1.0000
  C   C222      1.0  0.21695  0.92320  0.71039  1.0000
  C   C223      1.0  0.24875  0.93528  0.78595  1.0000
  C   C224      1.0  0.22836  0.95666  0.72056  1.0000
  H   H248      1.0  0.33930  0.68615  0.62208  1.0000
  H   H249      1.0  0.15797  0.83534  0.71221  1.0000
  H   H250      1.0  0.15508  0.87176  0.74613  1.0000
  H   H251      1.0  0.16336  0.87831  0.69209  1.0000
  H   H252      1.0  0.21940  0.86477  0.66160  1.0000
  H   H253      1.0  0.21700  0.82107  0.68019  1.0000
  H   H254      1.0  0.25422  0.84792  0.69249  1.0000
  H   H255      1.0  0.24115  0.82886  0.76538  1.0000
  H   H256      1.0  0.03429  0.97480  0.61875  1.0000
  H   H257      1.0  0.10536  0.00198  0.70376  1.0000
  H   H258      1.0  0.48771  0.67328  0.79452  1.0000
  C   C225      1.0  0.07581  0.97900  0.52444  1.0000
  H   H259      1.0  0.41275  0.69557  0.69287  1.0000
  C   C226      1.0  0.36603  0.68238  0.63437  1.0000
  C   C227      1.0  0.46036  0.70267  0.00396  1.0000
  H   H260      1.0  0.18576  0.85686  0.53089  1.0000
  H   H261      1.0  0.35537  0.71640  0.70640  1.0000
  H   H262      1.0  0.30606  0.75613  0.00083  1.0000
  H   H263      1.0  0.25293  0.98876  0.76600  1.0000
  C   C228      1.0  0.49970  0.79329  0.99619  1.0000
  S   S64       1.0  0.39415  0.78190  0.00781  1.0000
  H   H264      1.0  0.12457  0.81089  0.52474  1.0000
  H   H265      1.0  0.34173  0.67855  0.73508  1.0000
  H   H266      1.0  0.13684  0.94587  0.52126  1.0000
  H   H267      1.0  0.08791  0.99690  0.58679  1.0000
  C   C229      1.0  0.02005  0.94669  0.52176  1.0000
  H   H268      1.0  0.14173  0.87089  0.53613  1.0000
  H   H269      1.0  0.14086  0.00136  0.55618  1.0000
  H   H270      1.0  0.16797  0.79637  0.51261  1.0000
  C   C230      1.0  0.16314  0.86688  0.51323  1.0000
  H   H271      1.0  0.94614  0.21976  0.45688  1.0000
  H   H272      1.0  0.94228  0.02687  0.26880  1.0000
  S   S65       1.0  0.97298  0.26690  0.27711  1.0000
  H   H273      1.0  0.69954  0.07977  0.51000  1.0000
  H   H274      1.0  0.94636  0.15730  0.21501  1.0000
  C   C231      1.0  0.94274  0.13435  0.42783  1.0000
  H   H275      1.0  0.66301  0.29196  0.03447  1.0000
  C   C232      1.0  0.85984  0.04608  0.45276  1.0000
  H   H276      1.0  0.68635  0.04814  0.38070  1.0000
  C   C233      1.0  0.96563  0.11332  0.27489  1.0000
  Fe  Fe33      1.0  0.80891  0.12132  0.32866  1.0000
  S   S66       1.0  0.80812  0.14040  0.39346  1.0000
  Fe  Fe34      1.0  0.75441  0.17428  0.30100  1.0000
  S   S67       1.0  0.74928  0.19710  0.36428  1.0000
  S   S68       1.0  0.72402  0.19056  0.24457  1.0000
  Fe  Fe35      1.0  0.80782  0.19369  0.36515  1.0000
  S   S69       1.0  0.84341  0.23352  0.39367  1.0000
  Fe  Fe36      1.0  0.75007  0.14151  0.38602  1.0000
  S   S70       1.0  0.71510  0.12057  0.43671  1.0000
  S   S71       1.0  0.81326  0.17459  0.30045  1.0000
  S   S72       1.0  0.75061  0.11864  0.32284  1.0000
  C   C234      1.0  0.73013  0.07996  0.45387  1.0000
  C   C235      1.0  0.99514  0.04620  0.26620  1.0000
  S   S73       1.0  0.84868  0.08035  0.31408  1.0000
  H   H277      1.0  0.66559  0.16183  0.36931  1.0000
  H   H278      1.0  0.70553  0.02198  0.31493  1.0000
  C   C236      1.0  0.75449  0.06186  0.43028  1.0000
  H   H279      1.0  0.68588  0.17235  0.32085  1.0000
  H   H280      1.0  0.65537  0.10301  0.38120  1.0000
  H   H281      1.0  0.89054  0.11901  0.40572  1.0000
  H   H282      1.0  0.76310  0.07215  0.40080  1.0000
  C   C237      1.0  0.64242  0.27732  0.24793  1.0000
  C   C238      1.0  0.66089  0.26850  0.28362  1.0000
  C   C239      1.0  0.68696  0.24299  0.28259  1.0000
  C   C240      1.0  0.69414  0.22538  0.24605  1.0000
  C   C241      1.0  0.67572  0.23422  0.21028  1.0000
  C   C242      1.0  0.65014  0.26030  0.21109  1.0000
  H   H283      1.0  0.65516  0.28171  0.31215  1.0000
  H   H284      1.0  0.70128  0.23690  0.31016  1.0000
  H   H285      1.0  0.68109  0.22070  0.18188  1.0000
  H   H286      1.0  0.63592  0.26677  0.18348  1.0000
  C   C243      1.0  0.93641  0.26072  0.30965  1.0000
  C   C244      1.0  0.90403  0.25211  0.29256  1.0000
  C   C245      1.0  0.87519  0.24439  0.31818  1.0000
  C   C246      1.0  0.87844  0.24577  0.36098  1.0000
  C   C247      1.0  0.91039  0.25597  0.37801  1.0000
  C   C248      1.0  0.93950  0.26294  0.35245  1.0000
  H   H287      1.0  0.90127  0.25098  0.25947  1.0000
  H   H288      1.0  0.85022  0.23819  0.30471  1.0000
  H   H289      1.0  0.91267  0.25811  0.41104  1.0000
  H   H290      1.0  0.96414  0.27054  0.36584  1.0000
  H   H291      1.0  0.84880  0.01431  0.40037  1.0000
  C   C249      1.0  0.83378  0.03703  0.31875  1.0000
  C   C250      1.0  0.96821  0.16597  0.31549  1.0000
  Fe  Fe37      1.0  0.55768  0.33423  0.10867  1.0000
  H   H292      1.0  0.78042  0.05004  0.33266  1.0000
  N   N15       1.0  0.63743  0.14448  0.31544  1.0000
  C   C251      1.0  0.62999  0.15914  0.27396  1.0000
  S   S74       1.0  0.53270  0.32680  0.17122  1.0000
  C   C252      1.0  0.66020  0.16974  0.33698  1.0000
  C   C253      1.0  0.65491  0.11027  0.31437  1.0000
  C   C254      1.0  0.66229  0.09226  0.35161  1.0000
  C   C255      1.0  0.66638  0.09455  0.27717  1.0000
  C   C256      1.0  0.94431  0.08279  0.27372  1.0000
  C   C257      1.0  0.68409  0.06288  0.27759  1.0000
  H   H293      1.0  0.90287  0.17561  0.29287  1.0000
  C   C258      1.0  0.98856  0.09503  0.40326  1.0000
  H   H294      1.0  0.61236  0.14179  0.25617  1.0000
  C   C259      1.0  0.97820  0.12380  0.42626  1.0000
  H   H295      1.0  0.61729  0.18508  0.27576  1.0000
  H   H296      1.0  0.00407  0.33628  0.26724  1.0000
  H   H297      1.0  0.65442  0.16366  0.25576  1.0000
  H   H298      1.0  0.87278  0.07107  0.50962  1.0000
  H   H299      1.0  0.87674  0.15558  0.45774  1.0000
  H   H300      1.0  0.62432  0.31528  0.04969  1.0000
  C   C260      1.0  0.91282  0.14880  0.28808  1.0000
  H   H301      1.0  0.98260  0.19260  0.44991  1.0000
  C   C261      1.0  0.63757  0.30221  0.02365  1.0000
  H   H302      1.0  0.60707  0.13478  0.37110  1.0000
  H   H303      1.0  0.92116  0.13394  0.50593  1.0000
  H   H304      1.0  0.58904  0.16640  0.33739  1.0000
  H   H305      1.0  0.85052  0.06962  0.43816  1.0000
  C   C262      1.0  0.97174  0.29300  0.46317  1.0000
  C   C263      1.0  0.69104  0.04605  0.31474  1.0000
  C   C264      1.0  0.91816  0.11347  0.40614  1.0000
  S   S75       1.0  0.60876  0.30833  0.25133  1.0000
  C   C265      1.0  0.95486  0.19572  0.44095  1.0000
  H   H306      1.0  0.94736  0.19640  0.24521  1.0000
  H   H307      1.0  0.58660  0.12105  0.32426  1.0000
  H   H308      1.0  0.95018  0.30213  0.44481  1.0000
  C   C266      1.0  0.87210  0.04673  0.49302  1.0000
  C   C267      1.0  0.93673  0.15737  0.49644  1.0000
  H   H309      1.0  0.78652  0.20042  0.49478  1.0000
  N   N16       1.0  0.95117  0.14864  0.28017  1.0000
  C   C268      1.0  0.95821  0.16969  0.24250  1.0000
  N   N17       1.0  0.93247  0.16516  0.45207  1.0000
  C   C269      1.0  0.60362  0.14145  0.33804  1.0000
  H   H310      1.0  0.95624  0.19154  0.32236  1.0000
  H   H311      1.0  0.64843  0.19611  0.33800  1.0000
  H   H312      1.0  0.91617  0.08359  0.27599  1.0000
  H   H313      1.0  0.78266  0.13935  0.48253  1.0000
  H   H314      1.0  0.66277  0.10656  0.24736  1.0000
  H   H315      1.0  0.89787  0.13807  0.26171  1.0000
  C   C270      1.0  0.85883  0.01486  0.43143  1.0000
  H   H316      1.0  0.89037  0.18003  0.41231  1.0000
  C   C271      1.0  0.68014  0.06072  0.35169  1.0000
  C   C272      1.0  0.76754  0.03012  0.44456  1.0000
  H   H317      1.0  0.99836  0.13791  0.44242  1.0000
  C   C273      1.0  0.95902  0.04981  0.26954  1.0000
  H   H318      1.0  0.69325  0.05174  0.24894  1.0000
  H   H319      1.0  0.90966  0.06905  0.36711  1.0000
  H   H320      1.0  0.72913  0.17549  0.49300  1.0000
  H   H321      1.0  0.96637  0.14950  0.34364  1.0000
  H   H322      1.0  0.90572  0.13350  0.31620  1.0000
  C   C274      1.0  0.96621  0.28383  0.50455  1.0000
  C   C275      1.0  0.79885  0.02930  0.32846  1.0000
  H   H323      1.0  0.99640  0.17144  0.30971  1.0000
  C   C276      1.0  0.85748  0.00984  0.31341  1.0000
  C   C277      1.0  0.71873  0.06609  0.49182  1.0000
  S   S76       1.0  0.54854  0.30535  0.04956  1.0000
  H   H324      1.0  0.88912  0.20017  0.46156  1.0000
  C   C278      1.0  0.92880  0.08449  0.38365  1.0000
  Fe  Fe38      1.0  0.58727  0.33598  0.19516  1.0000
  C   C279      1.0  0.89559  0.17545  0.44556  1.0000
  H   H325      1.0  0.97217  0.05335  0.36387  1.0000
  C   C280      1.0  0.73288  0.03488  0.50687  1.0000
  C   C281      1.0  0.75747  0.01695  0.48323  1.0000
  H   H326      1.0  0.99337  0.33132  0.19827  1.0000
  C   C282      1.0  0.96394  0.07547  0.38193  1.0000
  H   H327      1.0  0.61996  0.27969  0.01701  1.0000
  C   C283      1.0  0.00225  0.10867  0.27039  1.0000
  H   H328      1.0  0.96445  0.15255  0.50450  1.0000
  H   H329      1.0  0.95424  0.20105  0.40725  1.0000
  H   H330      1.0  0.78576  0.01587  0.42566  1.0000
  C   C284      1.0  0.00516  0.29047  0.44538  1.0000
  H   H331      1.0  0.98669  0.17306  0.23626  1.0000
  H   H332      1.0  0.88452  0.01563  0.30595  1.0000
  C   C285      1.0  0.51034  0.31786  0.02386  1.0000
  C   C286      1.0  0.88288  0.01601  0.51235  1.0000
  Fe  Fe39      1.0  0.91608  0.25623  0.58437  1.0000
  H   H333      1.0  0.88483  0.32225  0.58368  1.0000
  Fe  Fe40      1.0  0.88895  0.18458  0.60832  1.0000
  S   S77       1.0  0.88856  0.19695  0.67545  1.0000
  S   S78       1.0  0.87132  0.13537  0.57727  1.0000
  Fe  Fe41      1.0  0.86588  0.24831  0.65726  1.0000
  Fe  Fe42      1.0  0.94036  0.22277  0.66269  1.0000
  S   S79       1.0  0.86216  0.23380  0.59086  1.0000
  S   S80       1.0  0.94292  0.20582  0.59686  1.0000
  H   H334      1.0  0.64952  0.31687  0.92184  1.0000
  H   H335      1.0  0.90915  0.23779  0.74857  1.0000
  S   S81       1.0  0.81663  0.26339  0.69139  1.0000
  H   H336      1.0  0.85562  0.32920  0.68904  1.0000
  C   C287      1.0  0.78622  0.19560  0.52871  1.0000
  H   H337      1.0  0.90593  0.05804  0.63627  1.0000
  H   H338      1.0  0.58773  0.32283  0.97169  1.0000
  C   C288      1.0  0.98125  0.10246  0.65674  1.0000
  H   H339      1.0  0.84637  0.30640  0.52279  1.0000
  C   C289      1.0  0.84861  0.10576  0.60965  1.0000
  C   C290      1.0  0.85025  0.10838  0.65254  1.0000
  C   C291      1.0  0.83257  0.08405  0.67783  1.0000
  C   C292      1.0  0.81296  0.05713  0.66031  1.0000
  C   C293      1.0  0.81098  0.05478  0.61743  1.0000
  C   C294      1.0  0.82903  0.07877  0.59220  1.0000
  H   H340      1.0  0.86552  0.12872  0.66642  1.0000
  H   H341      1.0  0.83413  0.08601  0.71098  1.0000
  H   H342      1.0  0.79485  0.03495  0.60356  1.0000
  H   H343      1.0  0.82710  0.07660  0.55920  1.0000
  S   S82       1.0  0.91791  0.27555  0.64963  1.0000
  H   H344      1.0  0.77397  0.21874  0.54297  1.0000
  C   C295      1.0  0.89167  0.25925  0.75846  1.0000
  H   H345      1.0  0.86773  0.24655  0.77142  1.0000
  H   H346      1.0  0.72459  0.02461  0.53650  1.0000
  C   C296      1.0  0.76682  0.15484  0.58439  1.0000
  C   C297      1.0  0.75073  0.12372  0.59942  1.0000
  C   C298      1.0  0.78112  0.17771  0.61423  1.0000
  H   H347      1.0  0.73861  0.09107  0.65211  1.0000
  N   N18       1.0  0.64231  0.32561  0.98728  1.0000
  C   C299      1.0  0.88636  0.31275  0.79711  1.0000
  H   H348      1.0  0.93371  0.24081  0.82085  1.0000
  H   H349      1.0  0.81144  0.13163  0.52510  1.0000
  C   C300      1.0  0.93320  0.06254  0.64373  1.0000
  C   C301      1.0  0.00431  0.07437  0.66453  1.0000
  H   H350      1.0  0.84130  0.28111  0.81680  1.0000
  H   H351      1.0  0.79326  0.20223  0.60611  1.0000
  H   H352      1.0  0.94478  0.00817  0.64946  1.0000
  H   H353      1.0  0.92850  0.28023  0.84980  1.0000
  H   H354      1.0  0.84868  0.31170  0.61691  1.0000
  H   H355      1.0  0.80303  0.32994  0.83148  1.0000
  C   C302      1.0  0.99428  0.27246  0.52829  1.0000
  C   C303      1.0  0.76471  0.13826  0.66976  1.0000
  H   H356      1.0  0.89121  0.01825  0.54389  1.0000
  C   C304      1.0  0.80726  0.30549  0.70953  1.0000
  C   C305      1.0  0.95509  0.03450  0.65114  1.0000
  H   H357      1.0  0.94026  0.30753  0.73996  1.0000
  H   H358      1.0  0.75723  0.28960  0.73487  1.0000
  H   H359      1.0  0.79155  0.18701  0.67837  1.0000
  C   C306      1.0  0.78011  0.16934  0.65621  1.0000
  H   H360      1.0  0.67893  0.29336  0.95481  1.0000
  C   C307      1.0  0.74995  0.11557  0.64145  1.0000
  S   S83       1.0  0.92402  0.28681  0.52591  1.0000
  H   H361      1.0  0.92907  0.11814  0.64069  1.0000
  C   C308      1.0  0.85177  0.30708  0.81224  1.0000
  H   H362      1.0  0.89160  0.25228  0.84049  1.0000
  N   N19       1.0  0.90919  0.28282  0.78792  1.0000
  H   H363      1.0  0.52610  0.29570  0.96586  1.0000
  H   H364      1.0  0.76466  0.13146  0.70221  1.0000
  H   H365      1.0  0.88353  0.27382  0.73053  1.0000
  H   H366      1.0  0.71617  0.18633  0.54464  1.0000
  C   C309      1.0  0.77521  0.31114  0.72970  1.0000
  S   S84       1.0  0.98344  0.21246  0.70745  1.0000
  C   C310      1.0  0.94628  0.09640  0.64639  1.0000
  S   S85       1.0  0.79084  0.02669  0.69197  1.0000
  C   C311      1.0  0.91602  0.26319  0.82645  1.0000
  H   H367      1.0  0.95939  0.30908  0.79087  1.0000
  H   H368      1.0  0.99026  0.26569  0.56036  1.0000
  H   H369      1.0  0.95977  0.26987  0.76203  1.0000
  C   C312      1.0  0.86090  0.33300  0.59820  1.0000
  C   C313      1.0  0.94356  0.29301  0.76946  1.0000
  C   C314      1.0  0.65181  0.30318  0.95188  1.0000
  H   H370      1.0  0.63382  0.28036  0.94918  1.0000
  H   H371      1.0  0.73886  0.10522  0.57879  1.0000
  N   N20       1.0  0.76693  0.16304  0.53972  1.0000
  C   C315      1.0  0.73037  0.16688  0.52579  1.0000
  H   H372      1.0  0.81405  0.19409  0.53827  1.0000
  H   H373      1.0  0.81256  0.29615  0.55877  1.0000
  H   H374      1.0  0.80458  0.32714  0.51825  1.0000
  C   C316      1.0  0.82437  0.31797  0.54070  1.0000
  H   H375      1.0  0.78698  0.31442  0.61632  1.0000
  C   C317      1.0  0.99011  0.04020  0.66132  1.0000
  C   C318      1.0  0.83045  0.33340  0.70331  1.0000
  H   H376      1.0  0.92764  0.17934  0.51576  1.0000
  H   H377      1.0  0.71544  0.14195  0.52778  1.0000
  H   H378      1.0  0.77068  0.10897  0.52163  1.0000
  H   H379      1.0  0.98941  0.12942  0.65871  1.0000
  C   C319      1.0  0.78361  0.13455  0.51634  1.0000
  H   H380      1.0  0.50649  0.32702  0.85525  1.0000
  C   C320      1.0  0.52944  0.33606  0.83843  1.0000
  C   C321      1.0  0.82970  0.33482  0.82116  1.0000
  C   C322      1.0  0.50609  0.30995  0.98208  1.0000
  H   H381      1.0  0.00593  0.01754  0.66702  1.0000
  C   C323      1.0  0.53126  0.49913  0.13931  1.0000
  N   N21       1.0  0.53662  0.52073  0.17653  1.0000
  H   H382      1.0  0.51707  0.64765  0.16236  1.0000
  Fe  Fe43      1.0  0.67845  0.61897  0.15245  1.0000
  S   S86       1.0  0.63805  0.63287  0.10574  1.0000
  S   S87       1.0  0.66603  0.57506  0.19634  1.0000
  Fe  Fe44      1.0  0.68404  0.64041  0.06311  1.0000
  S   S88       1.0  0.58142  0.39418  0.19958  1.0000
  H   H383      1.0  0.52143  0.51510  0.11329  1.0000
  S   S89       1.0  0.54931  0.39156  0.10669  1.0000
  S   S90       1.0  0.72438  0.62254  0.10855  1.0000
  Fe  Fe45      1.0  0.52907  0.38513  0.17092  1.0000
  H   H384      1.0  0.57405  0.50947  0.02226  1.0000
  S   S91       1.0  0.63722  0.43469  0.10290  1.0000
  H   H385      1.0  0.52698  0.59122  0.19684  1.0000
  H   H386      1.0  0.57597  0.55822  0.19558  1.0000
  H   H387      1.0  0.57091  0.48310  0.20416  1.0000
  H   H388      1.0  0.51249  0.47731  0.14478  1.0000
  C   C324      1.0  0.64772  0.47255  0.13011  1.0000
  C   C325      1.0  0.66156  0.50133  0.10856  1.0000
  C   C326      1.0  0.66770  0.53279  0.12890  1.0000
  C   C327      1.0  0.66107  0.53521  0.17117  1.0000
  C   C328      1.0  0.64852  0.50603  0.19309  1.0000
  C   C329      1.0  0.64148  0.47481  0.17247  1.0000
  H   H389      1.0  0.66742  0.49944  0.07605  1.0000
  H   H390      1.0  0.67771  0.55511  0.11189  1.0000
  H   H391      1.0  0.64367  0.50779  0.22588  1.0000
  H   H392      1.0  0.63164  0.45244  0.18945  1.0000
  C   C330      1.0  0.67446  0.36728  0.03424  1.0000
  H   H393      1.0  0.60316  0.48234  0.05142  1.0000
  H   H394      1.0  0.58966  0.53041  0.15552  1.0000
  Fe  Fe46      1.0  0.60212  0.39563  0.13496  1.0000
  H   H395      1.0  0.00080  0.37261  0.32813  1.0000
  H   H396      1.0  0.61891  0.52194  0.03097  1.0000
  H   H397      1.0  0.57907  0.66488  0.15102  1.0000
  C   C331      1.0  0.69885  0.39402  0.04059  1.0000
  H   H398      1.0  0.70259  0.40431  0.07130  1.0000
  C   C332      1.0  0.54654  0.49760  0.21114  1.0000
  H   H399      1.0  0.71503  0.57241  0.03566  1.0000
  H   H400      1.0  0.55998  0.56437  0.14366  1.0000
  H   H401      1.0  0.55593  0.48634  0.12929  1.0000
  H   H402      1.0  0.64422  0.44438  0.01535  1.0000
  H   H403      1.0  0.52593  0.47772  0.21825  1.0000
  C   C333      1.0  0.60119  0.49957  0.02403  1.0000
  C   C334      1.0  0.56661  0.54463  0.16748  1.0000
  H   H404      1.0  0.57807  0.64950  0.02234  1.0000
  H   H405      1.0  0.55104  0.51266  0.23978  1.0000
  H   H406      1.0  0.65987  0.35844  0.06097  1.0000
  H   H407      1.0  0.84629  0.66937  0.14526  1.0000
  H   H408      1.0  0.57719  0.43415  0.03617  1.0000
  S   S92       1.0  0.61250  0.33844  0.13254  1.0000
  H   H409      1.0  0.53393  0.39017  0.01724  1.0000
  Fe  Fe47      1.0  0.71125  0.46251  0.87028  1.0000
  S   S93       1.0  0.72461  0.48362  0.80756  1.0000
  S   S94       1.0  0.73018  0.48237  0.93148  1.0000
  Fe  Fe48      1.0  0.66432  0.40577  0.83614  1.0000
  S   S95       1.0  0.67313  0.42208  0.77015  1.0000
  H   H410      1.0  0.68343  0.36187  0.92965  1.0000
  Fe  Fe49      1.0  0.72966  0.42765  0.78848  1.0000
  S   S96       1.0  0.77752  0.41552  0.74942  1.0000
  Fe  Fe50      1.0  0.66757  0.47643  0.79451  1.0000
  S   S97       1.0  0.63623  0.51750  0.76187  1.0000
  S   S98       1.0  0.72114  0.40707  0.85275  1.0000
  S   S99       1.0  0.65398  0.45936  0.85858  1.0000
  C   C335      1.0  0.59772  0.60828  0.83975  1.0000
  H   H411      1.0  0.92323  0.35503  0.78051  1.0000
  C   C336      1.0  0.62248  0.55272  0.79210  1.0000
  C   C337      1.0  0.62407  0.55115  0.83504  1.0000
  C   C338      1.0  0.61135  0.57864  0.85878  1.0000
  C   C339      1.0  0.60878  0.58238  0.77299  1.0000
  H   H412      1.0  0.63484  0.52871  0.85007  1.0000
  H   H413      1.0  0.61223  0.57702  0.89201  1.0000
  H   H414      1.0  0.60738  0.58372  0.73975  1.0000
  C   C340      1.0  0.78856  0.37281  0.73509  1.0000
  H   H415      1.0  0.55954  0.42282  0.73964  1.0000
  C   C341      1.0  0.84140  0.36895  0.81566  1.0000
  H   H416      1.0  0.55566  0.50997  0.79397  1.0000
  H   H417      1.0  0.82385  0.39040  0.82159  1.0000
  C   C342      1.0  0.50652  0.48895  0.77019  1.0000
  H   H418      1.0  0.55856  0.35061  0.74048  1.0000
  H   H419      1.0  0.86954  0.39252  0.55831  1.0000
  C   C343      1.0  0.53732  0.40123  0.95260  1.0000
  H   H420      1.0  0.83858  0.38872  0.70991  1.0000
  C   C344      1.0  0.85675  0.37157  0.54020  1.0000
  C   C345      1.0  0.55888  0.34929  0.77377  1.0000
  H   H421      1.0  0.58997  0.52016  0.94373  1.0000
  S   S100      1.0  0.62789  0.36647  0.86539  1.0000
  C   C346      1.0  0.87519  0.37551  0.80109  1.0000
  C   C347      1.0  0.77431  0.41407  0.61261  1.0000
  C   C348      1.0  0.57711  0.44779  0.93214  1.0000
  N   N22       1.0  0.83661  0.34695  0.56708  1.0000
  C   C349      1.0  0.61564  0.50956  0.95323  1.0000
  H   H422      1.0  0.75688  0.54682  0.84113  1.0000
  H   H423      1.0  0.70842  0.56084  0.79364  1.0000
  C   C350      1.0  0.68432  0.57700  0.93787  1.0000
  C   C351      1.0  0.69584  0.54472  0.92326  1.0000
  C   C352      1.0  0.71499  0.52280  0.94889  1.0000
  C   C353      1.0  0.74432  0.57191  0.84259  1.0000
  H   H424      1.0  0.69110  0.66918  0.91758  1.0000
  H   H425      1.0  0.67008  0.59408  0.91766  1.0000
  H   H426      1.0  0.69031  0.53703  0.89203  1.0000
  H   H427      1.0  0.61061  0.36046  0.95165  1.0000
  H   H428      1.0  0.54644  0.46097  0.71144  1.0000
  H   H429      1.0  0.53393  0.41231  0.81107  1.0000
  C   C354      1.0  0.75445  0.59569  0.87238  1.0000
  H   H430      1.0  0.57322  0.46471  0.75622  1.0000
  H   H431      1.0  0.51903  0.38070  0.94449  1.0000
  S   S101      1.0  0.58215  0.64211  0.87079  1.0000
  H   H432      1.0  0.74108  0.34882  0.75793  1.0000
  H   H433      1.0  0.56072  0.34189  0.89280  1.0000
  H   H434      1.0  0.74584  0.64480  0.89982  1.0000
  C   C355      1.0  0.69116  0.58717  0.97843  1.0000
  H   H435      1.0  0.67911  0.61606  0.79744  1.0000
  C   C356      1.0  0.80670  0.36302  0.58879  1.0000
  C   C357      1.0  0.71713  0.57988  0.81595  1.0000
  C   C358      1.0  0.58554  0.45477  0.97382  1.0000
  H   H436      1.0  0.86944  0.35371  0.61979  1.0000
  H   H437      1.0  0.54826  0.45498  0.82462  1.0000
  H   H438      1.0  0.65518  0.45262  0.96239  1.0000
  C   C359      1.0  0.68761  0.36923  0.96125  1.0000
  H   H439      1.0  0.77095  0.44204  0.61323  1.0000
  H   H440      1.0  0.81743  0.41760  0.57163  1.0000
  C   C360      1.0  0.75230  0.39287  0.63651  1.0000
  C   C361      1.0  0.52628  0.44016  0.81073  1.0000
  C   C362      1.0  0.71097  0.63734  0.84759  1.0000
  H   H441      1.0  0.83977  0.38350  0.51639  1.0000
  C   C363      1.0  0.55344  0.42130  0.92192  1.0000
  H   H442      1.0  0.62983  0.50029  0.92555  1.0000
  C   C364      1.0  0.82086  0.36704  0.71544  1.0000
  H   H443      1.0  0.59931  0.35768  0.00537  1.0000
  C   C365      1.0  0.73793  0.62784  0.87515  1.0000
  H   H444      1.0  0.72631  0.40755  0.94242  1.0000
  H   H445      1.0  0.88381  0.40221  0.79623  1.0000
  C   C366      1.0  0.72184  0.53296  0.98944  1.0000
  C   C367      1.0  0.58991  0.35623  0.83802  1.0000
  C   C368      1.0  0.52892  0.33803  0.79543  1.0000
  C   C369      1.0  0.66880  0.35329  0.99443  1.0000
  H   H446      1.0  0.58601  0.63297  0.78179  1.0000
  H   H447      1.0  0.58904  0.46202  0.90686  1.0000
  N   N23       1.0  0.61143  0.48190  0.98523  1.0000
  C   C370      1.0  0.59672  0.61029  0.79675  1.0000
  C   C371      1.0  0.52918  0.51557  0.78474  1.0000
  H   H448      1.0  0.53583  0.56983  0.79930  1.0000
  C   C372      1.0  0.70046  0.61199  0.81840  1.0000
  H   H449      1.0  0.65390  0.65192  0.89174  1.0000
  C   C373      1.0  0.55073  0.45021  0.74289  1.0000
  C   C374      1.0  0.64566  0.46507  0.99121  1.0000
  H   H450      1.0  0.73993  0.34066  0.65580  1.0000
  C   C375      1.0  0.54566  0.40677  0.99363  1.0000
  H   H451      1.0  0.61224  0.36764  0.77826  1.0000
  N   N24       1.0  0.51846  0.45245  0.76848  1.0000
  H   H452      1.0  0.54811  0.41567  0.88999  1.0000
  H   H453      1.0  0.77450  0.58869  0.89426  1.0000
  C   C376      1.0  0.56013  0.34449  0.85963  1.0000
  C   C377      1.0  0.76595  0.34465  0.74270  1.0000
  C   C378      1.0  0.58916  0.35904  0.79509  1.0000
  C   C379      1.0  0.80110  0.39956  0.58889  1.0000
  C   C380      1.0  0.71200  0.39588  0.96803  1.0000
  C   C381      1.0  0.75667  0.35699  0.63646  1.0000
  C   C382      1.0  0.51815  0.55001  0.78785  1.0000
  H   H454      1.0  0.73231  0.40432  0.65589  1.0000
  H   H455      1.0  0.64639  0.66187  0.81773  1.0000
  C   C383      1.0  0.78360  0.34221  0.61333  1.0000
  S   S102      1.0  0.67613  0.62771  0.99584  1.0000
  H   H456      1.0  0.73609  0.42943  0.01237  1.0000
  C   C384      1.0  0.60853  0.34238  0.97853  1.0000
  H   H457      1.0  0.63174  0.53181  0.96433  1.0000
  H   H458      1.0  0.87837  0.35821  0.52344  1.0000
  C   C385      1.0  0.57003  0.43253  0.00416  1.0000
  H   H459      1.0  0.73653  0.51603  0.00951  1.0000
  C   C386      1.0  0.89752  0.34796  0.79193  1.0000
  C   C387      1.0  0.71765  0.40824  0.00756  1.0000
  C   C388      1.0  0.70967  0.56489  0.00432  1.0000
  H   H460      1.0  0.66611  0.48405  0.00078  1.0000
  Fe  Fe51      1.0  0.91009  0.85726  0.31487  1.0000
  S   S103      1.0  0.89204  0.89492  0.36281  1.0000
  Fe  Fe52      1.0  0.85055  0.80641  0.33002  1.0000
  S   S104      1.0  0.82783  0.83922  0.38018  1.0000
  S   S105      1.0  0.82513  0.75444  0.31654  1.0000
  Fe  Fe53      1.0  0.83883  0.88421  0.33751  1.0000
  S   S106      1.0  0.79641  0.92403  0.33194  1.0000
  Fe  Fe54      1.0  0.88306  0.84696  0.40116  1.0000
  S   S107      1.0  0.89596  0.84859  0.46858  1.0000
  S   S108      1.0  0.85744  0.85086  0.28548  1.0000
  S   S109      1.0  0.90500  0.80987  0.35524  1.0000
  C   C389      1.0  0.55895  0.68438  0.15072  1.0000
  S   S110      1.0  0.77574  0.97770  0.50029  1.0000
  C   C390      1.0  0.77763  0.70501  0.22199  1.0000
  S   S111      1.0  0.95898  0.86636  0.27762  1.0000
  H   H461      1.0  0.91534  0.80936  0.16553  1.0000
  C   C391      1.0  0.93965  0.83986  0.48175  1.0000
  H   H462      1.0  0.93423  0.91285  0.49945  1.0000
  C   C392      1.0  0.90023  0.73995  0.15266  1.0000
  H   H463      1.0  0.52725  0.70898  0.07060  1.0000
  H   H464      1.0  0.88197  0.80789  0.20465  1.0000
  C   C393      1.0  0.81129  0.96736  0.32711  1.0000
  C   C394      1.0  0.84630  0.97506  0.31771  1.0000
  H   H465      1.0  0.93266  0.74835  0.27417  1.0000
  H   H466      1.0  0.69875  0.93327  0.41147  1.0000
  C   C395      1.0  0.78566  0.72633  0.18804  1.0000
  C   C396      1.0  0.92257  0.93607  0.48463  1.0000
  H   H467      1.0  0.86466  0.95426  0.31300  1.0000
  H   H468      1.0  0.73579  0.95140  0.43829  1.0000
  H   H469      1.0  0.97709  0.78945  0.21653  1.0000
  S   S112      1.0  0.61083  0.73167  0.13125  1.0000
  C   C397      1.0  0.80889  0.74488  0.26714  1.0000
  C   C398      1.0  0.81543  0.76699  0.23352  1.0000
  C   C399      1.0  0.88213  0.98367  0.49131  1.0000
  C   C400      1.0  0.78959  0.71408  0.26133  1.0000
  H   H470      1.0  0.82951  0.79108  0.23787  1.0000
  H   H471      1.0  0.78426  0.69692  0.28727  1.0000
  C   C401      1.0  0.56774  0.71928  0.14340  1.0000
  C   C402      1.0  0.54160  0.74449  0.14363  1.0000
  H   H472      1.0  0.69995  0.86765  0.39421  1.0000
  C   C403      1.0  0.58437  0.73767  0.02246  1.0000
  H   H473      1.0  0.74127  0.93614  0.38785  1.0000
  H   H474      1.0  0.00210  0.93032  0.50475  1.0000
  H   H475      1.0  0.54828  0.77153  0.13792  1.0000
  C   C404      1.0  0.99254  0.88181  0.30954  1.0000
  C   C405      1.0  0.78761  0.99454  0.33248  1.0000
  C   C406      1.0  0.91054  0.80547  0.19900  1.0000
  H   H476      1.0  0.93655  0.79446  0.27284  1.0000
  H   H477      1.0  0.76055  0.98877  0.33988  1.0000
  C   C407      1.0  0.90311  0.74264  0.19609  1.0000
  H   H478      1.0  0.92368  0.82780  0.21442  1.0000
  H   H479      1.0  0.91314  0.75844  0.13227  1.0000
  H   H480      1.0  0.88582  0.71647  0.25351  1.0000
  H   H481      1.0  0.78162  0.86777  0.45240  1.0000
  H   H482      1.0  0.69688  0.93851  0.48703  1.0000
  H   H483      1.0  0.61607  0.67558  0.03282  1.0000
  C   C408      1.0  0.72719  0.93047  0.41729  1.0000
  H   H484      1.0  0.94383  0.95557  0.47918  1.0000
  C   C409      1.0  0.92143  0.77217  0.26006  1.0000
  N   N25       1.0  0.92351  0.77152  0.21439  1.0000
  H   H485      1.0  0.89389  0.77482  0.27099  1.0000
  C   C410      1.0  0.98782  0.88233  0.35232  1.0000
  H   H486      1.0  0.57445  0.74208  0.05418  1.0000
  H   H487      1.0  0.72916  0.83115  0.47190  1.0000
  H   H488      1.0  0.77888  0.91126  0.47064  1.0000
  S   S113      1.0  0.69103  0.69656  0.07920  1.0000
  H   H489      1.0  0.78964  0.90369  0.41771  1.0000
  H   H490      1.0  0.85596  0.91711  0.48079  1.0000
  N   N26       1.0  0.68302  0.78972  0.20048  1.0000
  C   C411      1.0  0.65669  0.77018  0.22568  1.0000
  C   C412      1.0  0.66368  0.81247  0.17154  1.0000
  C   C413      1.0  0.70317  0.76468  0.17552  1.0000
  C   C414      1.0  0.70720  0.80894  0.22772  1.0000
  C   C415      1.0  0.71343  0.84543  0.22411  1.0000
  C   C416      1.0  0.72591  0.79096  0.25873  1.0000
  C   C417      1.0  0.73680  0.86255  0.25021  1.0000
  C   C418      1.0  0.74870  0.80846  0.28504  1.0000
  C   C419      1.0  0.75437  0.84409  0.28056  1.0000
  H   H491      1.0  0.64242  0.78779  0.24686  1.0000
  H   H492      1.0  0.63687  0.75698  0.20616  1.0000
  H   H493      1.0  0.66849  0.74913  0.24444  1.0000
  H   H494      1.0  0.68170  0.82610  0.14952  1.0000
  H   H495      1.0  0.64771  0.83191  0.18830  1.0000
  H   H496      1.0  0.64514  0.79717  0.15228  1.0000
  H   H497      1.0  0.68633  0.75091  0.15294  1.0000
  H   H498      1.0  0.72473  0.77784  0.15791  1.0000
  H   H499      1.0  0.71533  0.74422  0.19482  1.0000
  H   H500      1.0  0.70088  0.86129  0.20114  1.0000
  H   H501      1.0  0.72357  0.76304  0.26243  1.0000
  H   H502      1.0  0.74167  0.89030  0.24679  1.0000
  H   H503      1.0  0.76269  0.79410  0.30844  1.0000
  H   H504      1.0  0.77280  0.85735  0.30029  1.0000
  H   H505      1.0  0.96500  0.77012  0.16876  1.0000
  H   H506      1.0  0.74155  0.87847  0.37081  1.0000
  C   C420      1.0  0.77298  0.89438  0.44394  1.0000
  C   C421      1.0  0.80431  0.75749  0.19399  1.0000
  Fe  Fe55      1.0  0.64846  0.68762  0.12550  1.0000
  C   C422      1.0  0.51464  0.70534  0.04143  1.0000
  C   C423      1.0  0.71473  0.88600  0.47125  1.0000
  C   C424      1.0  0.96087  0.76835  0.20263  1.0000
  C   C425      1.0  0.72847  0.87017  0.40016  1.0000
  C   C426      1.0  0.99742  0.81792  0.46523  1.0000
  H   H507      1.0  0.81041  0.77417  0.16786  1.0000
  N   N27       1.0  0.89397  0.95068  0.51015  1.0000
  H   H508      1.0  0.76331  0.68090  0.21770  1.0000
  C   C427      1.0  0.88568  0.71658  0.22025  1.0000
  N   N28       1.0  0.73532  0.89529  0.43379  1.0000
  C   C428      1.0  0.96326  0.82622  0.45315  1.0000
  C   C429      1.0  0.69649  0.91116  0.49487  1.0000
  H   H509      1.0  0.95516  0.82141  0.42194  1.0000
  H   H510      1.0  0.96403  0.87213  0.36607  1.0000
  H   H511      1.0  0.87721  0.71276  0.10150  1.0000
  H   H512      1.0  0.97153  0.74298  0.21319  1.0000
  H   H513      1.0  0.86773  0.96043  0.43259  1.0000
  H   H514      1.0  0.91339  0.92708  0.45406  1.0000
  C   C430      1.0  0.71438  0.85133  0.48676  1.0000
  H   H515      1.0  0.52177  0.79792  0.01604  1.0000
  C   C431      1.0  0.88009  0.71369  0.13465  1.0000
  C   C432      1.0  0.52390  0.67466  0.15737  1.0000
  S   S114      1.0  0.77382  0.71424  0.13773  1.0000
  C   C433      1.0  0.86964  0.98408  0.45029  1.0000
  H   H516      1.0  0.73886  0.84389  0.40676  1.0000
  C   C434      1.0  0.86596  0.69022  0.20185  1.0000
  H   H517      1.0  0.57855  0.67871  0.06541  1.0000
  S   S115      1.0  0.68456  0.67331  0.17648  1.0000
  C   C435      1.0  0.58692  0.67558  0.03284  1.0000
  Fe  Fe56      1.0  0.72706  0.67855  0.12889  1.0000
  C   C436      1.0  0.86284  0.68900  0.15922  1.0000
  H   H518      1.0  0.61335  0.74020  0.02397  1.0000
  H   H519      1.0  0.85184  0.67136  0.22086  1.0000
  H   H520      1.0  0.90881  0.76058  0.50819  1.0000
  H   H521      1.0  0.97191  0.75220  0.50584  1.0000
  C   C437      1.0  0.50655  0.73473  0.15035  1.0000
  C   C438      1.0  0.86440  0.92538  0.51189  1.0000
  Fe  Fe57      1.0  0.77709  0.97991  0.65448  1.0000
  H   H522      1.0  0.85608  0.71458  0.57682  1.0000
  H   H523      1.0  0.85628  0.75238  0.63860  1.0000
  C   C439      1.0  0.59216  0.89107  0.84357  1.0000
  S   S116      1.0  0.55223  0.78961  0.80741  1.0000
  Fe  Fe58      1.0  0.57047  0.69382  0.84113  1.0000
  S   S117      1.0  0.57035  0.70957  0.77455  1.0000
  H   H524      1.0  0.93271  0.85705  0.54415  1.0000
  Fe  Fe59      1.0  0.55326  0.76679  0.87131  1.0000
  Fe  Fe60      1.0  0.59995  0.75732  0.79496  1.0000
  S   S118      1.0  0.65313  0.77225  0.76853  1.0000
  S   S119      1.0  0.60338  0.73905  0.86047  1.0000
  Fe  Fe61      1.0  0.80204  0.90990  0.62509  1.0000
  S   S120      1.0  0.76855  0.92552  0.67896  1.0000
  S   S121      1.0  0.84317  0.86880  0.62269  1.0000
  Fe  Fe62      1.0  0.72458  0.92365  0.63358  1.0000
  S   S122      1.0  0.67038  0.90263  0.64843  1.0000
  S   S123      1.0  0.75751  0.90389  0.58139  1.0000
  C   C440      1.0  0.65725  0.80751  0.73359  1.0000
  C   C441      1.0  0.62803  0.82560  0.71978  1.0000
  C   C442      1.0  0.63231  0.85404  0.69260  1.0000
  C   C443      1.0  0.66579  0.86484  0.67943  1.0000
  C   C444      1.0  0.69501  0.84659  0.69301  1.0000
  C   C445      1.0  0.69071  0.81800  0.71995  1.0000
  H   H525      1.0  0.60214  0.81772  0.73011  1.0000
  H   H526      1.0  0.60955  0.86795  0.68217  1.0000
  H   H527      1.0  0.72094  0.85469  0.68306  1.0000
  H   H528      1.0  0.71342  0.80409  0.73050  1.0000
  C   C446      1.0  0.84889  0.73837  0.55915  1.0000
  H   H529      1.0  0.93029  0.97266  0.55358  1.0000
  H   H530      1.0  0.97732  0.76058  0.63693  1.0000
  S   S124      1.0  0.54756  0.79328  0.93247  1.0000
  H   H531      1.0  0.73772  0.69929  0.87852  1.0000
  C   C447      1.0  0.95352  0.90476  0.65575  1.0000
  C   C448      1.0  0.94777  0.87249  0.63763  1.0000
  C   C449      1.0  0.91383  0.86170  0.62790  1.0000
  C   C450      1.0  0.88533  0.88323  0.63578  1.0000
  C   C451      1.0  0.89096  0.91576  0.65372  1.0000
  C   C452      1.0  0.92507  0.92647  0.66382  1.0000
  H   H532      1.0  0.96943  0.85560  0.63142  1.0000
  H   H533      1.0  0.90996  0.83666  0.61399  1.0000
  H   H534      1.0  0.86904  0.93232  0.66066  1.0000
  H   H535      1.0  0.92931  0.95121  0.67862  1.0000
  H   H536      1.0  0.86375  0.79864  0.63261  1.0000
  H   H537      1.0  0.56705  0.89581  0.85818  1.0000
  C   C453      1.0  0.63595  0.94732  0.73908  1.0000
  H   H538      1.0  0.87135  0.90113  0.52889  1.0000
  C   C454      1.0  0.66234  0.97135  0.79996  1.0000
  Fe  Fe63      1.0  0.76739  0.96007  0.56580  1.0000
  C   C455      1.0  0.64140  0.91139  0.80007  1.0000
  C   C456      1.0  0.60857  0.91701  0.81961  1.0000
  C   C457      1.0  0.65622  0.87785  0.80507  1.0000
  H   H539      1.0  0.65957  0.70622  0.81803  1.0000
  H   H540      1.0  0.69239  0.90798  0.73784  1.0000
  S   S125      1.0  0.52048  0.72024  0.85715  1.0000
  H   H541      1.0  0.69573  0.81557  0.53389  1.0000
  C   C458      1.0  0.51558  0.69619  0.96788  1.0000
  C   C459      1.0  0.90743  0.95458  0.55268  1.0000
  N   N29       1.0  0.65824  0.93940  0.77501  1.0000
  H   H542      1.0  0.64872  0.96634  0.71751  1.0000
  C   C460      1.0  0.72099  0.69991  0.85077  1.0000
  H   H543      1.0  0.71170  0.92388  0.78470  1.0000
  H   H544      1.0  0.63047  0.92340  0.72109  1.0000
  C   C461      1.0  0.95075  0.84636  0.52197  1.0000
  H   H545      1.0  0.59480  0.83864  0.86693  1.0000
  H   H546      1.0  0.66452  0.92123  0.54862  1.0000
  S   S126      1.0  0.99616  0.91826  0.66788  1.0000
  C   C462      1.0  0.85731  0.80024  0.55030  1.0000
  C   C463      1.0  0.60771  0.85875  0.84848  1.0000
  S   S127      1.0  0.81474  0.96417  0.60521  1.0000
  H   H547      1.0  0.65103  0.82655  0.83199  1.0000
  C   C464      1.0  0.59016  0.69980  0.96483  1.0000
  C   C465      1.0  0.85199  0.77523  0.61810  1.0000
  H   H548      1.0  0.99325  0.84346  0.56499  1.0000
  H   H549      1.0  0.59510  0.94139  0.81615  1.0000
  C   C466      1.0  0.92560  0.76441  0.61133  1.0000
  H   H550      1.0  0.87318  0.82352  0.55863  1.0000
  H   H551      1.0  0.88680  0.96398  0.57408  1.0000
  C   C467      1.0  0.98507  0.83883  0.53378  1.0000
  C   C468      1.0  0.63952  0.85211  0.82906  1.0000
  H   H552      1.0  0.82938  0.80755  0.55389  1.0000
  H   H553      1.0  0.58152  0.72065  0.94337  1.0000
  H   H554      1.0  0.61917  0.70182  0.96662  1.0000
  H   H555      1.0  0.73827  0.69813  0.82309  1.0000
  H   H556      1.0  0.70890  0.72618  0.85026  1.0000
  C   C469      1.0  0.67784  0.90166  0.53058  1.0000
  H   H557      1.0  0.91621  0.92923  0.56573  1.0000
  H   H558      1.0  0.57458  0.75937  0.00301  1.0000
  S   S128      1.0  0.73025  0.97977  0.61363  1.0000
  H   H559      1.0  0.99087  0.94224  0.57861  1.0000
  H   H560      1.0  0.81990  0.74074  0.56027  1.0000
  N   N30       1.0  0.86648  0.76964  0.57606  1.0000
  Fe  Fe64      1.0  0.52277  0.74029  0.79224  1.0000
  H   H561      1.0  0.61026  0.95820  0.74823  1.0000
  C   C470      1.0  0.69356  0.93031  0.75921  1.0000
  C   C471      1.0  0.96182  0.75997  0.60912  1.0000
  C   C472      1.0  0.90485  0.76469  0.57516  1.0000
  H   H562      1.0  0.68038  0.87049  0.79023  1.0000
  C   C473      1.0  0.97836  0.75533  0.57123  1.0000
  H   H563      1.0  0.91469  0.76825  0.64170  1.0000
  N   N31       1.0  0.57327  0.70347  0.00588  1.0000
  H   H564      1.0  0.63687  0.98257  0.80931  1.0000
  H   H565      1.0  0.70582  0.95203  0.74108  1.0000
  H   H566      1.0  0.82331  0.77991  0.61769  1.0000
  H   H567      1.0  0.66322  0.86022  0.57233  1.0000
  H   H568      1.0  0.66065  0.69812  0.89412  1.0000
  H   H569      1.0  0.67731  0.96585  0.82851  1.0000
  H   H570      1.0  0.68287  0.67696  0.78616  1.0000
  H   H571      1.0  0.85614  0.73390  0.52639  1.0000
  C   C474      1.0  0.67724  0.86723  0.54420  1.0000
  C   C475      1.0  0.92261  0.75987  0.53708  1.0000
  C   C476      1.0  0.53457  0.70138  0.00478  1.0000
  C   C477      1.0  0.69562  0.84215  0.52248  1.0000
  C   C478      1.0  0.95875  0.75501  0.53533  1.0000
  N   N32       1.0  0.69412  0.67171  0.85098  1.0000
  H   H572      1.0  0.67657  0.99231  0.78254  1.0000
  H   H573      1.0  0.86186  0.79576  0.51695  1.0000
  H   H574      1.0  0.84120  0.93669  0.52749  1.0000
  H   H575      1.0  0.58425  0.67400  0.95109  1.0000
  C   C479      1.0  0.67415  0.67291  0.89025  1.0000
  H   H576      1.0  0.52839  0.69228  0.93861  1.0000
  C   C480      1.0  0.66975  0.67927  0.81673  1.0000
