data_image0
_chemical_formula_structural       HSCHSFeS2FeSFeS3HC6H4C4HC3H4CNC3SH7C2HCH2SCH6CHFeHNH2FeHC3NC5H4C2HCH2CH2CH2C2H2C2H3C3FeS2FeS2FeHFeS4H4C2H3C3H2S2C4NHC2H9C4HC2HCHCH2NCHCH2C2HSHC2H4CH3CHC2HFeS2FeS2HFeS3CH2CHCHC6H4C3H6C2HCH2CH2SH3NCHFeCHCHC3H6NHCHCH2SCHFeC2H2CSHFeC2HC2HCH2FeHC2HCFeS2FeS2FeSFeS4H2CH2C3HCHC2HCH2C3HC4NHCHCH2NHC4H3CHC2H2CFeCHC5H2CHCHNC3H2CH4CH2C2HCHCSHCH2CH2SCH2CH2SH3C2HCH2NC2H6C3H2SCH2C2FeCSCS2CHFeC7H6NC2SHCSHCH2CH2SHCH3FeH3NHC2HC3HC2SHC3H2C2HNCHSCHCHCH2CHSCH5CFeHCNH4C2H2C2H5CH2SHSHCH2SCSHCSCH2SCHCHNSFeC3H4C3H3SHCNC9FeC2H3CNFeH5CHCH4C3H3C3H7SFeCHFeCS2H4CS2HC2SC2SH2C2H2C6H4C2H3S2CFeHCHC2NC4H3NH2NH2SHCH2C3H4C3H2CHC3H2FeHC2H2SHCFeH3CSHSH2CHCHC2SHC2H2FeCHFeHCHSCHC2H3CFeCHSC2HCH5C3H3CH2CHC2HCHNC3NC2SH2CHCHC3H3S2HCH5SCHFeH4FeSHFeS2FeS2C2H2FeHCH2CNCH2CH3SH2C6H5CHCHC2HCSNCH7CH5CH2C3SHSCH3CNC12H4CSCHC2H2CHCHFeH4CH5FeS2FeSHFeSFeSHSH2SHCH2FeCHCH4C4HC2H2SC2H2FeCHC2H3NH2SNCS2CHCH4CH2SHCHCHC2SCHC2H4C5H2C4H2CHC6FeCFeH3CHCFeH2C2H2FeHSFeSFeHS2C2SC2H2C7H4C3NC2H2NCSFe2CHCH2CHCHC2H3CHSH3CHCS3H5CFeHSCSH2CFeH8CHC3HCHCH2CSH2CH2SNCH2FeS2FeCFeSFeHS2CH2C4H3C3HCHC2H6C2HCHC2HCSC2HCHNCHC3HCFe2H5SCHCHCHSC2SH4CH2SHC5H2
_chemical_formula_sum              "H576 S128 C480 Fe64 N32"
_cell_length_a       27.0107
_cell_length_b       27.3053
_cell_length_c       27.0769
_cell_angle_alpha    90.0601
_cell_angle_beta     88.6879
_cell_angle_gamma    86.9009

_space_group_name_H-M_alt    "P 1"
_space_group_IT_number       1

loop_
  _space_group_symop_operation_xyz
  'x, y, z'

loop_
  _atom_site_type_symbol
  _atom_site_label
  _atom_site_symmetry_multiplicity
  _atom_site_fract_x
  _atom_site_fract_y
  _atom_site_fract_z
  _atom_site_occupancy
  H   H1        1.0  0.06268  0.28800  0.37232  1.0000
  S   S1        1.0  0.03902  0.46991  0.46555  1.0000
  C   C1        1.0  0.12671  0.42670  0.18176  1.0000
  H   H2        1.0  0.08239  0.20919  0.04849  1.0000
  S   S2        1.0  0.28754  0.20736  0.27666  1.0000
  Fe  Fe1       1.0  0.27071  0.34810  0.25731  1.0000
  S   S3        1.0  0.20678  0.29956  0.26578  1.0000
  S   S4        1.0  0.24514  0.42420  0.23217  1.0000
  Fe  Fe2       1.0  0.25091  0.26454  0.32700  1.0000
  S   S5        1.0  0.21199  0.24684  0.39918  1.0000
  Fe  Fe3       1.0  0.25009  0.24774  0.21478  1.0000
  S   S6        1.0  0.22557  0.21803  0.14187  1.0000
  S   S7        1.0  0.31263  0.31641  0.32200  1.0000
  S   S8        1.0  0.31183  0.29818  0.20243  1.0000
  H   H3        1.0  0.19276  0.35137  0.16863  1.0000
  C   C2        1.0  0.18125  0.17310  0.13964  1.0000
  C   C3        1.0  0.16630  0.15654  0.09349  1.0000
  C   C4        1.0  0.13000  0.12171  0.09033  1.0000
  C   C5        1.0  0.10844  0.10337  0.13342  1.0000
  C   C6        1.0  0.12370  0.11962  0.17958  1.0000
  C   C7        1.0  0.16015  0.15430  0.18274  1.0000
  H   H4        1.0  0.18274  0.17080  0.06002  1.0000
  H   H5        1.0  0.11858  0.10925  0.05460  1.0000
  H   H6        1.0  0.10724  0.10538  0.21306  1.0000
  H   H7        1.0  0.17166  0.16667  0.21846  1.0000
  C   C8        1.0  0.21405  0.26428  0.49901  1.0000
  C   C9        1.0  0.24076  0.26400  0.45390  1.0000
  C   C10       1.0  0.29047  0.27578  0.45326  1.0000
  C   C11       1.0  0.06200  0.24708  0.47509  1.0000
  H   H8        1.0  0.31171  0.27515  0.41901  1.0000
  C   C12       1.0  0.18996  0.08112  0.45035  1.0000
  C   C13       1.0  0.07403  0.26574  0.19806  1.0000
  C   C14       1.0  0.25725  0.48102  0.25931  1.0000
  H   H9        1.0  0.13584  0.32132  0.40731  1.0000
  H   H10       1.0  0.34150  0.22202  0.11260  1.0000
  H   H11       1.0  0.28300  0.45164  0.32827  1.0000
  H   H12       1.0  0.09134  0.44892  0.18691  1.0000
  C   C15       1.0  0.04999  0.40315  0.32548  1.0000
  N   N1        1.0  0.17031  0.41367  0.39634  1.0000
  C   C16       1.0  0.21427  0.38644  0.37435  1.0000
  C   C17       1.0  0.17569  0.46655  0.38605  1.0000
  C   C18       1.0  0.12472  0.39452  0.37582  1.0000
  S   S9        1.0  0.05405  0.14763  0.46557  1.0000
  H   H13       1.0  0.17292  0.36762  0.46178  1.0000
  H   H14       1.0  0.06426  0.42391  0.10635  1.0000
  H   H15       1.0  0.24939  0.39927  0.38938  1.0000
  H   H16       1.0  0.17961  0.47388  0.34579  1.0000
  H   H17       1.0  0.20935  0.48041  0.40326  1.0000
  H   H18       1.0  0.09812  0.46063  0.33594  1.0000
  H   H19       1.0  0.29466  0.17491  0.48135  1.0000
  C   C19       1.0  0.28465  0.03563  0.45836  1.0000
  C   C20       1.0  0.03533  0.20626  0.48903  1.0000
  H   H20       1.0  0.35213  0.29572  0.49675  1.0000
  C   C21       1.0  0.17107  0.40687  0.45077  1.0000
  H   H21       1.0  0.12540  0.43097  0.08211  1.0000
  H   H22       1.0  0.34313  0.42938  0.11323  1.0000
  S   S10       1.0  0.06147  0.06117  0.13102  1.0000
  C   C22       1.0  0.23188  0.10815  0.44215  1.0000
  H   H23       1.0  0.09391  0.24207  0.45032  1.0000
  H   H24       1.0  0.13880  0.41325  0.21863  1.0000
  H   H25       1.0  0.08707  0.22797  0.20376  1.0000
  H   H26       1.0  0.22564  0.14664  0.43364  1.0000
  H   H27       1.0  0.15463  0.45267  0.16860  1.0000
  H   H28       1.0  0.31539  0.46558  0.16288  1.0000
  C   C23       1.0  0.19520  0.03167  0.46276  1.0000
  H   H29       1.0  0.33583  0.13157  0.51171  1.0000
  Fe  Fe4       1.0  0.34711  0.26117  0.26756  1.0000
  H   H30       1.0  0.19739  0.39375  0.11909  1.0000
  N   N2        1.0  0.32441  0.11538  0.43503  1.0000
  H   H31       1.0  0.17532  0.25605  0.49963  1.0000
  H   H32       1.0  0.33169  0.40192  0.17224  1.0000
  Fe  Fe5       1.0  0.03235  0.03700  0.05792  1.0000
  H   H33       1.0  0.15314  0.09869  0.44688  1.0000
  C   C24       1.0  0.31895  0.14324  0.38816  1.0000
  C   C25       1.0  0.04796  0.29420  0.49359  1.0000
  C   C26       1.0  0.31362  0.28671  0.49751  1.0000
  N   N3        1.0  0.12258  0.38522  0.14684  1.0000
  C   C27       1.0  0.17375  0.36512  0.13495  1.0000
  C   C28       1.0  0.10105  0.40431  0.10030  1.0000
  C   C29       1.0  0.28060  0.08604  0.44468  1.0000
  C   C30       1.0  0.08995  0.34877  0.16890  1.0000
  C   C31       1.0  0.10571  0.29884  0.17633  1.0000
  H   H34       1.0  0.09596  0.37404  0.07362  1.0000
  H   H35       1.0  0.13784  0.42512  0.46910  1.0000
  H   H36       1.0  0.20410  0.42286  0.46719  1.0000
  H   H37       1.0  0.14248  0.28439  0.16604  1.0000
  C   C32       1.0  0.34385  0.43567  0.15385  1.0000
  C   C33       1.0  0.07070  0.32585  0.36481  1.0000
  H   H38       1.0  0.06886  0.32538  0.48320  1.0000
  C   C34       1.0  0.27501  0.48445  0.30713  1.0000
  H   H39       1.0  0.21425  0.34669  0.38237  1.0000
  H   H40       1.0  0.17403  0.33485  0.10734  1.0000
  C   C35       1.0  0.11265  0.34534  0.38484  1.0000
  H   H41       1.0  0.28901  0.17262  0.39051  1.0000
  H   H42       1.0  0.14349  0.48930  0.40121  1.0000
  C   C36       1.0  0.32878  0.15071  0.47608  1.0000
  H   H43       1.0  0.31083  0.11863  0.35693  1.0000
  H   H44       1.0  0.21566  0.39075  0.33349  1.0000
  C   C37       1.0  0.09206  0.42295  0.34516  1.0000
  C   C38       1.0  0.04362  0.22181  0.05019  1.0000
  H   H45       1.0  0.35309  0.16257  0.37798  1.0000
  H   H46       1.0  0.36003  0.17507  0.46931  1.0000
  C   C39       1.0  0.03937  0.35470  0.33527  1.0000
  C   C40       1.0  0.04051  0.36298  0.18385  1.0000
  H   H47       1.0  0.32003  0.01586  0.46250  1.0000
  H   H48       1.0  0.34105  0.16135  0.13774  1.0000
  H   H49       1.0  0.16259  0.01087  0.46937  1.0000
  C   C41       1.0  0.02807  0.26373  0.02432  1.0000
  C   C42       1.0  0.27288  0.47959  0.57573  1.0000
  C   C43       1.0  0.22599  0.49953  0.01531  1.0000
  Fe  Fe6       1.0  0.25125  0.35947  0.76103  1.0000
  S   S11       1.0  0.32581  0.33398  0.73070  1.0000
  S   S12       1.0  0.22877  0.43178  0.79736  1.0000
  Fe  Fe7       1.0  0.20987  0.25964  0.74936  1.0000
  S   S13       1.0  0.28160  0.22485  0.71808  1.0000
  S   S14       1.0  0.14216  0.21781  0.76913  1.0000
  Fe  Fe8       1.0  0.31835  0.26672  0.77731  1.0000
  H   H50       1.0  0.05218  0.07149  0.69459  1.0000
  Fe  Fe9       1.0  0.28394  0.29431  0.67369  1.0000
  S   S15       1.0  0.31959  0.29561  0.59751  1.0000
  S   S16       1.0  0.24678  0.29539  0.81235  1.0000
  S   S17       1.0  0.20928  0.32591  0.70016  1.0000
  S   S18       1.0  0.06817  0.47230  0.58453  1.0000
  H   H51       1.0  0.18319  0.15989  0.54091  1.0000
  H   H52       1.0  0.28454  0.45666  0.70788  1.0000
  H   H53       1.0  0.16766  0.19928  0.67100  1.0000
  H   H54       1.0  0.07349  0.45386  0.87013  1.0000
  C   C44       1.0  0.28746  0.28574  0.54276  1.0000
  C   C45       1.0  0.19308  0.05847  0.70041  1.0000
  H   H55       1.0  0.32061  0.10352  0.90572  1.0000
  H   H56       1.0  0.21663  0.27652  0.57794  1.0000
  H   H57       1.0  0.19458  0.07801  0.55889  1.0000
  C   C46       1.0  0.14460  0.15919  0.55607  1.0000
  C   C47       1.0  0.24137  0.48794  0.76905  1.0000
  C   C48       1.0  0.34943  0.16535  0.86721  1.0000
  H   H58       1.0  0.19284  0.48801  0.99809  1.0000
  H   H59       1.0  0.08558  0.16161  0.66804  1.0000
  S   S19       1.0  0.08237  0.47715  0.98579  1.0000
  S   S20       1.0  0.05105  0.07721  0.87631  1.0000
  C   C49       1.0  0.23730  0.27548  0.54335  1.0000
  C   C50       1.0  0.21866  0.02510  0.66883  1.0000
  C   C51       1.0  0.08551  0.23386  0.74079  1.0000
  C   C52       1.0  0.08309  0.26758  0.70195  1.0000
  N   N4        1.0  0.07762  0.38982  0.82380  1.0000
  H   H60       1.0  0.11606  0.28449  0.68894  1.0000
  C   C53       1.0  0.09028  0.15996  0.62726  1.0000
  C   C54       1.0  0.19298  0.07418  0.59849  1.0000
  H   H61       1.0  0.10159  0.32235  0.78658  1.0000
  H   H62       1.0  0.12486  0.19351  0.54319  1.0000
  H   H63       1.0  0.07083  0.19392  0.61284  1.0000
  H   H64       1.0  0.14975  0.35273  0.81548  1.0000
  H   H65       1.0  0.15150  0.23330  0.61709  1.0000
  H   H66       1.0  0.20877  0.19599  0.61853  1.0000
  H   H67       1.0  0.04398  0.18539  0.78659  1.0000
  H   H68       1.0  0.12586  0.12847  0.53884  1.0000
  H   H69       1.0  0.13508  0.43030  0.85715  1.0000
  C   C55       1.0  0.03301  0.06165  0.72829  1.0000
  C   C56       1.0  0.27061  0.49016  0.72592  1.0000
  C   C57       1.0  0.04222  0.21199  0.75698  1.0000
  C   C58       1.0  0.21801  0.03261  0.61797  1.0000
  H   H70       1.0  0.12059  0.43305  0.77326  1.0000
  C   C59       1.0  0.16740  0.10954  0.62975  1.0000
  C   C60       1.0  0.10994  0.34435  0.81945  1.0000
  H   H71       1.0  0.31457  0.17581  0.85018  1.0000
  C   C61       1.0  0.16785  0.10007  0.68133  1.0000
  H   H72       1.0  0.08548  0.09376  0.77626  1.0000
  C   C62       1.0  0.22534  0.49257  0.55773  1.0000
  H   H73       1.0  0.27634  0.45995  0.61028  1.0000
  H   H74       1.0  0.27346  0.47850  0.95300  1.0000
  N   N5        1.0  0.14320  0.15552  0.61078  1.0000
  C   C63       1.0  0.08289  0.41853  0.77759  1.0000
  H   H75       1.0  0.09717  0.39851  0.90005  1.0000
  C   C64       1.0  0.09644  0.41926  0.86476  1.0000
  H   H76       1.0  0.14953  0.12541  0.70754  1.0000
  H   H77       1.0  0.19263  0.48289  0.57847  1.0000
  C   C65       1.0  0.16888  0.19786  0.63012  1.0000
  C   C66       1.0  0.35295  0.12439  0.89869  1.0000
  H   H78       1.0  0.06967  0.12847  0.61431  1.0000
  S   S21       1.0  0.06702  0.03938  0.55766  1.0000
  H   H79       1.0  0.10581  0.32037  0.85232  1.0000
  C   C67       1.0  0.31598  0.49156  0.54920  1.0000
  C   C68       1.0  0.05177  0.07419  0.77453  1.0000
  H   H80       1.0  0.05549  0.45038  0.77723  1.0000
  H   H81       1.0  0.19318  0.05255  0.74003  1.0000
  H   H82       1.0  0.35521  0.43480  0.76814  1.0000
  H   H83       1.0  0.35395  0.37204  0.82658  1.0000
  C   C69       1.0  0.27175  0.49417  0.98977  1.0000
  H   H84       1.0  0.07736  0.39636  0.74390  1.0000
  H   H85       1.0  0.05464  0.28366  0.00279  1.0000
  H   H86       1.0  0.34691  0.43328  0.85261  1.0000
  C   C70       1.0  0.03770  0.27948  0.67956  1.0000
  H   H87       1.0  0.03598  0.30564  0.64948  1.0000
  C   C71       1.0  0.31498  0.50978  0.01116  1.0000
  C   C72       1.0  0.02719  0.06121  0.81855  1.0000
  H   H88       1.0  0.34941  0.68865  0.40641  1.0000
  Fe  Fe10      1.0  0.25663  0.73409  0.17248  1.0000
  S   S22       1.0  0.32673  0.69316  0.19560  1.0000
  S   S23       1.0  0.21230  0.72092  0.10471  1.0000
  Fe  Fe11      1.0  0.25073  0.80073  0.26368  1.0000
  S   S24       1.0  0.32013  0.76586  0.29485  1.0000
  S   S25       1.0  0.20917  0.87069  0.28873  1.0000
  H   H89       1.0  0.10723  0.83051  0.07700  1.0000
  Fe  Fe12      1.0  0.28978  0.69440  0.27098  1.0000
  S   S26       1.0  0.29375  0.63006  0.32317  1.0000
  S   S27       1.0  0.28397  0.80804  0.18766  1.0000
  S   S28       1.0  0.21741  0.72945  0.24631  1.0000
  C   C73       1.0  0.26361  0.53041  0.48688  1.0000
  H   H90       1.0  0.34478  0.54601  0.07324  1.0000
  H   H91       1.0  0.10511  0.85722  0.24606  1.0000
  C   C74       1.0  0.22057  0.51841  0.51334  1.0000
  H   H92       1.0  0.16661  0.85384  0.08496  1.0000
  C   C75       1.0  0.22326  0.52012  0.06264  1.0000
  H   H93       1.0  0.10778  0.71411  0.23210  1.0000
  C   C76       1.0  0.18255  0.87946  0.34834  1.0000
  C   C77       1.0  0.19121  0.84580  0.38650  1.0000
  C   C78       1.0  0.17098  0.85570  0.43414  1.0000
  C   C79       1.0  0.14112  0.89862  0.44347  1.0000
  C   C80       1.0  0.13191  0.93166  0.40496  1.0000
  C   C81       1.0  0.15288  0.92231  0.35776  1.0000
  H   H94       1.0  0.21412  0.81267  0.37954  1.0000
  H   H95       1.0  0.17847  0.83003  0.46376  1.0000
  H   H96       1.0  0.10924  0.96489  0.41156  1.0000
  H   H97       1.0  0.14610  0.94857  0.32845  1.0000
  C   C82       1.0  0.27716  0.57334  0.29894  1.0000
  C   C83       1.0  0.25885  0.56995  0.25123  1.0000
  C   C84       1.0  0.32097  0.97624  0.03925  1.0000
  H   H98       1.0  0.25344  0.60264  0.22905  1.0000
  H   H99       1.0  0.26444  0.55329  0.11996  1.0000
  H   H100      1.0  0.12178  0.93810  0.09659  1.0000
  H   H101      1.0  0.03778  0.81994  0.29001  1.0000
  H   H102      1.0  0.06726  0.73098  0.18263  1.0000
  H   H103      1.0  0.17351  0.85745  0.19207  1.0000
  C   C85       1.0  0.07486  0.84543  0.22424  1.0000
  C   C86       1.0  0.09004  0.65207  0.12596  1.0000
  H   H104      1.0  0.31062  0.75020  0.07602  1.0000
  C   C87       1.0  0.24795  0.52403  0.23196  1.0000
  H   H105      1.0  0.05862  0.67607  0.11250  1.0000
  H   H106      1.0  0.13716  0.58703  0.18766  1.0000
  C   C88       1.0  0.23807  0.73917  0.04784  1.0000
  H   H107      1.0  0.30677  0.88904  0.08258  1.0000
  H   H108      1.0  0.15276  0.63290  0.23173  1.0000
  S   S29       1.0  0.16196  0.53731  0.48951  1.0000
  H   H109      1.0  0.07489  0.94584  0.14453  1.0000
  H   H110      1.0  0.30597  0.89398  0.34186  1.0000
  H   H111      1.0  0.27583  0.88350  0.42583  1.0000
  N   N6        1.0  0.09532  0.65599  0.18030  1.0000
  C   C89       1.0  0.14143  0.62702  0.19312  1.0000
  H   H112      1.0  0.33907  0.85260  0.03468  1.0000
  Fe  Fe13      1.0  0.35111  0.76743  0.21741  1.0000
  C   C90       1.0  0.05224  0.63891  0.20906  1.0000
  H   H113      1.0  0.24598  0.97055  0.47698  1.0000
  C   C91       1.0  0.31473  0.88965  0.41919  1.0000
  H   H114      1.0  0.06441  0.91016  0.09032  1.0000
  C   C92       1.0  0.28362  0.53064  0.32740  1.0000
  C   C93       1.0  0.13441  0.83932  0.10540  1.0000
  C   C94       1.0  0.31224  0.53105  0.05814  1.0000
  H   H115      1.0  0.14228  0.91713  0.20220  1.0000
  H   H116      1.0  0.17367  0.63699  0.16937  1.0000
  H   H117      1.0  0.26034  0.55055  0.45260  1.0000
  H   H118      1.0  0.23321  0.52169  0.19528  1.0000
  H   H119      1.0  0.18415  0.90690  0.15091  1.0000
  H   H120      1.0  0.25423  0.85217  0.02782  1.0000
  N   N7        1.0  0.11334  0.87457  0.14307  1.0000
  H   H121      1.0  0.14738  0.80421  0.12279  1.0000
  C   C95       1.0  0.09266  0.91897  0.11764  1.0000
  H   H122      1.0  0.08636  0.64502  0.28107  1.0000
  C   C96       1.0  0.15496  0.88961  0.17354  1.0000
  H   H123      1.0  0.08489  0.61359  0.11465  1.0000
  H   H124      1.0  0.33552  0.93235  0.27371  1.0000
  S   S30       1.0  0.11700  0.91103  0.50368  1.0000
  C   C97       1.0  0.07353  0.85167  0.17206  1.0000
  H   H125      1.0  0.28123  0.64054  0.04053  1.0000
  Fe  Fe14      1.0  0.10054  0.53114  0.04420  1.0000
  C   C98       1.0  0.10110  0.70829  0.19224  1.0000
  C   C99       1.0  0.28763  0.75128  0.04377  1.0000
  H   H126      1.0  0.29781  0.53302  0.36433  1.0000
  H   H127      1.0  0.13282  0.72312  0.17139  1.0000
  C   C100      1.0  0.05360  0.63618  0.26144  1.0000
  S   S31       1.0  0.16580  0.52774  0.09452  1.0000
  H   H128      1.0  0.12365  0.66369  0.10540  1.0000
  Fe  Fe15      1.0  0.05725  0.97239  0.51140  1.0000
  C   C101      1.0  0.33448  0.88971  0.05163  1.0000
  C   C102      1.0  0.26654  0.53569  0.08415  1.0000
  H   H129      1.0  0.35417  0.86764  0.27160  1.0000
  C   C103      1.0  0.31104  0.51669  0.50443  1.0000
  C   C104      1.0  0.34642  0.89133  0.45896  1.0000
  H   H130      1.0  0.34384  0.52623  0.48367  1.0000
  C   C105      1.0  0.33274  0.89589  0.37081  1.0000
  H   H131      1.0  0.33234  0.88631  0.49639  1.0000
  H   H132      1.0  0.28955  0.98128  0.06639  1.0000
  Fe  Fe16      1.0  0.08615  0.51413  0.51529  1.0000
  H   H133      1.0  0.35589  0.98050  0.05934  1.0000
  C   C106      1.0  0.24237  0.00906  0.46707  1.0000
  C   C107      1.0  0.03166  0.83453  0.14793  1.0000
  H   H134      1.0  0.02828  0.83809  0.10847  1.0000
  C   C108      1.0  0.03630  0.82376  0.25016  1.0000
  Fe  Fe17      1.0  0.25205  0.70774  0.74133  1.0000
  S   S32       1.0  0.20807  0.71659  0.81279  1.0000
  S   S33       1.0  0.28116  0.63659  0.70578  1.0000
  Fe  Fe18      1.0  0.25740  0.81821  0.72446  1.0000
  S   S34       1.0  0.21528  0.83526  0.79508  1.0000
  S   S35       1.0  0.27343  0.88367  0.67628  1.0000
  Fe  Fe19      1.0  0.26169  0.77449  0.82896  1.0000
  S   S36       1.0  0.30468  0.78332  0.89875  1.0000
  Fe  Fe20      1.0  0.16527  0.77659  0.77212  1.0000
  S   S37       1.0  0.08494  0.80397  0.77603  1.0000
  S   S38       1.0  0.30851  0.76192  0.75997  1.0000
  S   S39       1.0  0.20477  0.76303  0.69927  1.0000
  S   S40       1.0  0.08799  0.59665  0.99593  1.0000
  H   H135      1.0  0.12583  0.86283  0.62533  1.0000
  H   H136      1.0  0.17091  0.72933  0.00849  1.0000
  C   C109      1.0  0.14931  0.71981  0.57774  1.0000
  H   H137      1.0  0.06948  0.70008  0.75709  1.0000
  H   H138      1.0  0.17919  0.60080  0.93051  1.0000
  C   C110      1.0  0.09714  0.92669  0.73185  1.0000
  C   C111      1.0  0.21629  0.60944  0.94075  1.0000
  C   C112      1.0  0.08661  0.54523  0.76238  1.0000
  H   H139      1.0  0.12548  0.84054  0.68787  1.0000
  C   C113      1.0  0.05701  0.77166  0.00546  1.0000
  H   H140      1.0  0.13895  0.56315  0.61028  1.0000
  C   C114      1.0  0.09868  0.95616  0.64786  1.0000
  C   C115      1.0  0.27861  0.76479  0.95536  1.0000
  H   H141      1.0  0.03477  0.86143  0.69100  1.0000
  C   C116      1.0  0.22910  0.75254  0.95941  1.0000
  H   H142      1.0  0.04814  0.80755  0.88846  1.0000
  H   H143      1.0  0.20635  0.75310  0.92705  1.0000
  C   C117      1.0  0.26423  0.57963  0.72947  1.0000
  C   C118      1.0  0.23278  0.57723  0.77088  1.0000
  C   C119      1.0  0.30794  0.76363  0.99748  1.0000
  H   H144      1.0  0.21672  0.61053  0.78752  1.0000
  C   C120      1.0  0.17773  0.91254  0.94913  1.0000
  C   C121      1.0  0.12207  0.60058  0.60323  1.0000
  C   C122      1.0  0.22606  0.62112  0.98947  1.0000
  C   C123      1.0  0.27159  0.92178  0.99247  1.0000
  N   N8        1.0  0.09153  0.91281  0.67941  1.0000
  H   H145      1.0  0.11259  0.97082  0.86821  1.0000
  C   C124      1.0  0.12923  0.87368  0.66465  1.0000
  H   H146      1.0  0.35064  0.53724  0.88256  1.0000
  C   C125      1.0  0.05717  0.92748  0.76700  1.0000
  H   H147      1.0  0.11492  0.63191  0.69696  1.0000
  H   H148      1.0  0.29699  0.64636  0.82053  1.0000
  N   N9        1.0  0.34339  0.61584  0.87806  1.0000
  H   H149      1.0  0.34825  0.63935  0.97981  1.0000
  C   C126      1.0  0.14887  0.95743  0.79742  1.0000
  C   C127      1.0  0.27389  0.63167  0.00244  1.0000
  C   C128      1.0  0.06736  0.68388  0.88679  1.0000
  C   C129      1.0  0.12803  0.68773  0.61270  1.0000
  H   H150      1.0  0.16775  0.88515  0.66799  1.0000
  H   H151      1.0  0.08339  0.60188  0.61836  1.0000
  H   H152      1.0  0.17313  0.66059  0.69742  1.0000
  C   C130      1.0  0.20325  0.63135  0.60557  1.0000
  H   H153      1.0  0.12043  0.60507  0.56246  1.0000
  C   C131      1.0  0.03236  0.77172  0.76217  1.0000
  C   C132      1.0  0.08097  0.70314  0.63359  1.0000
  H   H154      1.0  0.17538  0.94226  0.72427  1.0000
  H   H155      1.0  0.19911  0.52999  0.82424  1.0000
  C   C133      1.0  0.33300  0.88742  0.64910  1.0000
  Fe  Fe21      1.0  0.06323  0.54357  0.93948  1.0000
  C   C134      1.0  0.30370  0.61827  0.91688  1.0000
  H   H156      1.0  0.09742  0.65590  0.88542  1.0000
  C   C135      1.0  0.22235  0.53155  0.79124  1.0000
  C   C136      1.0  0.07933  0.77874  0.58695  1.0000
  C   C137      1.0  0.04209  0.89451  0.66863  1.0000
  C   C138      1.0  0.25442  0.60813  0.90502  1.0000
  C   C139      1.0  0.34385  0.92883  0.62092  1.0000
  H   H157      1.0  0.07958  0.54165  0.68333  1.0000
  H   H158      1.0  0.09444  0.94729  0.60809  1.0000
  C   C140      1.0  0.34641  0.56662  0.85442  1.0000
  H   H159      1.0  0.20513  0.62947  0.56447  1.0000
  C   C141      1.0  0.14328  0.94197  0.74871  1.0000
  H   H160      1.0  0.03250  0.94217  0.84201  1.0000
  N   N10       1.0  0.15141  0.63900  0.62495  1.0000
  C   C142      1.0  0.06000  0.54553  0.71841  1.0000
  C   C143      1.0  0.03444  0.72098  0.75463  1.0000
  C   C144      1.0  0.19601  0.87697  0.98171  1.0000
  H   H161      1.0  0.11608  0.74369  0.88414  1.0000
  H   H162      1.0  0.31564  0.95792  0.61618  1.0000
  C   C145      1.0  0.10889  0.95770  0.83082  1.0000
  H   H163      1.0  0.14192  0.90867  0.93261  1.0000
  H   H164      1.0  0.34653  0.77227  0.99430  1.0000
  H   H165      1.0  0.30590  0.53759  0.67355  1.0000
  H   H166      1.0  0.32758  0.69049  0.85617  1.0000
  C   C146      1.0  0.20563  0.95263  0.93768  1.0000
  H   H167      1.0  0.12660  0.54133  0.76067  1.0000
  H   H168      1.0  0.18436  0.96923  0.80927  1.0000
  C   C147      1.0  0.03953  0.76918  0.88847  1.0000
  C   C148      1.0  0.28248  0.53600  0.70648  1.0000
  H   H169      1.0  0.22690  0.66078  0.61838  1.0000
  C   C149      1.0  0.25205  0.95707  0.95859  1.0000
  H   H170      1.0  0.03910  0.88438  0.62909  1.0000
  C   C150      1.0  0.15236  0.63178  0.67929  1.0000
  S   S41       1.0  0.07314  0.99932  0.99467  1.0000
  H   H171      1.0  0.27275  0.98832  0.94782  1.0000
  C   C151      1.0  0.05762  0.74844  0.62163  1.0000
  H   H172      1.0  0.06152  0.68004  0.65899  1.0000
  H   H173      1.0  0.24498  0.59880  0.86802  1.0000
  C   C152      1.0  0.07800  0.73317  0.88618  1.0000
  H   H174      1.0  0.19139  0.98034  0.91230  1.0000
  H   H175      1.0  0.17436  0.84545  0.98961  1.0000
  S   S42       1.0  0.09675  0.54976  0.86259  1.0000
  C   C153      1.0  0.06176  0.54927  0.80841  1.0000
  H   H176      1.0  0.07118  0.98654  0.65794  1.0000
  H   H177      1.0  0.22115  0.59597  0.61843  1.0000
  C   C154      1.0  0.31228  0.63067  0.96689  1.0000
  H   H178      1.0  0.17063  0.59565  0.68894  1.0000
  H   H179      1.0  0.06364  0.69393  0.01626  1.0000
  S   S43       1.0  0.05095  0.86978  0.99016  1.0000
  H   H180      1.0  0.06076  0.81328  0.57662  1.0000
  H   H181      1.0  0.13617  0.97018  0.65142  1.0000
  H   H182      1.0  0.09480  0.77360  0.99181  1.0000
  C   C155      1.0  0.06349  0.94194  0.81586  1.0000
  C   C156      1.0  0.20891  0.73974  0.00562  1.0000
  H   H183      1.0  0.23889  0.99320  0.68371  1.0000
  C   C157      1.0  0.33188  0.65313  0.83968  1.0000
  H   H184      1.0  0.35511  0.95592  0.94795  1.0000
  H   H185      1.0  0.35856  0.89018  0.95361  1.0000
  N   N11       1.0  0.32067  0.92776  0.01440  1.0000
  C   C158      1.0  0.24214  0.88135  0.00337  1.0000
  C   C159      1.0  0.12511  0.76457  0.56524  1.0000
  H   H186      1.0  0.18450  0.71098  0.55924  1.0000
  H   H187      1.0  0.31270  0.55936  0.83357  1.0000
  H   H188      1.0  0.14188  0.78855  0.53843  1.0000
  H   H189      1.0  0.23732  0.00613  0.59349  1.0000
  H   H190      1.0  0.31855  0.00729  0.01270  1.0000
  H   H191      1.0  0.19671  0.62186  0.01747  1.0000
  C   C160      1.0  0.03925  0.72631  0.01908  1.0000
  C   C161      1.0  0.35949  0.92517  0.97469  1.0000
  C   C162      1.0  0.44533  0.23753  0.03645  1.0000
  H   H192      1.0  0.55434  0.43507  0.25553  1.0000
  H   H193      1.0  0.60214  0.24161  0.45768  1.0000
  S   S44       1.0  0.62596  0.32455  0.25153  1.0000
  C   C163      1.0  0.65049  0.42419  0.34333  1.0000
  H   H194      1.0  0.53711  0.09411  0.25892  1.0000
  H   H195      1.0  0.45472  0.23590  0.16218  1.0000
  C   C164      1.0  0.46004  0.23953  0.47824  1.0000
  C   C165      1.0  0.53199  0.49991  0.21476  1.0000
  Fe  Fe22      1.0  0.53187  0.01966  0.08690  1.0000
  C   C166      1.0  0.38799  0.41754  0.25746  1.0000
  S   S45       1.0  0.57936  0.05840  0.45234  1.0000
  C   C167      1.0  0.43734  0.22050  0.08555  1.0000
  S   S46       1.0  0.42204  0.22001  0.26622  1.0000
  S   S47       1.0  0.45243  0.44920  0.44910  1.0000
  C   C168      1.0  0.61571  0.30623  0.11350  1.0000
  H   H196      1.0  0.36790  0.12056  0.06273  1.0000
  Fe  Fe23      1.0  0.52508  0.41512  0.47437  1.0000
  C   C169      1.0  0.53337  0.28538  0.46216  1.0000
  C   C170      1.0  0.56957  0.29515  0.25808  1.0000
  C   C171      1.0  0.56858  0.24525  0.26941  1.0000
  C   C172      1.0  0.52305  0.22260  0.27220  1.0000
  C   C173      1.0  0.47830  0.24986  0.26461  1.0000
  C   C174      1.0  0.47934  0.29964  0.25338  1.0000
  C   C175      1.0  0.52482  0.32210  0.24969  1.0000
  H   H197      1.0  0.60276  0.22415  0.27620  1.0000
  H   H198      1.0  0.52243  0.18397  0.28090  1.0000
  H   H199      1.0  0.44516  0.32057  0.24708  1.0000
  H   H200      1.0  0.52521  0.36042  0.24015  1.0000
  H   H201      1.0  0.40347  0.10780  0.42006  1.0000
  H   H202      1.0  0.56358  0.16308  0.47541  1.0000
  N   N12       1.0  0.64266  0.16721  0.11973  1.0000
  C   C176      1.0  0.62420  0.16116  0.17147  1.0000
  C   C177      1.0  0.49397  0.30329  0.06567  1.0000
  S   S48       1.0  0.56846  0.47927  0.45105  1.0000
  H   H203      1.0  0.66516  0.38586  0.33648  1.0000
  C   C178      1.0  0.48702  0.28746  0.11410  1.0000
  S   S49       1.0  0.55038  0.47279  0.15761  1.0000
  H   H204      1.0  0.44441  0.50414  0.15230  1.0000
  C   C179      1.0  0.68046  0.44461  0.26235  1.0000
  H   H205      1.0  0.57600  0.14328  0.08769  1.0000
  H   H206      1.0  0.64558  0.18212  0.19818  1.0000
  C   C180      1.0  0.63543  0.21801  0.10088  1.0000
  H   H207      1.0  0.62767  0.12209  0.18366  1.0000
  H   H208      1.0  0.36309  0.17843  0.03231  1.0000
  S   S50       1.0  0.46100  0.14109  0.49861  1.0000
  H   H209      1.0  0.38929  0.39333  0.33336  1.0000
  C   C181      1.0  0.39045  0.42436  0.30852  1.0000
  H   H210      1.0  0.38210  0.06804  0.46652  1.0000
  H   H211      1.0  0.40930  0.48460  0.10101  1.0000
  H   H212      1.0  0.62004  0.09447  0.10320  1.0000
  Fe  Fe24      1.0  0.52808  0.50277  0.08311  1.0000
  H   H213      1.0  0.42041  0.23903  0.48411  1.0000
  H   H214      1.0  0.52894  0.46994  0.33724  1.0000
  H   H215      1.0  0.54428  0.04886  0.33812  1.0000
  N   N13       1.0  0.40827  0.17731  0.09728  1.0000
  H   H216      1.0  0.67451  0.03669  0.27147  1.0000
  C   C182      1.0  0.52460  0.49198  0.30430  1.0000
  C   C183      1.0  0.54522  0.02892  0.30355  1.0000
  H   H217      1.0  0.65121  0.43001  0.38387  1.0000
  C   C184      1.0  0.61635  0.13266  0.08864  1.0000
  C   C185      1.0  0.48190  0.28430  0.46870  1.0000
  C   C186      1.0  0.62530  0.31533  0.06367  1.0000
  H   H218      1.0  0.41970  0.13976  0.02743  1.0000
  C   C187      1.0  0.64596  0.22880  0.05048  1.0000
  C   C188      1.0  0.54054  0.19653  0.47326  1.0000
  S   S51       1.0  0.49004  0.45045  0.03487  1.0000
  H   H219      1.0  0.60470  0.33644  0.13828  1.0000
  C   C189      1.0  0.54112  0.05448  0.25866  1.0000
  C   C190      1.0  0.54193  0.02900  0.21359  1.0000
  C   C191      1.0  0.37175  0.08516  0.43067  1.0000
  H   H220      1.0  0.45905  0.31804  0.46719  1.0000
  H   H221      1.0  0.63112  0.13017  0.05010  1.0000
  C   C192      1.0  0.39370  0.47129  0.32781  1.0000
  C   C193      1.0  0.39195  0.45729  0.22411  1.0000
  H   H222      1.0  0.66157  0.10509  0.39750  1.0000
  N   N14       1.0  0.67866  0.46047  0.31493  1.0000
  C   C194      1.0  0.45906  0.24682  0.12402  1.0000
  H   H223      1.0  0.61265  0.25411  0.17084  1.0000
  S   S52       1.0  0.53620  0.06231  0.15807  1.0000
  C   C195      1.0  0.62045  0.25838  0.13193  1.0000
  H   H224      1.0  0.65488  0.49359  0.14755  1.0000
  C   C196      1.0  0.42997  0.40772  0.15716  1.0000
  H   H225      1.0  0.39418  0.47710  0.36726  1.0000
  C   C197      1.0  0.43993  0.14004  0.12340  1.0000
  H   H226      1.0  0.58409  0.17267  0.17556  1.0000
  H   H227      1.0  0.36999  0.05621  0.40196  1.0000
  C   C198      1.0  0.53852  0.47218  0.25789  1.0000
  H   H228      1.0  0.61088  0.42554  0.33265  1.0000
  S   S53       1.0  0.56326  0.34116  0.45600  1.0000
  C   C199      1.0  0.56241  0.24118  0.46341  1.0000
  H   H229      1.0  0.38279  0.38099  0.24432  1.0000
  H   H230      1.0  0.43566  0.40362  0.11655  1.0000
  H   H231      1.0  0.41810  0.37164  0.17039  1.0000
  H   H232      1.0  0.46667  0.41386  0.17343  1.0000
  H   H233      1.0  0.50370  0.30649  0.14418  1.0000
  C   C200      1.0  0.40752  0.49220  0.14137  1.0000
  Fe  Fe25      1.0  0.50728  0.06958  0.49493  1.0000
  H   H234      1.0  0.45194  0.15300  0.16004  1.0000
  C   C201      1.0  0.48930  0.19565  0.48144  1.0000
  N   N15       1.0  0.39341  0.44865  0.17007  1.0000
  H   H235      1.0  0.64258  0.44367  0.24709  1.0000
  H   H236      1.0  0.42039  0.10585  0.13086  1.0000
  H   H237      1.0  0.67103  0.12825  0.48520  1.0000
  H   H238      1.0  0.47402  0.12956  0.10114  1.0000
  C   C202      1.0  0.38900  0.15326  0.05292  1.0000
  C   C203      1.0  0.39369  0.50485  0.24524  1.0000
  H   H239      1.0  0.67474  0.03986  0.03724  1.0000
  H   H240      1.0  0.62127  0.35246  0.04941  1.0000
  C   C204      1.0  0.64033  0.27669  0.03219  1.0000
  C   C205      1.0  0.36518  0.19237  0.12985  1.0000
  H   H241      1.0  0.37665  0.20590  0.16640  1.0000
  H   H242      1.0  0.66604  0.25777  0.51710  1.0000
  H   H243      1.0  0.69248  0.45018  0.49389  1.0000
  H   H244      1.0  0.65916  0.20036  0.02490  1.0000
  H   H245      1.0  0.66307  0.50962  0.40287  1.0000
  C   C206      1.0  0.47328  0.27836  0.02697  1.0000
  H   H246      1.0  0.51568  0.33481  0.05801  1.0000
  H   H247      1.0  0.68512  0.30485  0.82579  1.0000
  S   S54       1.0  0.40040  0.05875  0.96044  1.0000
  H   H248      1.0  0.48172  0.44091  0.87828  1.0000
  S   S55       1.0  0.56494  0.39769  0.93170  1.0000
  H   H249      1.0  0.62548  0.24522  0.70350  1.0000
  C   C207      1.0  0.61943  0.11684  0.67575  1.0000
  H   H250      1.0  0.46937  0.23291  0.58597  1.0000
  H   H251      1.0  0.52938  0.46315  0.71936  1.0000
  S   S56       1.0  0.53503  0.03501  0.56476  1.0000
  C   C208      1.0  0.48149  0.43619  0.77703  1.0000
  S   S57       1.0  0.51506  0.44205  0.55241  1.0000
  H   H252      1.0  0.49084  0.35907  0.84426  1.0000
  C   C209      1.0  0.49150  0.45663  0.73071  1.0000
  S   S58       1.0  0.67378  0.02785  0.56488  1.0000
  C   C210      1.0  0.67872  0.33689  0.84894  1.0000
  H   H253      1.0  0.47913  0.29071  0.98930  1.0000
  H   H254      1.0  0.42258  0.47411  0.88015  1.0000
  S   S59       1.0  0.37520  0.47588  0.57358  1.0000
  C   C211      1.0  0.57207  0.15363  0.60736  1.0000
  H   H255      1.0  0.53591  0.28755  0.56557  1.0000
  C   C212      1.0  0.44989  0.35631  0.84434  1.0000
  H   H256      1.0  0.53922  0.34543  0.59739  1.0000
  N   N16       1.0  0.66661  0.10369  0.70062  1.0000
  S   S60       1.0  0.37116  0.50349  0.97702  1.0000
  Fe  Fe26      1.0  0.47241  0.02695  0.99163  1.0000
  C   C213      1.0  0.66131  0.42010  0.90901  1.0000
  C   C214      1.0  0.62361  0.38768  0.90278  1.0000
  C   C215      1.0  0.63250  0.34597  0.87293  1.0000
  H   H257      1.0  0.65025  0.15133  0.60907  1.0000
  H   H258      1.0  0.65475  0.45228  0.93208  1.0000
  H   H259      1.0  0.60345  0.32075  0.86807  1.0000
  H   H260      1.0  0.36377  0.38199  0.89047  1.0000
  C   C216      1.0  0.39803  0.11012  0.92072  1.0000
  C   C217      1.0  0.43957  0.13750  0.91162  1.0000
  C   C218      1.0  0.43592  0.17876  0.88048  1.0000
  H   H261      1.0  0.58394  0.28135  0.63386  1.0000
  H   H262      1.0  0.47442  0.12690  0.92853  1.0000
  H   H263      1.0  0.46815  0.19982  0.87363  1.0000
  S   S61       1.0  0.38805  0.24450  0.81888  1.0000
  H   H264      1.0  0.63806  0.10849  0.77612  1.0000
  C   C219      1.0  0.45295  0.46855  0.69881  1.0000
  N   N17       1.0  0.48049  0.30081  0.62350  1.0000
  C   C220      1.0  0.44941  0.34380  0.64193  1.0000
  C   C221      1.0  0.51352  0.31836  0.58350  1.0000
  C   C222      1.0  0.44767  0.26540  0.60133  1.0000
  C   C223      1.0  0.50790  0.27726  0.66470  1.0000
  C   C224      1.0  0.56059  0.27057  0.66452  1.0000
  C   C225      1.0  0.48185  0.26017  0.70687  1.0000
  C   C226      1.0  0.58527  0.24933  0.70464  1.0000
  C   C227      1.0  0.50695  0.23861  0.74662  1.0000
  C   C228      1.0  0.55854  0.23357  0.74569  1.0000
  Fe  Fe27      1.0  0.54650  0.46645  0.97654  1.0000
  C   C229      1.0  0.40434  0.46008  0.71308  1.0000
  C   C230      1.0  0.39093  0.19266  0.85796  1.0000
  H   H265      1.0  0.51269  0.42720  0.80036  1.0000
  H   H266      1.0  0.41969  0.25226  0.62823  1.0000
  H   H267      1.0  0.57204  0.08630  0.73308  1.0000
  C   C231      1.0  0.43226  0.42734  0.79294  1.0000
  N   N18       1.0  0.42287  0.40503  0.84192  1.0000
  Fe  Fe28      1.0  0.44499  0.48110  0.52573  1.0000
  H   H268      1.0  0.42607  0.28237  0.57056  1.0000
  H   H269      1.0  0.44174  0.26336  0.70948  1.0000
  H   H270      1.0  0.47226  0.37033  0.66102  1.0000
  H   H271      1.0  0.48615  0.22581  0.77836  1.0000
  H   H272      1.0  0.57776  0.21738  0.77685  1.0000
  C   C232      1.0  0.52833  0.11783  0.67576  1.0000
  H   H273      1.0  0.41948  0.33323  0.66793  1.0000
  C   C233      1.0  0.52769  0.14186  0.63041  1.0000
  H   H274      1.0  0.43397  0.42159  0.91884  1.0000
  H   H275      1.0  0.49364  0.10862  0.69346  1.0000
  H   H276      1.0  0.42997  0.36374  0.61133  1.0000
  H   H277      1.0  0.49202  0.33695  0.55366  1.0000
  C   C234      1.0  0.39379  0.44013  0.75952  1.0000
  C   C235      1.0  0.61738  0.14135  0.62939  1.0000
  C   C236      1.0  0.57343  0.10526  0.69811  1.0000
  H   H278      1.0  0.46057  0.48408  0.66268  1.0000
  H   H279      1.0  0.64281  0.03377  0.72644  1.0000
  H   H280      1.0  0.57151  0.17200  0.57186  1.0000
  C   C237      1.0  0.44108  0.43678  0.88130  1.0000
  C   C238      1.0  0.66551  0.12517  0.75104  1.0000
  C   C239      1.0  0.67344  0.04973  0.70497  1.0000
  H   H281      1.0  0.37469  0.46895  0.68760  1.0000
  H   H282      1.0  0.49280  0.15043  0.61250  1.0000
  H   H283      1.0  0.65637  0.16526  0.74978  1.0000
  H   H284      1.0  0.67574  0.03234  0.66788  1.0000
  H   H285      1.0  0.44081  0.33293  0.81240  1.0000
  H   H286      1.0  0.44014  0.33603  0.87857  1.0000
  H   H287      1.0  0.64798  0.28413  0.99346  1.0000
  S   S62       1.0  0.54048  0.06265  0.01659  1.0000
  Fe  Fe29      1.0  0.60526  0.01895  0.52074  1.0000
  C   C240      1.0  0.36956  0.39794  0.85306  1.0000
  H   H288      1.0  0.43050  0.21996  0.00462  1.0000
  Fe  Fe30      1.0  0.55409  0.50856  0.52764  1.0000
  C   C241      1.0  0.51948  0.82513  0.43069  1.0000
  S   S63       1.0  0.55291  0.94437  0.35920  1.0000
  S   S64       1.0  0.58863  0.51393  0.02670  1.0000
  H   H289      1.0  0.66288  0.68889  0.18291  1.0000
  H   H290      1.0  0.41807  0.71242  0.32631  1.0000
  H   H291      1.0  0.37979  0.52347  0.14650  1.0000
  H   H292      1.0  0.59489  0.64215  0.34700  1.0000
  C   C242      1.0  0.39631  0.89955  0.45061  1.0000
  S   S65       1.0  0.62779  0.71600  0.27629  1.0000
  S   S66       1.0  0.42204  0.80341  0.19921  1.0000
  H   H293      1.0  0.47889  0.88366  0.32453  1.0000
  C   C243      1.0  0.44282  0.66260  0.43822  1.0000
  C   C244      1.0  0.48889  0.80807  0.46832  1.0000
  S   S67       1.0  0.47889  0.56820  0.06103  1.0000
  C   C245      1.0  0.45877  0.74539  0.41284  1.0000
  C   C246      1.0  0.45889  0.76887  0.45967  1.0000
  S   S68       1.0  0.48600  0.56518  0.36589  1.0000
  H   H294      1.0  0.64670  0.71002  0.04693  1.0000
  H   H295      1.0  0.47506  0.67570  0.02655  1.0000
  C   C247      1.0  0.49797  0.56804  0.26486  1.0000
  C   C248      1.0  0.51168  0.54805  0.21825  1.0000
  H   H296      1.0  0.48150  0.60494  0.26747  1.0000
  H   H297      1.0  0.50654  0.56986  0.18526  1.0000
  C   C249      1.0  0.57149  0.73902  0.25158  1.0000
  C   C250      1.0  0.53007  0.71011  0.25297  1.0000
  C   C251      1.0  0.48400  0.72892  0.23600  1.0000
  C   C252      1.0  0.47956  0.77653  0.21698  1.0000
  C   C253      1.0  0.52145  0.80458  0.21388  1.0000
  C   C254      1.0  0.56709  0.78617  0.23169  1.0000
  H   H298      1.0  0.53339  0.67359  0.26826  1.0000
  H   H299      1.0  0.45200  0.70676  0.23774  1.0000
  H   H300      1.0  0.51844  0.84120  0.19853  1.0000
  H   H301      1.0  0.59842  0.80909  0.23103  1.0000
  C   C255      1.0  0.55061  0.97769  0.30350  1.0000
  C   C256      1.0  0.39424  0.51140  0.29630  1.0000
  H   H302      1.0  0.38921  0.99055  0.31298  1.0000
  H   H303      1.0  0.36747  0.72647  0.45584  1.0000
  H   H304      1.0  0.46858  0.66974  0.34330  1.0000
  S   S69       1.0  0.57813  0.95296  0.06155  1.0000
  S   S70       1.0  0.58287  0.94584  0.49519  1.0000
  C   C257      1.0  0.55149  0.95220  0.25842  1.0000
  Fe  Fe31      1.0  0.54942  0.98615  0.43099  1.0000
  H   H305      1.0  0.64626  0.73571  0.13889  1.0000
  C   C258      1.0  0.52044  0.80286  0.38440  1.0000
  H   H306      1.0  0.61063  0.57125  0.13268  1.0000
  C   C259      1.0  0.49055  0.76370  0.37537  1.0000
  C   C260      1.0  0.67578  0.52592  0.14112  1.0000
  N   N19       1.0  0.42729  0.70338  0.40487  1.0000
  C   C261      1.0  0.49893  0.79736  0.02435  1.0000
  C   C262      1.0  0.43029  0.68402  0.35348  1.0000
  C   C263      1.0  0.44722  0.87761  0.30036  1.0000
  C   C264      1.0  0.66611  0.67510  0.05856  1.0000
  H   H307      1.0  0.54257  0.85567  0.43727  1.0000
  H   H308      1.0  0.42108  0.62960  0.43211  1.0000
  H   H309      1.0  0.58383  0.65316  0.15144  1.0000
  N   N20       1.0  0.65198  0.66179  0.10984  1.0000
  H   H310      1.0  0.49337  0.74825  0.33880  1.0000
  H   H311      1.0  0.48265  0.65107  0.43168  1.0000
  N   N21       1.0  0.40399  0.91232  0.31052  1.0000
  H   H312      1.0  0.58193  0.63606  0.08654  1.0000
  H   H313      1.0  0.55602  0.91258  0.25813  1.0000
  S   S71       1.0  0.46063  0.98972  0.06422  1.0000
  H   H314      1.0  0.44950  0.97049  0.33376  1.0000
  C   C265      1.0  0.41469  0.90615  0.40247  1.0000
  H   H315      1.0  0.43750  0.97017  0.26944  1.0000
  H   H316      1.0  0.62415  0.59124  0.41712  1.0000
  C   C266      1.0  0.62880  0.57727  0.37971  1.0000
  C   C267      1.0  0.65060  0.53037  0.37113  1.0000
  C   C268      1.0  0.65065  0.57109  0.13218  1.0000
  H   H317      1.0  0.38503  0.90985  0.23340  1.0000
  H   H318      1.0  0.54476  0.81592  0.35525  1.0000
  H   H319      1.0  0.57938  0.69881  0.10427  1.0000
  H   H320      1.0  0.54785  0.95776  0.17900  1.0000
  C   C269      1.0  0.42060  0.96308  0.30656  1.0000
  C   C270      1.0  0.54694  0.97775  0.21356  1.0000
  C   C271      1.0  0.37454  0.71823  0.41605  1.0000
  H   H321      1.0  0.43703  0.83888  0.30472  1.0000
  H   H322      1.0  0.45362  0.91300  0.39795  1.0000
  C   C272      1.0  0.50462  0.54006  0.30800  1.0000
  H   H323      1.0  0.42094  0.90092  0.48168  1.0000
  C   C273      1.0  0.63844  0.54072  0.28332  1.0000
  C   C274      1.0  0.61750  0.58790  0.29228  1.0000
  C   C275      1.0  0.59693  0.66208  0.11335  1.0000
  H   H324      1.0  0.46220  0.88170  0.26201  1.0000
  H   H325      1.0  0.43787  0.67242  0.47790  1.0000
  Fe  Fe32      1.0  0.49535  0.51598  0.43261  1.0000
  H   H326      1.0  0.60436  0.61042  0.26183  1.0000
  C   C276      1.0  0.61222  0.60594  0.34033  1.0000
  C   C277      1.0  0.38359  0.90428  0.36097  1.0000
  H   H327      1.0  0.43607  0.75677  0.49013  1.0000
  H   H328      1.0  0.65669  0.64609  0.03200  1.0000
  S   S72       1.0  0.46922  0.85465  0.03966  1.0000
  H   H329      1.0  0.39487  0.53780  0.22349  1.0000
  C   C278      1.0  0.67697  0.61389  0.12219  1.0000
  Fe  Fe33      1.0  0.50692  0.92633  0.03191  1.0000
  H   H330      1.0  0.48853  0.82524  0.50448  1.0000
  H   H331      1.0  0.40619  0.65247  0.34864  1.0000
  H   H332      1.0  0.37098  0.89603  0.06835  1.0000
  C   C279      1.0  0.47360  0.75455  0.03326  1.0000
  S   S73       1.0  0.47512  0.99981  0.46861  1.0000
  H   H333      1.0  0.68651  0.86022  0.48325  1.0000
  S   S74       1.0  0.48327  0.55052  0.50790  1.0000
  H   H334      1.0  0.63990  0.52874  0.24534  1.0000
  H   H335      1.0  0.43706  0.75724  0.05068  1.0000
  C   C280      1.0  0.36783  0.90536  0.27088  1.0000
  H   H336      1.0  0.39500  0.54804  0.31171  1.0000
  C   C281      1.0  0.66794  0.70023  0.14381  1.0000
  H   H337      1.0  0.36268  0.75147  0.39474  1.0000
  C   C282      1.0  0.49516  0.70829  0.01981  1.0000
  C   C283      1.0  0.65543  0.51031  0.32274  1.0000
  S   S75       1.0  0.51469  0.96184  0.95784  1.0000
  H   H338      1.0  0.57890  0.78783  0.89051  1.0000
  C   C284      1.0  0.54620  0.79365  0.00204  1.0000
  C   C285      1.0  0.67191  0.59430  0.62326  1.0000
  H   H339      1.0  0.37795  0.56229  0.82733  1.0000
  H   H340      1.0  0.60308  0.71932  0.77498  1.0000
  Fe  Fe34      1.0  0.53727  0.57643  0.00132  1.0000
  C   C286      1.0  0.40658  0.83156  0.83806  1.0000
  H   H341      1.0  0.39419  0.66258  0.91306  1.0000
  Fe  Fe35      1.0  0.51048  0.96420  0.53458  1.0000
  H   H342      1.0  0.58993  0.81769  0.83272  1.0000
  C   C287      1.0  0.62831  0.58586  0.59791  1.0000
  H   H343      1.0  0.68221  0.71496  0.56618  1.0000
  S   S76       1.0  0.56929  0.64758  0.97692  1.0000
  C   C288      1.0  0.63884  0.67537  0.64797  1.0000
  H   H344      1.0  0.39738  0.92698  0.98985  1.0000
  C   C289      1.0  0.59000  0.62239  0.59762  1.0000
  C   C290      1.0  0.39130  0.93304  0.59935  1.0000
  H   H345      1.0  0.60106  0.98784  0.65119  1.0000
  H   H346      1.0  0.44535  0.82509  0.63868  1.0000
  H   H347      1.0  0.55639  0.61632  0.57807  1.0000
  C   C291      1.0  0.56757  0.74739  0.98817  1.0000
  Fe  Fe36      1.0  0.44641  0.51611  0.00728  1.0000
  C   C292      1.0  0.67717  0.63886  0.64834  1.0000
  H   H348      1.0  0.40892  0.83441  0.75887  1.0000
  S   S77       1.0  0.65257  0.99502  0.94265  1.0000
  C   C293      1.0  0.42806  0.89577  0.60601  1.0000
  C   C294      1.0  0.36967  0.84996  0.65519  1.0000
  H   H349      1.0  0.59439  0.94746  0.86710  1.0000
  C   C295      1.0  0.61006  0.92194  0.72468  1.0000
  H   H350      1.0  0.52159  0.92790  0.81836  1.0000
  H   H351      1.0  0.54052  0.71890  0.75537  1.0000
  H   H352      1.0  0.57343  0.77505  0.75432  1.0000
  H   H353      1.0  0.40410  0.59767  0.92611  1.0000
  H   H354      1.0  0.41388  0.82270  0.91652  1.0000
  C   C296      1.0  0.47472  0.79683  0.78726  1.0000
  C   C297      1.0  0.59536  0.66703  0.62246  1.0000
  C   C298      1.0  0.39319  0.62494  0.89720  1.0000
  H   H355      1.0  0.68454  0.94560  0.65598  1.0000
  H   H356      1.0  0.51732  0.68229  0.83739  1.0000
  H   H357      1.0  0.39954  0.96523  0.57806  1.0000
  C   C299      1.0  0.59853  0.94066  0.82767  1.0000
  H   H358      1.0  0.59977  0.85418  0.61953  1.0000
  H   H359      1.0  0.62424  0.76184  0.84813  1.0000
  C   C300      1.0  0.58696  0.78122  0.85055  1.0000
  H   H360      1.0  0.53016  0.91292  0.72942  1.0000
  C   C301      1.0  0.50048  0.77990  0.82980  1.0000
  C   C302      1.0  0.56691  0.74108  0.77561  1.0000
  H   H361      1.0  0.58945  0.94495  0.60337  1.0000
  C   C303      1.0  0.42843  0.82229  0.79164  1.0000
  H   H362      1.0  0.36144  0.81769  0.67631  1.0000
  N   N22       1.0  0.61479  0.91204  0.67091  1.0000
  C   C304      1.0  0.56312  0.92059  0.74935  1.0000
  C   C305      1.0  0.43116  0.81602  0.88038  1.0000
  C   C306      1.0  0.59402  0.86421  0.65922  1.0000
  N   N23       1.0  0.54915  0.75226  0.82690  1.0000
  C   C307      1.0  0.41710  0.85419  0.63376  1.0000
  C   C308      1.0  0.54626  0.70476  0.85317  1.0000
  S   S78       1.0  0.64478  0.73295  0.67638  1.0000
  H   H363      1.0  0.49513  0.78012  0.91053  1.0000
  H   H364      1.0  0.60391  0.74479  0.97030  1.0000
  C   C309      1.0  0.65082  0.93421  0.75379  1.0000
  H   H365      1.0  0.48924  0.79057  0.75018  1.0000
  C   C310      1.0  0.66679  0.91010  0.65143  1.0000
  H   H366      1.0  0.58225  0.68276  0.85131  1.0000
  C   C311      1.0  0.54212  0.70462  0.99697  1.0000
  C   C312      1.0  0.64486  0.94334  0.80454  1.0000
  C   C313      1.0  0.55769  0.92946  0.80015  1.0000
  H   H367      1.0  0.68789  0.93635  0.73844  1.0000
  H   H368      1.0  0.66890  0.90245  0.61104  1.0000
  H   H369      1.0  0.61170  0.83421  0.68157  1.0000
  S   S79       1.0  0.50097  0.52983  0.94599  1.0000
  S   S80       1.0  0.48825  0.89966  0.58061  1.0000
  H   H370      1.0  0.56573  0.69529  0.62165  1.0000
  C   C314      1.0  0.47754  0.79098  0.87649  1.0000
  H   H371      1.0  0.53748  0.70954  0.89315  1.0000
  H   H372      1.0  0.56599  0.82644  0.99494  1.0000
  H   H373      1.0  0.66681  0.80667  0.00141  1.0000
  H   H374      1.0  0.42242  0.62203  0.86756  1.0000
  H   H375      1.0  0.55326  0.86435  0.66579  1.0000
  S   S81       1.0  0.62374  0.52964  0.56640  1.0000
  C   C315      1.0  0.58671  0.95117  0.64394  1.0000
  H   H376      1.0  0.36137  0.65349  0.81031  1.0000
  Fe  Fe37      1.0  0.58237  0.99399  0.98963  1.0000
  H   H377      1.0  0.67640  0.95224  0.82644  1.0000
  H   H378      1.0  0.54648  0.95298  0.65395  1.0000
  H   H379      1.0  0.37018  0.85028  0.84127  1.0000
  H   H380      1.0  0.68996  0.88083  0.66977  1.0000
  Fe  Fe38      1.0  0.77630  0.20402  0.23255  1.0000
  S   S82       1.0  0.01783  0.01302  0.45066  1.0000
  H   H381      1.0  0.86411  0.02790  0.32147  1.0000
  Fe  Fe39      1.0  0.77893  0.24893  0.33457  1.0000
  S   S83       1.0  0.75375  0.32299  0.30757  1.0000
  S   S84       1.0  0.81447  0.23482  0.40792  1.0000
  Fe  Fe40      1.0  0.80678  0.31017  0.24359  1.0000
  S   S85       1.0  0.85930  0.37096  0.23061  1.0000
  S   S86       1.0  0.83617  0.23880  0.27376  1.0000
  C   C316      1.0  0.75061  0.12108  0.48138  1.0000
  C   C317      1.0  0.73038  0.45946  0.33241  1.0000
  H   H382      1.0  0.90598  0.26890  0.05515  1.0000
  H   H383      1.0  0.92574  0.32213  0.44514  1.0000
  Fe  Fe41      1.0  0.02276  0.07955  0.49931  1.0000
  H   H384      1.0  0.87987  0.25282  0.13502  1.0000
  C   C318      1.0  0.00965  0.19614  0.07848  1.0000
  H   H385      1.0  0.87404  0.20208  0.17530  1.0000
  H   H386      1.0  0.86282  0.31027  0.46018  1.0000
  C   C319      1.0  0.78092  0.37207  0.44089  1.0000
  N   N24       1.0  0.87242  0.38016  0.42471  1.0000
  C   C320      1.0  0.70348  0.11945  0.46193  1.0000
  H   H387      1.0  0.02549  0.42554  0.30247  1.0000
  H   H388      1.0  0.90084  0.44816  0.39929  1.0000
  C   C321      1.0  0.74009  0.09463  0.38283  1.0000
  H   H389      1.0  0.73205  0.46524  0.37292  1.0000
  H   H390      1.0  0.86337  0.11591  0.30050  1.0000
  H   H391      1.0  0.97149  0.34131  0.21661  1.0000
  S   S87       1.0  0.85462  0.05673  0.03430  1.0000
  H   H392      1.0  0.88447  0.12889  0.40691  1.0000
  H   H393      1.0  0.90591  0.34803  0.35802  1.0000
  C   C322      1.0  0.88318  0.38621  0.17168  1.0000
  C   C323      1.0  0.91779  0.42263  0.16832  1.0000
  C   C324      1.0  0.93994  0.43413  0.12264  1.0000
  C   C325      1.0  0.92752  0.40947  0.07979  1.0000
  C   C326      1.0  0.89181  0.37398  0.08289  1.0000
  C   C327      1.0  0.86968  0.36228  0.12872  1.0000
  H   H394      1.0  0.92800  0.44167  0.20132  1.0000
  H   H395      1.0  0.96698  0.46170  0.12082  1.0000
  H   H396      1.0  0.82801  0.11262  0.46927  1.0000
  H   H397      1.0  0.84196  0.33521  0.13076  1.0000
  H   H398      1.0  0.91287  0.12330  0.15858  1.0000
  C   C328      1.0  0.78153  0.23863  0.46473  1.0000
  H   H399      1.0  0.74674  0.48685  0.14738  1.0000
  C   C329      1.0  0.72845  0.43676  0.47909  1.0000
  H   H400      1.0  0.75460  0.06443  0.07143  1.0000
  C   C330      1.0  0.72982  0.08008  0.23656  1.0000
  C   C331      1.0  0.77603  0.07942  0.21224  1.0000
  H   H401      1.0  0.84637  0.32775  0.37239  1.0000
  C   C332      1.0  0.75404  0.04818  0.03503  1.0000
  S   S88       1.0  0.72029  0.20945  0.29526  1.0000
  N   N25       1.0  0.83254  0.08656  0.36784  1.0000
  C   C333      1.0  0.70582  0.25077  0.51454  1.0000
  H   H402      1.0  0.85818  0.20358  0.06548  1.0000
  H   H403      1.0  0.91283  0.08255  0.36701  1.0000
  H   H404      1.0  0.83884  0.03401  0.18598  1.0000
  H   H405      1.0  0.97166  0.14991  0.16280  1.0000
  H   H406      1.0  0.89468  0.35346  0.49588  1.0000
  H   H407      1.0  0.88467  0.06501  0.42395  1.0000
  H   H408      1.0  0.83131  0.15990  0.34082  1.0000
  C   C334      1.0  0.78880  0.09664  0.40115  1.0000
  H   H409      1.0  0.79801  0.03081  0.32544  1.0000
  H   H410      1.0  0.70303  0.46883  0.23903  1.0000
  H   H411      1.0  0.70372  0.11522  0.13364  1.0000
  H   H412      1.0  0.85242  0.38861  0.34840  1.0000
  H   H413      1.0  0.73393  0.08447  0.34502  1.0000
  C   C335      1.0  0.88066  0.09100  0.39258  1.0000
  H   H414      1.0  0.94762  0.40025  0.40930  1.0000
  H   H415      1.0  0.93032  0.23419  0.17378  1.0000
  C   C336      1.0  0.69627  0.15260  0.11803  1.0000
  C   C337      1.0  0.73433  0.38992  0.45865  1.0000
  C   C338      1.0  0.80283  0.03452  0.20435  1.0000
  S   S89       1.0  0.80140  0.13432  0.19215  1.0000
  H   H416      1.0  0.79737  0.11960  0.30429  1.0000
  S   S90       1.0  0.75170  0.27505  0.19590  1.0000
  C   C339      1.0  0.69824  0.10625  0.41271  1.0000
  H   H417      1.0  0.91881  0.43045  0.46112  1.0000
  H   H418      1.0  0.85437  0.14864  0.10018  1.0000
  H   H419      1.0  0.75064  0.42384  0.32443  1.0000
  C   C340      1.0  0.79280  0.11002  0.45168  1.0000
  N   N26       1.0  0.92155  0.18654  0.11165  1.0000
  C   C341      1.0  0.94202  0.14163  0.13663  1.0000
  C   C342      1.0  0.83110  0.12194  0.32649  1.0000
  C   C343      1.0  0.88079  0.17181  0.07987  1.0000
  C   C344      1.0  0.95864  0.21194  0.08145  1.0000
  C   C345      1.0  0.91136  0.41655  0.42350  1.0000
  C   C346      1.0  0.86895  0.36047  0.37379  1.0000
  C   C347      1.0  0.82322  0.40072  0.44259  1.0000
  C   C348      1.0  0.90062  0.22042  0.15053  1.0000
  C   C349      1.0  0.73006  0.24789  0.46788  1.0000
  C   C350      1.0  0.97836  0.28012  0.02641  1.0000
  C   C351      1.0  0.81585  0.44849  0.46350  1.0000
  C   C352      1.0  0.00910  0.32954  0.20544  1.0000
  H   H420      1.0  0.88095  0.35584  0.04964  1.0000
  H   H421      1.0  0.95737  0.11381  0.10958  1.0000
  H   H422      1.0  0.84571  0.47296  0.46696  1.0000
  H   H423      1.0  0.84838  0.22603  0.50593  1.0000
  C   C353      1.0  0.83183  0.03640  0.34688  1.0000
  S   S91       1.0  0.95715  0.42101  0.02235  1.0000
  C   C354      1.0  0.94407  0.25462  0.05437  1.0000
  H   H424      1.0  0.70871  0.11436  0.24268  1.0000
  C   C355      1.0  0.80854  0.23302  0.50804  1.0000
  C   C356      1.0  0.76908  0.46597  0.48139  1.0000
  H   H425      1.0  0.76439  0.50220  0.49789  1.0000
  H   H426      1.0  0.78371  0.33509  0.42667  1.0000
  C   C357      1.0  0.71048  0.03605  0.25281  1.0000
  H   H427      1.0  0.00184  0.25533  0.23008  1.0000
  C   C358      1.0  0.88948  0.33977  0.45776  1.0000
  H   H428      1.0  0.89560  0.14982  0.04771  1.0000
  Fe  Fe42      1.0  0.69984  0.28350  0.26215  1.0000
  H   H429      1.0  0.70889  0.25235  0.43458  1.0000
  H   H430      1.0  0.71200  0.15195  0.07972  1.0000
  H   H431      1.0  0.00692  0.33937  0.31985  1.0000
  H   H432      1.0  0.75154  0.48853  0.31403  1.0000
  C   C359      1.0  0.02596  0.28107  0.21279  1.0000
  H   H433      1.0  0.71763  0.17842  0.13987  1.0000
  H   H434      1.0  0.02583  0.40019  0.17888  1.0000
  H   H435      1.0  0.70284  0.36673  0.45770  1.0000
  H   H436      1.0  0.02431  0.16403  0.09762  1.0000
  H   H437      1.0  0.69724  0.40669  0.25779  1.0000
  Fe  Fe43      1.0  0.78439  0.29337  0.77417  1.0000
  S   S92       1.0  0.85190  0.24360  0.78359  1.0000
  S   S93       1.0  0.77478  0.35874  0.82536  1.0000
  Fe  Fe44      1.0  0.75813  0.24285  0.67792  1.0000
  S   S94       1.0  0.82387  0.18871  0.67961  1.0000
  H   H438      1.0  0.90390  0.15564  0.82026  1.0000
  Fe  Fe45      1.0  0.80422  0.18312  0.76023  1.0000
  S   S95       1.0  0.80276  0.11326  0.80447  1.0000
  Fe  Fe46      1.0  0.86590  0.25330  0.70285  1.0000
  S   S96       1.0  0.93769  0.27754  0.67024  1.0000
  H   H439      1.0  0.96383  0.02627  0.84911  1.0000
  S   S97       1.0  0.80162  0.30762  0.69473  1.0000
  H   H440      1.0  0.94373  0.08976  0.90499  1.0000
  H   H441      1.0  0.94500  0.18157  0.96897  1.0000
  S   S98       1.0  0.94863  0.07060  0.53701  1.0000
  H   H442      1.0  0.81668  0.13926  0.91029  1.0000
  C   C360      1.0  0.79807  0.01791  0.96148  1.0000
  H   H443      1.0  0.83212  0.50738  0.68896  1.0000
  H   H444      1.0  0.95047  0.44093  0.70516  1.0000
  Fe  Fe47      1.0  0.93146  0.02580  0.01191  1.0000
  C   C361      1.0  0.79167  0.43015  0.64273  1.0000
  H   H445      1.0  0.75502  0.35048  0.55588  1.0000
  C   C362      1.0  0.70887  0.03420  0.01587  1.0000
  H   H446      1.0  0.97056  0.21628  0.91883  1.0000
  H   H447      1.0  0.83259  0.31911  0.91468  1.0000
  H   H448      1.0  0.73679  0.43603  0.89000  1.0000
  H   H449      1.0  0.88339  0.09627  0.88096  1.0000
  C   C363      1.0  0.78578  0.01581  0.79945  1.0000
  C   C364      1.0  0.78448  0.23644  0.55434  1.0000
  C   C365      1.0  0.82264  0.17805  0.91222  1.0000
  C   C366      1.0  0.00684  0.30066  0.52570  1.0000
  H   H450      1.0  0.96712  0.14600  0.83763  1.0000
  C   C367      1.0  0.95685  0.18010  0.92941  1.0000
  C   C368      1.0  0.92340  0.35682  0.84050  1.0000
  H   H451      1.0  0.94011  0.20705  0.83535  1.0000
  H   H452      1.0  0.74557  0.11176  0.69380  1.0000
  S   S99       1.0  0.96399  0.01800  0.67015  1.0000
  C   C369      1.0  0.99431  0.25839  0.69642  1.0000
  C   C370      1.0  0.99664  0.22429  0.73485  1.0000
  H   H453      1.0  0.01110  0.41116  0.90455  1.0000
  H   H454      1.0  0.96340  0.20709  0.74702  1.0000
  Fe  Fe48      1.0  0.99252  0.02535  0.59187  1.0000
  C   C371      1.0  0.80340  0.05611  0.77388  1.0000
  H   H455      1.0  0.84356  0.32316  0.55953  1.0000
  C   C372      1.0  0.81953  0.05026  0.72470  1.0000
  C   C373      1.0  0.98925  0.03654  0.72613  1.0000
  H   H456      1.0  0.83485  0.08054  0.70494  1.0000
  H   H457      1.0  0.75086  0.28407  0.92341  1.0000
  H   H458      1.0  0.89895  0.36252  0.61356  1.0000
  N   N27       1.0  0.91601  0.16489  0.89788  1.0000
  H   H459      1.0  0.80602  0.23280  0.58728  1.0000
  H   H460      1.0  0.77368  0.03289  0.59724  1.0000
  S   S100      1.0  0.98595  0.08491  0.00845  1.0000
  N   N28       1.0  0.87402  0.43734  0.68343  1.0000
  C   C374      1.0  0.85661  0.42266  0.73333  1.0000
  S   S101      1.0  0.98643  0.35871  0.54940  1.0000
  S   S102      1.0  0.70309  0.24814  0.61634  1.0000
  C   C375      1.0  0.79880  0.03966  0.00808  1.0000
  H   H461      1.0  0.94255  0.42975  0.64080  1.0000
  C   C376      1.0  0.96441  0.02449  0.77005  1.0000
  H   H462      1.0  0.89263  0.10710  0.94596  1.0000
  H   H463      1.0  0.72161  0.41894  0.60874  1.0000
  H   H464      1.0  0.88431  0.34971  0.84342  1.0000
  H   H465      1.0  0.87860  0.43876  0.76296  1.0000
  C   C377      1.0  0.93239  0.16877  0.84556  1.0000
  H   H466      1.0  0.85984  0.38211  0.73770  1.0000
  H   H467      1.0  0.02100  0.33902  0.76104  1.0000
  S   S103      1.0  0.95291  0.48795  0.55029  1.0000
  H   H468      1.0  0.77462  0.45784  0.66710  1.0000
  C   C378      1.0  0.92753  0.42175  0.67835  1.0000
  H   H469      1.0  0.85501  0.01095  0.55655  1.0000
  C   C379      1.0  0.95110  0.34126  0.79886  1.0000
  H   H470      1.0  0.81700  0.43420  0.74083  1.0000
  C   C380      1.0  0.78394  0.25987  0.91984  1.0000
  C   C381      1.0  0.82948  0.35433  0.58140  1.0000
  S   S104      1.0  0.73483  0.23247  0.75738  1.0000
  C   C382      1.0  0.86102  0.37722  0.61336  1.0000
  H   H471      1.0  0.74402  0.19388  0.92109  1.0000
  C   C383      1.0  0.98019  0.25987  0.53928  1.0000
  C   C384      1.0  0.84286  0.41550  0.64572  1.0000
  H   H472      1.0  0.96642  0.31322  0.00683  1.0000
  H   H473      1.0  0.77341  0.02057  0.83726  1.0000
  H   H474      1.0  0.90752  0.26605  0.90157  1.0000
  H   H475      1.0  0.93418  0.38176  0.68514  1.0000
  C   C385      1.0  0.90840  0.11235  0.90815  1.0000
  C   C386      1.0  0.76075  0.40773  0.60977  1.0000
  C   C387      1.0  0.83025  0.27956  0.91489  1.0000
  C   C388      1.0  0.94601  0.38157  0.87820  1.0000
  C   C389      1.0  0.78017  0.20923  0.91851  1.0000
  H   H476      1.0  0.99022  0.15442  0.92564  1.0000
  H   H477      1.0  0.94816  0.26460  0.56389  1.0000
  C   C390      1.0  0.73306  0.24481  0.55786  1.0000
  C   C391      1.0  0.87295  0.24877  0.90788  1.0000
  C   C392      1.0  0.00116  0.35140  0.79417  1.0000
  C   C393      1.0  0.87057  0.19690  0.90675  1.0000
  H   H478      1.0  0.92448  0.39353  0.91084  1.0000
  H   H479      1.0  0.93369  0.32145  0.76978  1.0000
  C   C394      1.0  0.77952  0.36944  0.57962  1.0000
  H   H480      1.0  0.97374  0.18176  0.53252  1.0000
  C   C395      1.0  0.99620  0.39168  0.87397  1.0000
  C   C396      1.0  0.71640  0.36939  0.85487  1.0000
  C   C397      1.0  0.02520  0.37747  0.83119  1.0000
  C   C398      1.0  0.98334  0.03650  0.81597  1.0000
  C   C399      1.0  0.70770  0.41084  0.88517  1.0000
  C   C400      1.0  0.87002  0.49166  0.68013  1.0000
  Fe  Fe49      1.0  0.01624  0.43315  0.53596  1.0000
  C   C401      1.0  0.77507  0.01866  0.55992  1.0000
  Fe  Fe50      1.0  0.02087  0.04136  0.94511  1.0000
  H   H481      1.0  0.71584  0.10409  0.63650  1.0000
  H   H482      1.0  0.70854  0.16157  0.66979  1.0000
  H   H483      1.0  0.70848  0.03874  0.72391  1.0000
  C   C402      1.0  0.71089  0.12111  0.67386  1.0000
  H   H484      1.0  0.70197  0.11938  0.76925  1.0000
  C   C403      1.0  0.73093  0.01257  0.53495  1.0000
  Fe  Fe51      1.0  0.00403  0.48722  0.01559  1.0000
  H   H485      1.0  0.89457  0.50893  0.70682  1.0000
  H   H486      1.0  0.88099  0.50417  0.64252  1.0000
  C   C404      1.0  0.99459  0.21280  0.52146  1.0000
  C   C405      1.0  0.70817  0.01258  0.96906  1.0000
  H   H487      1.0  0.75452  0.13129  0.51975  1.0000
  H   H488      1.0  0.83222  0.01100  0.94038  1.0000
  Fe  Fe52      1.0  0.80221  0.77178  0.29093  1.0000
  H   H489      1.0  0.75208  0.63959  0.11520  1.0000
  S   S105      1.0  0.86566  0.75798  0.34369  1.0000
  Fe  Fe53      1.0  0.77411  0.77659  0.18232  1.0000
  S   S106      1.0  0.80487  0.75130  0.10768  1.0000
  Fe  Fe54      1.0  0.73868  0.85906  0.25252  1.0000
  H   H490      1.0  0.80655  0.98107  0.09369  1.0000
  S   S107      1.0  0.81450  0.82726  0.23124  1.0000
  S   S108      1.0  0.76775  0.71864  0.24053  1.0000
  C   C406      1.0  0.72644  0.78273  0.04896  1.0000
  C   C407      1.0  0.96823  0.61348  0.26678  1.0000
  S   S109      1.0  0.91760  0.54583  0.42941  1.0000
  C   C408      1.0  0.99352  0.81256  0.17410  1.0000
  C   C409      1.0  0.99571  0.80740  0.22521  1.0000
  H   H491      1.0  0.93111  0.60859  0.19770  1.0000
  H   H492      1.0  0.89957  0.87852  0.09016  1.0000
  C   C410      1.0  0.97708  0.81165  0.02540  1.0000
  C   C411      1.0  0.88080  0.69837  0.36546  1.0000
  C   C412      1.0  0.84987  0.65988  0.35745  1.0000
  C   C413      1.0  0.86185  0.61322  0.37711  1.0000
  C   C414      1.0  0.90479  0.60472  0.40475  1.0000
  C   C415      1.0  0.93618  0.64297  0.41210  1.0000
  C   C416      1.0  0.92400  0.68979  0.39277  1.0000
  H   H493      1.0  0.81645  0.66619  0.33656  1.0000
  H   H494      1.0  0.83754  0.58366  0.37105  1.0000
  H   H495      1.0  0.96977  0.63648  0.43267  1.0000
  H   H496      1.0  0.94821  0.71944  0.39876  1.0000
  C   C417      1.0  0.73733  0.99113  0.24532  1.0000
  C   C418      1.0  0.83705  0.95284  0.09951  1.0000
  C   C419      1.0  0.78374  0.99043  0.22134  1.0000
  N   N29       1.0  0.76368  0.83440  0.47761  1.0000
  C   C420      1.0  0.75427  0.56342  0.13213  1.0000
  C   C421      1.0  0.77516  0.76282  0.05109  1.0000
  H   H497      1.0  0.70709  0.83996  0.42286  1.0000
  H   H498      1.0  0.86987  0.96430  0.07814  1.0000
  N   N30       1.0  0.82238  0.90359  0.08489  1.0000
  C   C422      1.0  0.75363  0.78263  0.48825  1.0000
  S   S110      1.0  0.72894  0.80713  0.31592  1.0000
  Fe  Fe55      1.0  0.94775  0.00025  0.49415  1.0000
  Fe  Fe56      1.0  0.00981  0.59788  0.02498  1.0000
  C   C423      1.0  0.96559  0.61574  0.21551  1.0000
  H   H499      1.0  0.84674  0.95414  0.13908  1.0000
  C   C424      1.0  0.72959  0.60867  0.12275  1.0000
  H   H500      1.0  0.70649  0.68016  0.05389  1.0000
  H   H501      1.0  0.86153  0.86083  0.14055  1.0000
  C   C425      1.0  0.77541  0.74261  0.46021  1.0000
  H   H502      1.0  0.78000  0.96702  0.42662  1.0000
  C   C426      1.0  0.99045  0.72327  0.03637  1.0000
  H   H503      1.0  0.76382  0.85655  0.10513  1.0000
  C   C427      1.0  0.73121  0.68422  0.50933  1.0000
  C   C428      1.0  0.80539  0.83993  0.44154  1.0000
  H   H504      1.0  0.72479  0.89765  0.44609  1.0000
  H   H505      1.0  0.00170  0.63006  0.14749  1.0000
  H   H506      1.0  0.92162  0.76401  0.05368  1.0000
  C   C429      1.0  0.86184  0.86698  0.10000  1.0000
  H   H507      1.0  0.85737  0.83096  0.08193  1.0000
  S   S111      1.0  0.88042  0.96977  0.45971  1.0000
  H   H508      1.0  0.78137  0.89584  0.15378  1.0000
  H   H509      1.0  0.81419  0.87904  0.43639  1.0000
  H   H510      1.0  0.70754  0.70824  0.13806  1.0000
  C   C430      1.0  0.77622  0.89374  0.11324  1.0000
  H   H511      1.0  0.96586  0.79073  0.24556  1.0000
  C   C431      1.0  0.82324  0.98786  0.48861  1.0000
  S   S112      1.0  0.69933  0.81342  0.19805  1.0000
  S   S113      1.0  0.02390  0.53588  0.07800  1.0000
  S   S114      1.0  0.96737  0.66632  0.05306  1.0000
  H   H512      1.0  0.91731  0.77459  0.49895  1.0000
  H   H513      1.0  0.70566  0.79186  0.08262  1.0000
  H   H514      1.0  0.96216  0.79935  0.15460  1.0000
  H   H515      1.0  0.80516  0.95607  0.21708  1.0000
  H   H516      1.0  0.78105  0.66432  0.44864  1.0000
  C   C432      1.0  0.95950  0.76621  0.04023  1.0000
  Fe  Fe57      1.0  0.97874  0.52745  0.48328  1.0000
  H   H517      1.0  0.80038  0.74780  0.42918  1.0000
  S   S115      1.0  0.97622  0.97983  0.06563  1.0000
  C   C433      1.0  0.77896  0.98165  0.46374  1.0000
  S   S116      1.0  0.71252  0.93747  0.26902  1.0000
  H   H518      1.0  0.83998  0.82007  0.45367  1.0000
  H   H519      1.0  0.79653  0.82648  0.40409  1.0000
  C   C434      1.0  0.00679  0.62824  0.18688  1.0000
  Fe  Fe58      1.0  0.69520  0.75921  0.25998  1.0000
  H   H520      1.0  0.79135  0.89628  0.51682  1.0000
  H   H521      1.0  0.95306  0.84441  0.02713  1.0000
  H   H522      1.0  0.74555  0.92135  0.10533  1.0000
  H   H523      1.0  0.01385  0.62221  0.32968  1.0000
  H   H524      1.0  0.93595  0.60453  0.28889  1.0000
  H   H525      1.0  0.79449  0.56036  0.13181  1.0000
  H   H526      1.0  0.87449  0.70148  0.50022  1.0000
  H   H527      1.0  0.73620  0.89348  0.02888  1.0000
  C   C435      1.0  0.76442  0.69419  0.47095  1.0000
  H   H528      1.0  0.94120  0.69381  0.50552  1.0000
  C   C436      1.0  0.73291  0.99420  0.48675  1.0000
  C   C437      1.0  0.01220  0.62349  0.28969  1.0000
  C   C438      1.0  0.72743  0.52205  0.14102  1.0000
  H   H529      1.0  0.83331  0.00847  0.37646  1.0000
  C   C439      1.0  0.81681  0.90143  0.03060  1.0000
  H   H530      1.0  0.69897  0.99002  0.46706  1.0000
  C   C440      1.0  0.71860  0.85910  0.45676  1.0000
  H   H531      1.0  0.91544  0.86341  0.50748  1.0000
  H   H532      1.0  0.72203  0.64675  0.51719  1.0000
  C   C441      1.0  0.02597  0.81428  0.00802  1.0000
  S   S117      1.0  0.98329  0.54968  0.96444  1.0000
  H   H533      1.0  0.01217  0.63173  0.88992  1.0000
  H   H534      1.0  0.02052  0.91726  0.75780  1.0000
  C   C442      1.0  0.97792  0.70619  0.88909  1.0000
  H   H535      1.0  0.85317  0.71793  0.86600  1.0000
  H   H536      1.0  0.85085  0.69592  0.63722  1.0000
  S   S118      1.0  0.96337  0.98502  0.94494  1.0000
  N   N31       1.0  0.92580  0.69162  0.89013  1.0000
  C   C443      1.0  0.00839  0.55246  0.72006  1.0000
  H   H537      1.0  0.70027  0.79958  0.54855  1.0000
  H   H538      1.0  0.75233  0.98641  0.90687  1.0000
  Fe  Fe59      1.0  0.81836  0.73991  0.75360  1.0000
  S   S119      1.0  0.81385  0.80858  0.79996  1.0000
  S   S120      1.0  0.88905  0.69319  0.73982  1.0000
  Fe  Fe60      1.0  0.71077  0.75080  0.72208  1.0000
  C   C444      1.0  0.76736  0.89068  0.95678  1.0000
  Fe  Fe61      1.0  0.77234  0.84111  0.73596  1.0000
  S   S121      1.0  0.78925  0.90979  0.69410  1.0000
  Fe  Fe62      1.0  0.74023  0.78190  0.82607  1.0000
  H   H539      1.0  0.74348  0.86742  0.54895  1.0000
  S   S122      1.0  0.78169  0.77428  0.68791  1.0000
  S   S123      1.0  0.74763  0.71017  0.78468  1.0000
  C   C445      1.0  0.70434  0.79081  0.00288  1.0000
  H   H540      1.0  0.93521  0.64992  0.95675  1.0000
  H   H541      1.0  0.89482  0.91132  0.01290  1.0000
  C   C446      1.0  0.82118  0.00653  0.53676  1.0000
  C   C447      1.0  0.91117  0.68028  0.94155  1.0000
  C   C448      1.0  0.75279  0.00473  0.94211  1.0000
  C   C449      1.0  0.98337  0.55564  0.76610  1.0000
  H   H542      1.0  0.91483  0.71246  0.96609  1.0000
  H   H543      1.0  0.88562  0.76216  0.89871  1.0000
  H   H544      1.0  0.94214  0.64106  0.60160  1.0000
  C   C450      1.0  0.78292  0.97014  0.77599  1.0000
  C   C451      1.0  0.79736  0.96479  0.72630  1.0000
  C   C452      1.0  0.85532  0.89950  0.94733  1.0000
  H   H545      1.0  0.76871  0.93948  0.79606  1.0000
  C   C453      1.0  0.00997  0.55278  0.81018  1.0000
  H   H546      1.0  0.84949  0.64935  0.59192  1.0000
  C   C454      1.0  0.73083  0.77933  0.95872  1.0000
  C   C455      1.0  0.77939  0.75942  0.96100  1.0000
  H   H547      1.0  0.94338  0.56096  0.76768  1.0000
  H   H548      1.0  0.99061  0.55417  0.84547  1.0000
  H   H549      1.0  0.79974  0.75065  0.92727  1.0000
  H   H550      1.0  0.96240  0.78595  0.89300  1.0000
  H   H551      1.0  0.87211  0.66933  0.94461  1.0000
  H   H552      1.0  0.88758  0.85254  0.66328  1.0000
  C   C456      1.0  0.85357  0.68945  0.59666  1.0000
  C   C457      1.0  0.85888  0.90466  0.99851  1.0000
  H   H553      1.0  0.93949  0.65027  0.82292  1.0000
  C   C458      1.0  0.94464  0.72381  0.74489  1.0000
  H   H554      1.0  0.90401  0.74574  0.83636  1.0000
  C   C459      1.0  0.94317  0.77468  0.75051  1.0000
  C   C460      1.0  0.89446  0.83473  0.62767  1.0000
  H   H555      1.0  0.90831  0.79585  0.74905  1.0000
  C   C461      1.0  0.81612  0.00480  0.70090  1.0000
  S   S124      1.0  0.02663  0.57480  0.52734  1.0000
  C   C462      1.0  0.91990  0.64728  0.85925  1.0000
  C   C463      1.0  0.94257  0.68183  0.60259  1.0000
  H   H556      1.0  0.82858  0.00056  0.66278  1.0000
  C   C464      1.0  0.98666  0.79836  0.75984  1.0000
  H   H557      1.0  0.99201  0.65770  0.74118  1.0000
  N   N32       1.0  0.90103  0.70520  0.57470  1.0000
  C   C465      1.0  0.90093  0.86326  0.58572  1.0000
  H   H558      1.0  0.82114  0.70926  0.57961  1.0000
  C   C466      1.0  0.91064  0.78950  0.53562  1.0000
  C   C467      1.0  0.90271  0.75933  0.57768  1.0000
  C   C468      1.0  0.89588  0.78359  0.62390  1.0000
  H   H559      1.0  0.89078  0.76311  0.65755  1.0000
  C   C469      1.0  0.80140  0.75111  0.00700  1.0000
  Fe  Fe63      1.0  0.01364  0.94511  0.99857  1.0000
  Fe  Fe64      1.0  0.00608  0.52967  0.59334  1.0000
  H   H560      1.0  0.94087  0.69207  0.64237  1.0000
  H   H561      1.0  0.83901  0.73575  0.00866  1.0000
  H   H562      1.0  0.97900  0.69216  0.58713  1.0000
  H   H563      1.0  0.80653  0.88896  0.88686  1.0000
  H   H564      1.0  0.90286  0.64521  0.52219  1.0000
  S   S125      1.0  0.97458  0.56036  0.66543  1.0000
  C   C470      1.0  0.99054  0.69708  0.74578  1.0000
  H   H565      1.0  0.98465  0.83752  0.76622  1.0000
  C   C471      1.0  0.90499  0.68589  0.52338  1.0000
  H   H566      1.0  0.88042  0.64105  0.85159  1.0000
  C   C472      1.0  0.89079  0.73112  0.87209  1.0000
  H   H567      1.0  0.93433  0.61322  0.87739  1.0000
  S   S126      1.0  0.98692  0.95462  0.55088  1.0000
  C   C473      1.0  0.80962  0.89221  0.92654  1.0000
  C   C474      1.0  0.99020  0.75616  0.89054  1.0000
  S   S127      1.0  0.69827  0.82054  0.76537  1.0000
  H   H568      1.0  0.88797  0.90184  0.92360  1.0000
  H   H569      1.0  0.71090  0.64502  0.66765  1.0000
  H   H570      1.0  0.73150  0.88663  0.94039  1.0000
  H   H571      1.0  0.70165  0.56614  0.62362  1.0000
  C   C475      1.0  0.77059  0.89516  0.00802  1.0000
  H   H572      1.0  0.80447  0.83799  0.54495  1.0000
  H   H573      1.0  0.02234  0.75986  0.63921  1.0000
  S   S128      1.0  0.70257  0.79182  0.90154  1.0000
  H   H574      1.0  0.01182  0.92303  0.67607  1.0000
  C   C476      1.0  0.90981  0.84073  0.53991  1.0000
  C   C477      1.0  0.77617  0.85987  0.52396  1.0000
  C   C478      1.0  0.01813  0.67042  0.88884  1.0000
  C   C479      1.0  0.70878  0.72265  0.53700  1.0000
  C   C480      1.0  0.71955  0.77111  0.52666  1.0000
  H   H575      1.0  0.93032  0.00542  0.76854  1.0000
  H   H576      1.0  0.89882  0.90299  0.58883  1.0000
