data_image0
_chemical_formula_structural       SC3H3NCHFeCH3CHCHNCH3CH2CH2CHSCH2CH2CFeHC3FeCH2C4SHCNSCSH2C2FeS2CHCS2FeCSHCHFeCH7CFeCHFe2SFeSHC2S2CHCHCFeHSCHC2H4SCH3CHCH4C2Fe2SHCHCHS2HSC2SNHC2H2C3H2C2HSFeH2SHNCFeSC2NHCH5C2HSH2C2HCH4C2HSCHC4FeHCNH3SCHC2H2SH6CFeC2H3C3H10NHCH2CHSC3HCHC3NHC2FeC2HCH3C2HSC3SCHCFeSHC4HC3H2CSH3C2H2CHNC2HCH7CHC2HSHCHSC2HC2H2CHCFeSH2S3FeSHC2HNH2CHSFeHC6NC2H4CH4CHCH3CH2C3HCH4SHSH2C2HCHC4HSC2FeCHCSHSH4C3H2CFeHFeS3C7H6FeH2CH3C3HNCHFeCSCHCH2SHSC2Fe2SHC3HSH2C3H3CFeC2NH4C2H3CHCH2CHCH3SHCHCH4SH2SHCHFeHNCNC2H4C2H2C2HC3H7CH2C2H2CH2C2H3SC5HCH5C2HCHCH5C3H3C3H2CSH3FeSFeS2CHFeC2SC6H4CHSH3CHC2SHCH2CSC2SHFeHSFeSCFeS2FeHCHFeSC3HC6H4SH2SHC3H2SH2CNHC3H2CHCNC9H12CH2CNHSH2CSHCSCH4CHCHC2H2CHFeHCS2CSFe2S2FeSFeSH3FeSC3H4C4HC7H5C4H9CHCNC2H2C2H3CS2CH3CH2NHCHSC2H3C2H2CHC2H2SNHSFeHSCSCHFeSH2FeHC2HC6H9CHNCHC6H3C2H4NHC2H2SHCH2C3H4C2H2C2HC3HSCH2CHCHCH
_chemical_formula_sum              "S96 C360 H432 N24 Fe48"
_cell_length_a       36.5025
_cell_length_b       36.4105
_cell_length_c       32.8265
_cell_angle_alpha    89.9939
_cell_angle_beta     90.0044
_cell_angle_gamma    119.712

_space_group_name_H-M_alt    "P 1"
_space_group_IT_number       1

loop_
  _space_group_symop_operation_xyz
  'x, y, z'

loop_
  _atom_site_type_symbol
  _atom_site_label
  _atom_site_symmetry_multiplicity
  _atom_site_fract_x
  _atom_site_fract_y
  _atom_site_fract_z
  _atom_site_occupancy
  S   S1        1.0  0.09987  0.35459  0.25552  1.0000
  C   C1        1.0  0.06870  0.32872  0.21242  1.0000
  C   C2        1.0  0.07938  0.34934  0.17448  1.0000
  C   C3        1.0  0.05576  0.32917  0.13937  1.0000
  H   H1        1.0  0.10614  0.38097  0.17223  1.0000
  H   H2        1.0  0.06416  0.34529  0.11031  1.0000
  H   H3        1.0  0.08664  0.22767  0.10365  1.0000
  N   N1        1.0  0.04907  0.44064  0.25740  1.0000
  C   C4        1.0  0.03382  0.28806  0.21517  1.0000
  H   H4        1.0  0.08756  0.28935  0.08214  1.0000
  Fe  Fe1       1.0  0.07556  0.32976  0.31919  1.0000
  C   C5        1.0  0.12269  0.30767  0.08106  1.0000
  H   H5        1.0  0.13236  0.30781  0.04885  1.0000
  H   H6        1.0  0.13170  0.34070  0.08914  1.0000
  H   H7        1.0  0.09747  0.27696  0.15728  1.0000
  C   C6        1.0  0.03906  0.41849  0.29725  1.0000
  H   H8        1.0  0.04631  0.39215  0.29736  1.0000
  C   C7        1.0  0.12154  0.24356  0.09975  1.0000
  H   H9        1.0  0.12745  0.23773  0.06778  1.0000
  N   N2        1.0  0.14200  0.28957  0.10856  1.0000
  C   C8        1.0  0.13209  0.29435  0.15140  1.0000
  H   H10       1.0  0.13286  0.22728  0.12075  1.0000
  H   H11       1.0  0.14695  0.28204  0.17305  1.0000
  H   H12       1.0  0.14354  0.32789  0.15976  1.0000
  C   C9        1.0  0.03598  0.47323  0.25734  1.0000
  H   H13       1.0  0.10622  0.43755  0.24977  1.0000
  H   H14       1.0  0.02527  0.27190  0.24423  1.0000
  C   C10       1.0  0.09524  0.46120  0.25068  1.0000
  H   H15       1.0  0.11339  0.48384  0.27543  1.0000
  H   H16       1.0  0.03740  0.38301  0.22745  1.0000
  C   C11       1.0  0.02805  0.40779  0.22545  1.0000
  H   H17       1.0  0.15207  0.21290  0.99948  1.0000
  S   S2        1.0  0.05816  0.34709  0.01037  1.0000
  C   C12       1.0  0.00932  0.47529  0.22682  1.0000
  H   H18       1.0  0.05782  0.43949  0.32266  1.0000
  H   H19       1.0  0.03689  0.42131  0.19425  1.0000
  C   C13       1.0  0.18838  0.31223  0.10296  1.0000
  H   H20       1.0  0.19632  0.25754  0.08817  1.0000
  H   H21       1.0  0.10440  0.47892  0.22139  1.0000
  C   C14       1.0  0.42616  0.17427  0.00953  1.0000
  Fe  Fe2       1.0  0.00835  0.28386  0.03349  1.0000
  H   H22       1.0  0.19704  0.37481  0.11634  1.0000
  C   C15       1.0  0.21131  0.29125  0.09310  1.0000
  C   C16       1.0  0.21218  0.35678  0.10819  1.0000
  C   C17       1.0  0.02156  0.28801  0.14196  1.0000
  Fe  Fe3       1.0  0.35028  0.02521  0.23777  1.0000
  C   C18       1.0  0.01047  0.26776  0.18002  1.0000
  H   H23       1.0  0.39651  0.14908  0.02083  1.0000
  H   H24       1.0  0.46748  0.20610  0.10356  1.0000
  C   C19       1.0  0.42898  0.12389  0.07495  1.0000
  C   C20       1.0  0.49113  0.44984  0.02482  1.0000
  C   C21       1.0  0.39995  0.17708  0.15691  1.0000
  C   C22       1.0  0.38487  0.13754  0.17634  1.0000
  S   S3        1.0  0.32945  0.05055  0.18343  1.0000
  H   H25       1.0  0.41475  0.10063  0.04970  1.0000
  C   C23       1.0  0.46562  0.18455  0.02746  1.0000
  N   N3        1.0  0.46957  0.16120  0.06263  1.0000
  S   S4        1.0  0.43557  0.41827  0.01968  1.0000
  C   C24       1.0  0.49909  0.14553  0.05264  1.0000
  S   S5        1.0  0.43089  0.30654  0.00148  1.0000
  H   H26       1.0  0.32548  0.14937  0.08317  1.0000
  H   H27       1.0  0.40587  0.13338  0.08487  1.0000
  C   C25       1.0  0.25515  0.31372  0.08847  1.0000
  C   C26       1.0  0.34839  0.10200  0.16214  1.0000
  Fe  Fe4       1.0  0.40112  0.34649  0.01392  1.0000
  S   S6        1.0  0.39901  0.05681  0.28704  1.0000
  S   S7        1.0  0.48607  0.02880  0.28505  1.0000
  C   C27       1.0  0.32680  0.10691  0.12881  1.0000
  H   H28       1.0  0.27355  0.41298  0.10707  1.0000
  C   C28       1.0  0.34191  0.14648  0.10932  1.0000
  S   S8        1.0  0.35517  0.30127  0.06023  1.0000
  S   S9        1.0  0.40391  0.23056  0.09545  1.0000
  Fe  Fe5       1.0  0.38190  0.25880  0.04465  1.0000
  C   C29       1.0  0.37910  0.18175  0.12281  1.0000
  S   S10       1.0  0.24007  0.24166  0.00732  1.0000
  H   H29       1.0  0.29844  0.07974  0.11762  1.0000
  C   C30       1.0  0.25602  0.37895  0.10317  1.0000
  H   H30       1.0  0.27185  0.29702  0.08054  1.0000
  Fe  Fe6       1.0  0.31152  0.27074  0.00697  1.0000
  C   C31       1.0  0.27745  0.35743  0.09322  1.0000
  H   H31       1.0  0.42847  0.20415  0.16798  1.0000
  H   H32       1.0  0.48544  0.17316  0.12665  1.0000
  H   H33       1.0  0.40169  0.13448  0.20208  1.0000
  H   H34       1.0  0.31143  0.37458  0.08914  1.0000
  H   H35       1.0  0.48852  0.12529  0.02487  1.0000
  H   H36       1.0  0.43270  0.10688  0.10147  1.0000
  H   H37       1.0  0.50323  0.39784  0.02879  1.0000
  C   C32       1.0  0.48632  0.19014  0.09810  1.0000
  Fe  Fe7       1.0  0.35029  0.01099  0.33070  1.0000
  C   C33       1.0  0.50203  0.21991  0.01103  1.0000
  H   H38       1.0  0.50129  0.12634  0.07800  1.0000
  Fe  Fe8       1.0  0.41564  0.00536  0.27795  1.0000
  Fe  Fe9       1.0  0.09808  0.32681  0.40915  1.0000
  S   S11       1.0  0.14152  0.33874  0.46469  1.0000
  Fe  Fe10      1.0  0.02903  0.34945  0.38449  1.0000
  S   S12       1.0  0.03020  0.30197  0.42738  1.0000
  H   H39       1.0  0.07263  0.45249  0.40882  1.0000
  C   C34       1.0  0.18372  0.32952  0.47910  1.0000
  C   C35       1.0  0.05133  0.46440  0.40242  1.0000
  S   S13       1.0  0.09784  0.37807  0.36986  1.0000
  S   S14       1.0  0.08087  0.28054  0.35703  1.0000
  C   C36       1.0  0.19884  0.33802  0.51953  1.0000
  H   H40       1.0  0.18445  0.34954  0.54105  1.0000
  C   C37       1.0  0.00891  0.43610  0.39390  1.0000
  H   H41       1.0  0.19208  0.30834  0.42051  1.0000
  C   C38       1.0  0.20297  0.31482  0.45171  1.0000
  Fe  Fe11      1.0  0.01304  0.25879  0.37334  1.0000
  H   H42       1.0  0.00925  0.23867  0.53255  1.0000
  S   S15       1.0  0.00680  0.30412  0.33179  1.0000
  C   C39       1.0  0.23252  0.33200  0.53243  1.0000
  H   H43       1.0  0.24364  0.33889  0.56353  1.0000
  C   C40       1.0  0.49289  0.01029  0.48566  1.0000
  C   C41       1.0  0.34501  0.15095  0.65913  1.0000
  H   H44       1.0  0.23645  0.16251  0.52402  1.0000
  H   H45       1.0  0.31513  0.08387  0.49941  1.0000
  H   H46       1.0  0.35650  0.04409  0.48091  1.0000
  H   H47       1.0  0.25548  0.14916  0.40784  1.0000
  S   S16       1.0  0.49642  0.39358  0.61333  1.0000
  C   C42       1.0  0.33967  0.01051  0.47455  1.0000
  H   H48       1.0  0.28816  0.18528  0.54635  1.0000
  H   H49       1.0  0.23016  0.18452  0.45124  1.0000
  H   H50       1.0  0.45309  0.05288  0.65734  1.0000
  C   C43       1.0  0.30178  0.09831  0.47993  1.0000
  H   H51       1.0  0.44654  0.03634  0.36876  1.0000
  C   C44       1.0  0.44108  0.02565  0.40117  1.0000
  H   H52       1.0  0.41238  0.06663  0.65989  1.0000
  H   H53       1.0  0.47792  0.16717  0.65928  1.0000
  H   H54       1.0  0.46285  0.10301  0.63920  1.0000
  H   H55       1.0  0.33484  0.25997  0.49056  1.0000
  C   C45       1.0  0.25207  0.31774  0.50492  1.0000
  C   C46       1.0  0.34996  0.08272  0.62524  1.0000
  Fe  Fe12      1.0  0.36549  0.25447  0.60798  1.0000
  Fe  Fe13      1.0  0.42486  0.35116  0.61143  1.0000
  S   S17       1.0  0.30767  0.25923  0.62170  1.0000
  H   H56       1.0  0.35059  0.22243  0.50500  1.0000
  C   C47       1.0  0.33191  0.22894  0.48222  1.0000
  H   H57       1.0  0.44896  0.05372  0.42050  1.0000
  C   C48       1.0  0.28506  0.08044  0.44220  1.0000
  H   H58       1.0  0.34732  0.23279  0.45207  1.0000
  S   S18       1.0  0.36625  0.19567  0.58657  1.0000
  S   S19       1.0  0.29549  0.31028  0.51889  1.0000
  H   H59       1.0  0.25610  0.08548  0.38725  1.0000
  S   S20       1.0  0.40482  0.29890  0.65739  1.0000
  C   C49       1.0  0.35751  0.11771  0.60110  1.0000
  C   C50       1.0  0.30208  0.13516  0.49243  1.0000
  S   S21       1.0  0.37101  0.36325  0.62379  1.0000
  N   N4        1.0  0.28719  0.19493  0.48113  1.0000
  H   H60       1.0  0.25188  0.29862  0.44267  1.0000
  C   C51       1.0  0.23697  0.30924  0.46449  1.0000
  C   C52       1.0  0.26839  0.13606  0.42919  1.0000
  H   H61       1.0  0.26470  0.23812  0.46587  1.0000
  H   H62       1.0  0.26781  0.21863  0.53236  1.0000
  C   C53       1.0  0.26399  0.20910  0.45396  1.0000
  C   C54       1.0  0.28513  0.15508  0.46765  1.0000
  C   C55       1.0  0.26906  0.18991  0.52265  1.0000
  H   H63       1.0  0.27842  0.21768  0.42311  1.0000
  H   H64       1.0  0.28544  0.05220  0.43234  1.0000
  C   C56       1.0  0.35537  0.15205  0.61800  1.0000
  C   C57       1.0  0.26847  0.09927  0.41687  1.0000
  H   H65       1.0  0.31635  0.14827  0.52150  1.0000
  S   S22       1.0  0.38960  0.30576  0.56091  1.0000
  Fe  Fe14      1.0  0.33318  0.31303  0.57650  1.0000
  H   H66       1.0  0.36526  0.11827  0.56921  1.0000
  H   H67       1.0  0.47717  0.46200  0.60058  1.0000
  S   S23       1.0  0.34642  0.03353  0.39405  1.0000
  H   H68       1.0  0.35176  0.05651  0.61190  1.0000
  N   N5        1.0  0.46601  0.00522  0.41290  1.0000
  C   C58       1.0  0.44683  0.07929  0.66363  1.0000
  Fe  Fe15      1.0  0.07095  0.30899  0.96428  1.0000
  S   S24       1.0  0.14010  0.33406  0.94972  1.0000
  C   C59       1.0  0.15000  0.44209  0.85685  1.0000
  C   C60       1.0  0.11170  0.41946  0.92012  1.0000
  N   N6        1.0  0.11242  0.43703  0.87921  1.0000
  H   H69       1.0  0.14845  0.41108  0.85173  1.0000
  C   C61       1.0  0.07442  0.40521  0.85690  1.0000
  H   H70       1.0  0.07397  0.37453  0.85380  1.0000
  H   H71       1.0  0.04485  0.39801  0.87338  1.0000
  H   H72       1.0  0.11105  0.38864  0.91813  1.0000
  H   H73       1.0  0.07306  0.41608  0.82554  1.0000
  H   H74       1.0  0.08320  0.41390  0.93733  1.0000
  C   C62       1.0  0.21164  0.33152  0.97054  1.0000
  C   C63       1.0  0.16740  0.30874  0.96825  1.0000
  H   H75       1.0  0.13967  0.44057  0.93883  1.0000
  S   S25       1.0  0.02492  0.30769  0.91750  1.0000
  H   H76       1.0  0.17204  0.19705  0.87330  1.0000
  H   H77       1.0  0.17687  0.24428  0.89628  1.0000
  C   C64       1.0  0.19369  0.22628  0.89040  1.0000
  C   C65       1.0  0.11467  0.47864  0.88331  1.0000
  H   H78       1.0  0.19911  0.21630  0.92080  1.0000
  C   C66       1.0  0.02335  0.44762  0.96187  1.0000
  H   H79       1.0  0.20806  0.28660  0.83652  1.0000
  H   H80       1.0  0.20105  0.24059  0.81023  1.0000
  H   H81       1.0  0.11196  0.24811  0.97743  1.0000
  H   H82       1.0  0.15288  0.45717  0.82661  1.0000
  C   C67       1.0  0.14599  0.26606  0.97938  1.0000
  C   C68       1.0  0.22337  0.26734  0.82981  1.0000
  H   H83       1.0  0.17978  0.46186  0.87383  1.0000
  S   S26       1.0  0.02451  0.24594  0.99059  1.0000
  C   C69       1.0  0.00950  0.47537  0.94836  1.0000
  H   H84       1.0  0.05389  0.46238  0.85479  1.0000
  C   C70       1.0  0.06021  0.46372  0.98517  1.0000
  C   C71       1.0  0.21303  0.26883  0.99367  1.0000
  C   C72       1.0  0.16878  0.24618  0.99180  1.0000
  C   C73       1.0  0.08269  0.48666  0.86838  1.0000
  Fe  Fe16      1.0  0.00905  0.34176  0.96575  1.0000
  H   H85       1.0  0.49684  0.02001  0.66916  1.0000
  C   C74       1.0  0.49954  0.44373  0.92393  1.0000
  N   N7        1.0  0.23362  0.25198  0.86773  1.0000
  H   H86       1.0  0.07075  0.44273  0.99670  1.0000
  H   H87       1.0  0.22843  0.36463  0.96221  1.0000
  H   H88       1.0  0.25237  0.28790  0.81179  1.0000
  S   S27       1.0  0.33545  0.22545  0.99408  1.0000
  C   C75       1.0  0.42470  0.12808  0.74878  1.0000
  H   H89       1.0  0.45738  0.22038  0.67229  1.0000
  C   C76       1.0  0.34055  0.08202  0.66663  1.0000
  C   C77       1.0  0.42640  0.19302  0.72890  1.0000
  H   H90       1.0  0.45530  0.42159  0.67201  1.0000
  H   H91       1.0  0.41726  0.21677  0.73419  1.0000
  S   S28       1.0  0.33318  0.31693  0.73254  1.0000
  H   H92       1.0  0.46913  0.41611  0.93018  1.0000
  H   H93       1.0  0.37320  0.26451  0.74203  1.0000
  H   H94       1.0  0.26826  0.28092  0.92298  1.0000
  H   H95       1.0  0.39589  0.15777  0.78285  1.0000
  H   H96       1.0  0.47336  0.42512  0.80075  1.0000
  H   H97       1.0  0.24735  0.31001  0.89814  1.0000
  C   C78       1.0  0.36526  0.30661  0.84843  1.0000
  Fe  Fe17      1.0  0.34958  0.30847  0.66771  1.0000
  C   C79       1.0  0.29404  0.17711  0.84807  1.0000
  C   C80       1.0  0.44228  0.06085  0.73418  1.0000
  H   H98       1.0  0.48944  0.37862  0.75890  1.0000
  H   H99       1.0  0.34307  0.17714  0.67237  1.0000
  H   H100      1.0  0.39833  0.24402  0.80390  1.0000
  C   C81       1.0  0.41438  0.15973  0.75625  1.0000
  C   C82       1.0  0.33763  0.11600  0.68333  1.0000
  C   C83       1.0  0.46018  0.23173  0.96112  1.0000
  H   H101      1.0  0.41306  0.10251  0.77053  1.0000
  H   H102      1.0  0.44863  0.45222  0.77798  1.0000
  H   H103      1.0  0.39342  0.18968  0.96374  1.0000
  H   H104      1.0  0.41060  0.39186  0.70456  1.0000
  H   H105      1.0  0.48495  0.37898  0.70376  1.0000
  H   H106      1.0  0.25559  0.22867  0.79317  1.0000
  H   H107      1.0  0.42100  0.39574  0.77996  1.0000
  H   H108      1.0  0.40715  0.04448  0.73399  1.0000
  H   H109      1.0  0.43550  0.44771  0.70408  1.0000
  H   H110      1.0  0.33807  0.33906  0.81633  1.0000
  N   N8        1.0  0.46058  0.09697  0.70515  1.0000
  H   H111      1.0  0.31015  0.15920  0.84348  1.0000
  C   C84       1.0  0.47141  0.38194  0.73323  1.0000
  H   H112      1.0  0.43903  0.35408  0.73524  1.0000
  H   H113      1.0  0.47315  0.48336  0.91019  1.0000
  C   C85       1.0  0.42378  0.19756  0.97672  1.0000
  H   H114      1.0  0.45350  0.07112  0.76586  1.0000
  S   S29       1.0  0.39722  0.26210  0.88931  1.0000
  C   C86       1.0  0.38172  0.27931  0.84536  1.0000
  C   C87       1.0  0.44802  0.12924  0.71358  1.0000
  C   C88       1.0  0.26275  0.21690  0.82047  1.0000
  H   H115      1.0  0.28905  0.18630  0.78414  1.0000
  C   C89       1.0  0.28213  0.19242  0.81471  1.0000
  H   H116      1.0  0.36335  0.31873  0.87776  1.0000
  C   C90       1.0  0.25435  0.22642  0.86028  1.0000
  C   C91       1.0  0.26662  0.20998  0.89356  1.0000
  C   C92       1.0  0.46017  0.16396  0.68664  1.0000
  N   N9        1.0  0.47079  0.42242  0.73530  1.0000
  H   H117      1.0  0.26153  0.21600  0.92475  1.0000
  C   C93       1.0  0.37135  0.27672  0.77151  1.0000
  C   C94       1.0  0.44909  0.19503  0.69408  1.0000
  Fe  Fe18      1.0  0.38163  0.27670  0.95240  1.0000
  C   C95       1.0  0.49922  0.24300  0.97831  1.0000
  C   C96       1.0  0.35110  0.31820  0.81350  1.0000
  H   H118      1.0  0.45798  0.25002  0.93613  1.0000
  C   C97       1.0  0.23440  0.31179  0.98363  1.0000
  H   H119      1.0  0.33001  0.11546  0.71524  1.0000
  H   H120      1.0  0.29242  0.30928  0.87729  1.0000
  H   H121      1.0  0.26847  0.32967  0.98547  1.0000
  C   C98       1.0  0.26161  0.28961  0.89255  1.0000
  C   C99       1.0  0.45273  0.42405  0.77525  1.0000
  H   H122      1.0  0.45101  0.03639  0.72628  1.0000
  S   S30       1.0  0.35463  0.31943  0.96219  1.0000
  C   C100      1.0  0.44201  0.42106  0.70264  1.0000
  C   C101      1.0  0.35356  0.30294  0.77499  1.0000
  C   C102      1.0  0.38547  0.26503  0.80661  1.0000
  S   S31       1.0  0.33438  0.04039  0.69885  1.0000
  C   C103      1.0  0.28626  0.18584  0.88739  1.0000
  H   H123      1.0  0.29632  0.17456  0.91328  1.0000
  C   C104      1.0  0.50192  0.48174  0.91279  1.0000
  Fe  Fe19      1.0  0.08862  0.71108  0.03087  1.0000
  S   S32       1.0  0.10799  0.73799  0.09476  1.0000
  H   H124      1.0  0.07321  0.69130  0.23690  1.0000
  C   C105      1.0  0.10940  0.82379  0.26926  1.0000
  C   C106      1.0  0.23395  0.84237  0.29714  1.0000
  C   C107      1.0  0.20100  0.80147  0.28836  1.0000
  C   C108      1.0  0.17674  0.87341  0.23924  1.0000
  H   H125      1.0  0.20198  0.78585  0.26069  1.0000
  C   C109      1.0  0.07277  0.70903  0.13457  1.0000
  C   C110      1.0  0.08843  0.71044  0.17400  1.0000
  C   C111      1.0  0.06077  0.68998  0.20671  1.0000
  H   H126      1.0  0.12208  0.72753  0.17935  1.0000
  H   H127      1.0  0.18022  0.79833  0.15464  1.0000
  C   C112      1.0  0.20763  0.82997  0.16179  1.0000
  S   S33       1.0  0.04077  0.64283  0.02317  1.0000
  H   H128      1.0  0.22656  0.93009  0.17719  1.0000
  H   H129      1.0  0.20736  0.90081  0.24433  1.0000
  H   H130      1.0  0.14826  0.83314  0.11882  1.0000
  C   C113      1.0  0.16554  0.85082  0.20176  1.0000
  C   C114      1.0  0.23397  0.90424  0.17192  1.0000
  H   H131      1.0  0.11442  0.79525  0.17242  1.0000
  H   H132      1.0  0.16043  0.88591  0.13255  1.0000
  C   C115      1.0  0.14880  0.86008  0.27224  1.0000
  H   H133      1.0  0.25363  0.90390  0.19767  1.0000
  N   N10       1.0  0.19496  0.86261  0.16680  1.0000
  C   C116      1.0  0.09741  0.80103  0.23296  1.0000
  C   C117      1.0  0.17403  0.86470  0.12872  1.0000
  H   H134      1.0  0.22254  0.82664  0.19015  1.0000
  C   C118      1.0  0.12491  0.81434  0.19966  1.0000
  H   H135      1.0  0.19639  0.87665  0.10258  1.0000
  H   H136      1.0  0.25474  0.91316  0.14462  1.0000
  H   H137      1.0  0.23068  0.83790  0.13651  1.0000
  H   H138      1.0  0.05079  0.56002  0.31222  1.0000
  H   H139      1.0  0.06691  0.77248  0.23078  1.0000
  H   H140      1.0  0.14071  0.74983  0.30728  1.0000
  H   H141      1.0  0.07100  0.57736  0.13683  1.0000
  C   C119      1.0  0.03937  0.53637  0.28827  1.0000
  H   H142      1.0  0.15838  0.87724  0.30081  1.0000
  C   C120      1.0  0.02918  0.68657  0.12801  1.0000
  C   C121      1.0  0.01286  0.53724  0.25826  1.0000
  H   H143      1.0  0.11328  0.51982  0.00983  1.0000
  S   S34       1.0  0.27655  0.86774  0.26286  1.0000
  H   H144      1.0  0.08847  0.81287  0.29539  1.0000
  C   C122      1.0  0.01719  0.66789  0.20016  1.0000
  H   H145      1.0  0.05692  0.54937  0.06645  1.0000
  S   S35       1.0  0.06518  0.66300  0.32894  1.0000
  C   C123      1.0  0.16627  0.78097  0.31479  1.0000
  C   C124      1.0  0.04174  0.57029  0.12191  1.0000
  H   H146      1.0  0.01678  0.68571  0.09788  1.0000
  C   C125      1.0  0.03373  0.55451  0.08230  1.0000
  C   C126      1.0  0.01237  0.57757  0.14204  1.0000
  H   H147      1.0  0.01881  0.59026  0.17277  1.0000
  H   H148      1.0  0.07141  0.50575  0.31204  1.0000
  C   C127      1.0  0.05086  0.50498  0.28793  1.0000
  H   H149      1.0  0.49828  0.90150  0.25986  1.0000
  C   C128      1.0  0.49185  0.95640  0.27146  1.0000
  Fe  Fe20      1.0  0.32254  0.93731  0.27301  1.0000
  S   S36       1.0  0.36931  0.96152  0.32426  1.0000
  H   H150      1.0  0.48987  0.50834  0.02201  1.0000
  H   H151      1.0  0.45848  0.94043  0.26454  1.0000
  S   S37       1.0  0.29965  0.98349  0.28277  1.0000
  S   S38       1.0  0.37046  0.97677  0.22527  1.0000
  S   S39       1.0  0.03137  0.66913  0.42081  1.0000
  Fe  Fe21      1.0  0.06505  0.71297  0.36869  1.0000
  S   S40       1.0  0.12239  0.77577  0.38527  1.0000
  H   H152      1.0  0.10268  0.77570  0.50898  1.0000
  C   C129      1.0  0.16465  0.80102  0.35055  1.0000
  C   C130      1.0  0.19787  0.84171  0.35958  1.0000
  H   H153      1.0  0.19686  0.85756  0.38704  1.0000
  N   N11       1.0  0.16213  0.83381  0.51119  1.0000
  H   H154      1.0  0.17474  0.78375  0.49531  1.0000
  H   H155      1.0  0.21407  0.81131  0.55649  1.0000
  C   C131      1.0  0.11717  0.80916  0.49865  1.0000
  H   H156      1.0  0.12212  0.85336  0.57130  1.0000
  S   S41       1.0  0.05877  0.57965  0.39993  1.0000
  Fe  Fe22      1.0  0.02793  0.61793  0.37935  1.0000
  H   H157      1.0  0.09863  0.52970  0.41146  1.0000
  C   C132      1.0  0.18551  0.81727  0.48750  1.0000
  C   C133      1.0  0.16603  0.83108  0.55593  1.0000
  C   C134      1.0  0.14280  0.84248  0.58281  1.0000
  C   C135      1.0  0.19376  0.81884  0.57417  1.0000
  C   C136      1.0  0.19726  0.81756  0.61655  1.0000
  C   C137      1.0  0.03862  0.52425  0.39642  1.0000
  N   N12       1.0  0.17171  0.69406  0.42704  1.0000
  C   C138      1.0  0.20916  0.73483  0.43825  1.0000
  C   C139      1.0  0.22551  0.74164  0.47854  1.0000
  H   H158      1.0  0.18096  0.81845  0.45406  1.0000
  H   H159      1.0  0.21111  0.71742  0.50162  1.0000
  H   H160      1.0  0.16075  0.89249  0.51337  1.0000
  H   H161      1.0  0.11353  0.80872  0.46487  1.0000
  C   C140      1.0  0.17897  0.87868  0.49949  1.0000
  H   H162      1.0  0.09780  0.82241  0.51091  1.0000
  H   H163      1.0  0.21232  0.89842  0.50968  1.0000
  H   H164      1.0  0.17831  0.88248  0.46585  1.0000
  H   H165      1.0  0.18135  0.65471  0.47056  1.0000
  C   C141      1.0  0.14651  0.84097  0.62513  1.0000
  H   H166      1.0  0.22004  0.83646  0.49278  1.0000
  C   C142      1.0  0.17861  0.65819  0.43728  1.0000
  H   H167      1.0  0.15163  0.62731  0.42709  1.0000
  H   H168      1.0  0.20769  0.66197  0.42241  1.0000
  H   H169      1.0  0.13402  0.65896  0.37523  1.0000
  C   C143      1.0  0.16120  0.69059  0.38296  1.0000
  H   H170      1.0  0.21919  0.80902  0.63006  1.0000
  H   H171      1.0  0.12882  0.85020  0.64510  1.0000
  C   C144      1.0  0.06597  0.50819  0.40396  1.0000
  C   C145      1.0  0.22945  0.76925  0.41053  1.0000
  C   C146      1.0  0.17361  0.82843  0.64194  1.0000
  H   H172      1.0  0.10569  0.65880  0.44242  1.0000
  C   C147      1.0  0.13462  0.68914  0.45007  1.0000
  H   H173      1.0  0.13891  0.68888  0.48354  1.0000
  H   H174      1.0  0.25738  0.89404  0.33965  1.0000
  H   H175      1.0  0.21887  0.76764  0.37950  1.0000
  H   H176      1.0  0.12805  0.71524  0.44288  1.0000
  S   S42       1.0  0.44167  0.92849  0.65841  1.0000
  H   H177      1.0  0.18817  0.69499  0.36369  1.0000
  S   S43       1.0  0.27121  0.92607  0.65339  1.0000
  H   H178      1.0  0.15163  0.71400  0.37364  1.0000
  H   H179      1.0  0.27862  0.89058  0.45174  1.0000
  C   C148      1.0  0.26050  0.78003  0.49004  1.0000
  C   C149      1.0  0.26440  0.80750  0.42237  1.0000
  H   H180      1.0  0.27245  0.78466  0.52102  1.0000
  C   C150      1.0  0.28005  0.81279  0.46195  1.0000
  H   H181      1.0  0.27921  0.83330  0.40063  1.0000
  C   C151      1.0  0.48533  0.99865  0.52681  1.0000
  C   C152      1.0  0.23224  0.86246  0.33280  1.0000
  C   C153      1.0  0.41836  0.96562  0.47167  1.0000
  C   C154      1.0  0.44474  0.97024  0.54023  1.0000
  H   H182      1.0  0.30147  0.94193  0.39498  1.0000
  S   S44       1.0  0.37111  0.97918  0.62090  1.0000
  C   C155      1.0  0.29608  0.92395  0.45834  1.0000
  C   C156      1.0  0.30558  0.93793  0.49883  1.0000
  Fe  Fe23      1.0  0.31081  0.92090  0.60353  1.0000
  C   C157      1.0  0.30893  0.95304  0.42605  1.0000
  H   H183      1.0  0.30694  0.84262  0.47118  1.0000
  C   C158      1.0  0.32750  0.98136  0.50688  1.0000
  S   S45       1.0  0.28964  0.90011  0.53830  1.0000
  H   H184      1.0  0.41745  0.94386  0.39154  1.0000
  S   S46       1.0  0.32473  0.87768  0.64064  1.0000
  H   H185      1.0  0.46903  0.94948  0.39652  1.0000
  H   H186      1.0  0.39118  0.95255  0.45174  1.0000
  H   H187      1.0  0.45699  0.97374  0.35496  1.0000
  H   H188      1.0  0.37971  0.93215  0.52346  1.0000
  C   C159      1.0  0.45174  0.96637  0.38811  1.0000
  C   C160      1.0  0.41135  0.95385  0.51272  1.0000
  C   C161      1.0  0.33052  0.99642  0.43406  1.0000
  H   H189      1.0  0.33480  0.99252  0.53797  1.0000
  H   H190      1.0  0.43899  0.96104  0.57210  1.0000
  C   C162      1.0  0.45944  0.99392  0.45671  1.0000
  Fe  Fe24      1.0  0.38324  0.93632  0.66127  1.0000
  H   H191      1.0  0.40664  0.00391  0.40414  1.0000
  Fe  Fe25      1.0  0.10430  0.72548  0.93768  1.0000
  S   S47       1.0  0.05764  0.65705  0.92405  1.0000
  S   S48       1.0  0.13443  0.78060  0.89179  1.0000
  S   S49       1.0  0.24388  0.82611  0.72685  1.0000
  C   C163      1.0  0.07083  0.53530  0.97852  1.0000
  C   C164      1.0  0.16630  0.79276  0.84689  1.0000
  C   C165      1.0  0.17168  0.76235  0.82580  1.0000
  C   C166      1.0  0.19564  0.77326  0.78941  1.0000
  C   C167      1.0  0.21516  0.81480  0.77378  1.0000
  C   C168      1.0  0.20999  0.84528  0.79504  1.0000
  C   C169      1.0  0.18549  0.83421  0.83107  1.0000
  H   H192      1.0  0.15712  0.73033  0.83726  1.0000
  H   H193      1.0  0.19922  0.74932  0.77330  1.0000
  H   H194      1.0  0.22454  0.87729  0.78353  1.0000
  H   H195      1.0  0.18160  0.85809  0.84694  1.0000
  H   H196      1.0  0.00667  0.68700  0.82934  1.0000
  H   H197      1.0  0.07138  0.78331  0.83964  1.0000
  Fe  Fe26      1.0  0.08567  0.64111  0.97781  1.0000
  H   H198      1.0  0.03724  0.75821  0.79774  1.0000
  H   H199      1.0  0.17706  0.82792  0.67477  1.0000
  C   C170      1.0  0.03866  0.77207  0.82831  1.0000
  H   H200      1.0  0.04681  0.71412  0.86718  1.0000
  H   H201      1.0  0.06151  0.53205  0.86095  1.0000
  H   H202      1.0  0.04772  0.77461  0.90671  1.0000
  C   C171      1.0  0.08658  0.52675  0.87172  1.0000
  C   C172      1.0  0.01405  0.76075  0.89729  1.0000
  C   C173      1.0  0.01349  0.70401  0.85896  1.0000
  H   H203      1.0  0.17963  0.57806  0.92211  1.0000
  N   N13       1.0  0.00642  0.74067  0.85646  1.0000
  C   C174      1.0  0.12175  0.55965  0.89047  1.0000
  H   H204      1.0  0.02252  0.54019  0.94550  1.0000
  Fe  Fe27      1.0  0.01651  0.66427  0.97095  1.0000
  C   C175      1.0  0.03290  0.51900  0.95695  1.0000
  S   S50       1.0  0.06085  0.73306  0.98191  1.0000
  C   C176      1.0  0.15316  0.55264  0.90619  1.0000
  H   H205      1.0  0.03524  0.80063  0.82504  1.0000
  C   C177      1.0  0.14988  0.51284  0.90265  1.0000
  H   H206      1.0  0.12392  0.59027  0.89432  1.0000
  H   H207      1.0  0.00616  0.78660  0.89760  1.0000
  S   S51       1.0  0.10409  0.59031  0.98599  1.0000
  H   H208      1.0  0.17490  0.50896  0.91571  1.0000
  S   S52       1.0  0.13580  0.70911  0.98817  1.0000
  C   C178      1.0  0.08407  0.50742  0.99295  1.0000
  C   C179      1.0  0.49632  0.96079  0.66881  1.0000
  Fe  Fe28      1.0  0.28991  0.88719  0.69266  1.0000
  Fe  Fe29      1.0  0.33276  0.98150  0.67376  1.0000
  S   S53       1.0  0.34969  0.94306  0.71609  1.0000
  H   H209      1.0  0.49001  0.50550  0.72810  1.0000
  C   C180      1.0  0.87293  0.15381  0.29645  1.0000
  C   C181      1.0  0.82434  0.07332  0.14006  1.0000
  C   C182      1.0  0.87033  0.12698  0.09024  1.0000
  H   H210      1.0  0.91883  0.18476  0.11913  1.0000
  S   S54       1.0  0.79476  0.08531  0.28187  1.0000
  H   H211      1.0  0.82337  0.10369  0.01859  1.0000
  H   H212      1.0  0.98396  0.23598  0.18233  1.0000
  C   C183      1.0  0.83588  0.08622  0.09963  1.0000
  C   C184      1.0  0.51710  0.43186  0.02832  1.0000
  C   C185      1.0  0.85674  0.11102  0.01633  1.0000
  H   H213      1.0  0.83737  0.09015  0.20343  1.0000
  H   H214      1.0  0.61216  0.01355  0.29491  1.0000
  H   H215      1.0  0.79800  0.04216  0.14678  1.0000
  C   C186      1.0  0.88188  0.18141  0.04095  1.0000
  Fe  Fe30      1.0  0.74835  0.01606  0.29459  1.0000
  C   C187      1.0  0.84652  0.10028  0.17214  1.0000
  C   C188      1.0  0.88047  0.14025  0.16400  1.0000
  N   N14       1.0  0.88355  0.14199  0.04792  1.0000
  H   H216      1.0  0.99311  0.39110  0.22880  1.0000
  H   H217      1.0  0.86719  0.16717  0.26939  1.0000
  H   H218      1.0  0.81727  0.06369  0.07639  1.0000
  H   H219      1.0  0.88915  0.19212  0.00863  1.0000
  C   C189      1.0  0.84278  0.11288  0.30901  1.0000
  C   C190      1.0  0.56121  0.45797  0.03106  1.0000
  H   H220      1.0  0.85805  0.08119  0.01839  1.0000
  H   H221      1.0  0.93347  0.20899  0.30871  1.0000
  H   H222      1.0  0.89771  0.16110  0.18911  1.0000
  C   C191      1.0  0.89228  0.15348  0.12376  1.0000
  H   H223      1.0  0.93052  0.12268  0.04748  1.0000
  C   C192      1.0  0.55605  0.01945  0.29101  1.0000
  H   H224      1.0  0.93806  0.16146  0.00939  1.0000
  H   H225      1.0  0.90524  0.20822  0.05982  1.0000
  C   C193      1.0  0.50973  0.49417  0.02454  1.0000
  H   H226      1.0  0.95039  0.17695  0.06131  1.0000
  C   C194      1.0  0.92748  0.15110  0.04132  1.0000
  H   H227      1.0  0.57245  0.05259  0.29920  1.0000
  H   H228      1.0  0.58101  0.44373  0.03361  1.0000
  H   H229      1.0  0.85007  0.17678  0.04812  1.0000
  S   S55       1.0  0.99261  0.26010  0.09847  1.0000
  H   H230      1.0  0.89174  0.48621  0.07741  1.0000
  C   C195      1.0  0.57982  0.50228  0.03059  1.0000
  H   H231      1.0  0.99671  0.45289  0.20208  1.0000
  C   C196      1.0  0.91036  0.17766  0.31883  1.0000
  H   H232      1.0  0.53288  0.23052  0.02395  1.0000
  H   H233      1.0  0.51944  0.21566  0.09355  1.0000
  H   H234      1.0  0.53173  0.17158  0.04705  1.0000
  H   H235      1.0  0.00510  0.40501  0.30510  1.0000
  S   S56       1.0  0.98861  0.38055  0.39359  1.0000
  H   H236      1.0  0.76270  0.08487  0.43584  1.0000
  H   H237      1.0  0.68478  0.06326  0.55043  1.0000
  S   S57       1.0  0.78316  0.04749  0.56588  1.0000
  H   H238      1.0  0.51423  0.04238  0.36870  1.0000
  C   C197      1.0  0.51070  0.03483  0.40192  1.0000
  H   H239      1.0  0.91111  0.24224  0.36371  1.0000
  Fe  Fe31      1.0  0.75936  0.02796  0.63041  1.0000
  H   H240      1.0  0.80123  0.05597  0.48034  1.0000
  N   N15       1.0  0.89957  0.15326  0.62328  1.0000
  C   C198      1.0  0.91378  0.15552  0.50804  1.0000
  N   N16       1.0  0.88380  0.24866  0.41946  1.0000
  C   C199      1.0  0.77525  0.02439  0.48555  1.0000
  C   C200      1.0  0.92166  0.25774  0.44377  1.0000
  H   H241      1.0  0.85810  0.26971  0.46745  1.0000
  H   H242      1.0  0.94874  0.43054  0.37937  1.0000
  H   H243      1.0  0.67581  0.04413  0.60182  1.0000
  H   H244      1.0  0.62632  0.50005  0.39398  1.0000
  C   C201      1.0  0.89607  0.14422  0.54700  1.0000
  C   C202      1.0  0.76060  0.01119  0.52536  1.0000
  H   H245      1.0  0.97985  0.22045  0.60065  1.0000
  H   H246      1.0  0.51088  0.01189  0.54866  1.0000
  C   C203      1.0  0.85101  0.20353  0.42339  1.0000
  C   C204      1.0  0.95449  0.18937  0.50302  1.0000
  H   H247      1.0  0.83824  0.26967  0.41737  1.0000
  C   C205      1.0  0.99643  0.49604  0.38689  1.0000
  C   C206      1.0  0.52739  0.44941  0.61511  1.0000
  C   C207      1.0  0.91751  0.16099  0.35442  1.0000
  H   H248      1.0  0.58405  0.44760  0.62970  1.0000
  H   H249      1.0  0.89296  0.10668  0.39404  1.0000
  H   H250      1.0  0.55650  0.46383  0.42772  1.0000
  H   H251      1.0  0.96857  0.19747  0.47290  1.0000
  H   H252      1.0  0.92386  0.29520  0.37499  1.0000
  H   H253      1.0  0.86467  0.11729  0.54937  1.0000
  H   H254      1.0  0.83810  0.18856  0.35813  1.0000
  C   C208      1.0  0.83763  0.18470  0.46247  1.0000
  H   H255      1.0  0.91557  0.25374  0.47699  1.0000
  H   H256      1.0  0.95712  0.17849  0.65833  1.0000
  C   C209      1.0  0.58185  0.48584  0.48757  1.0000
  C   C210      1.0  0.83021  0.17751  0.38914  1.0000
  H   H257      1.0  0.91799  0.10567  0.62809  1.0000
  H   H258      1.0  0.93428  0.23676  0.43437  1.0000
  C   C211      1.0  0.88758  0.11989  0.36667  1.0000
  H   H259      1.0  0.61005  0.03734  0.60129  1.0000
  H   H260      1.0  0.78342  0.11608  0.36724  1.0000
  C   C212      1.0  0.60190  0.02301  0.57030  1.0000
  C   C213      1.0  0.57067  0.46777  0.62382  1.0000
  H   H261      1.0  0.76867  0.00708  0.42181  1.0000
  H   H262      1.0  0.53125  0.02096  0.40836  1.0000
  H   H263      1.0  0.89058  0.30993  0.43165  1.0000
  S   S58       1.0  0.96247  0.19072  0.38533  1.0000
  C   C214      1.0  0.96003  0.20142  0.57593  1.0000
  C   C215      1.0  0.80640  0.14229  0.46686  1.0000
  C   C216      1.0  0.89817  0.26162  0.37685  1.0000
  C   C217      1.0  0.51034  0.47571  0.60772  1.0000
  C   C218      1.0  0.91873  0.16660  0.58227  1.0000
  H   H264      1.0  0.55117  0.47011  0.50232  1.0000
  C   C219      1.0  0.97743  0.21242  0.53680  1.0000
  H   H265      1.0  0.87669  0.09872  0.66260  1.0000
  H   H266      1.0  0.60691  0.04859  0.54864  1.0000
  H   H267      1.0  0.86572  0.18742  0.61781  1.0000
  H   H268      1.0  0.89623  0.13751  0.48154  1.0000
  H   H269      1.0  0.85120  0.20262  0.48996  1.0000
  C   C220      1.0  0.58482  0.48230  0.44561  1.0000
  C   C221      1.0  0.67228  0.03411  0.56926  1.0000
  H   H270      1.0  0.94730  0.29113  0.43972  1.0000
  C   C222      1.0  0.85998  0.15522  0.62541  1.0000
  H   H271      1.0  0.69308  0.02013  0.56543  1.0000
  C   C223      1.0  0.85052  0.09577  0.34392  1.0000
  H   H272      1.0  0.79734  0.12824  0.49694  1.0000
  H   H273      1.0  0.52305  0.06563  0.41799  1.0000
  H   H274      1.0  0.83535  0.13238  0.60434  1.0000
  H   H275      1.0  0.82752  0.06433  0.35392  1.0000
  H   H276      1.0  0.86509  0.08610  0.61005  1.0000
  C   C224      1.0  0.86688  0.27561  0.43472  1.0000
  C   C225      1.0  0.78683  0.11775  0.43259  1.0000
  C   C226      1.0  0.79849  0.13541  0.39392  1.0000
  H   H277      1.0  0.52506  0.03237  0.47733  1.0000
  H   H278      1.0  0.68799  0.01957  0.49729  1.0000
  H   H279      1.0  0.93502  0.21338  0.65389  1.0000
  C   C227      1.0  0.88946  0.10909  0.63123  1.0000
  C   C228      1.0  0.98161  0.45215  0.38601  1.0000
  C   C229      1.0  0.92736  0.17988  0.65690  1.0000
  H   H280      1.0  0.87242  0.25921  0.35695  1.0000
  H   H281      1.0  0.84584  0.14724  0.65653  1.0000
  C   C230      1.0  0.62417  0.50267  0.42671  1.0000
  S   S59       1.0  0.64025  0.04219  0.68640  1.0000
  H   H282      1.0  0.51878  0.13156  0.73808  1.0000
  H   H283      1.0  0.55112  0.42884  0.73181  1.0000
  H   H284      1.0  0.53426  0.41241  0.93928  1.0000
  Fe  Fe32      1.0  0.97669  0.24712  0.94752  1.0000
  S   S60       1.0  0.92378  0.18368  0.92274  1.0000
  Fe  Fe33      1.0  0.78592  0.06197  0.71825  1.0000
  S   S61       1.0  0.84399  0.12095  0.74414  1.0000
  S   S62       1.0  0.72299  0.01250  0.74373  1.0000
  C   C231      1.0  0.58467  0.00973  0.68155  1.0000
  H   H285      1.0  0.52317  0.14240  0.68446  1.0000
  Fe  Fe34      1.0  0.69232  0.02448  0.68928  1.0000
  C   C232      1.0  0.57584  0.47789  0.92383  1.0000
  C   C233      1.0  0.51567  0.00481  0.67198  1.0000
  S   S63       1.0  0.95768  0.28117  0.99269  1.0000
  C   C234      1.0  0.90160  0.16737  0.87286  1.0000
  C   C235      1.0  0.91805  0.19339  0.83856  1.0000
  C   C236      1.0  0.89989  0.17867  0.79969  1.0000
  C   C237      1.0  0.86482  0.13789  0.79438  1.0000
  C   C238      1.0  0.84818  0.11197  0.82871  1.0000
  C   C239      1.0  0.86654  0.12658  0.86755  1.0000
  H   H286      1.0  0.94491  0.22479  0.84194  1.0000
  H   H287      1.0  0.91311  0.19913  0.77353  1.0000
  H   H288      1.0  0.82132  0.08056  0.82533  1.0000
  H   H289      1.0  0.85345  0.10605  0.89367  1.0000
  C   C240      1.0  0.55965  0.02913  0.67813  1.0000
  H   H290      1.0  0.51793  0.09359  0.70247  1.0000
  S   S64       1.0  0.99473  0.39366  0.94720  1.0000
  H   H291      1.0  0.98097  0.46317  0.93042  1.0000
  H   H292      1.0  0.60296  0.47442  0.93027  1.0000
  H   H293      1.0  0.91195  0.16895  0.68726  1.0000
  C   C241      1.0  0.55099  0.45837  0.73016  1.0000
  H   H294      1.0  0.57448  0.06319  0.68010  1.0000
  C   C242      1.0  0.53637  0.44175  0.92912  1.0000
  C   C243      1.0  0.51303  0.46039  0.73063  1.0000
  S   S65       1.0  0.79488  0.01571  0.67947  1.0000
  H   H295      1.0  0.86750  0.12352  0.98491  1.0000
  C   C244      1.0  0.51725  0.50125  0.72758  1.0000
  H   H296      1.0  0.61887  0.49270  0.72494  1.0000
  H   H297      1.0  0.52732  0.27024  0.96662  1.0000
  C   C245      1.0  0.59038  0.49499  0.72632  1.0000
  S   S66       1.0  0.75454  0.07710  0.66701  1.0000
  C   C246      1.0  0.50714  0.11700  0.70757  1.0000
  C   C247      1.0  0.60819  0.75361  0.11080  1.0000
  S   S67       1.0  0.70765  0.97659  0.24259  1.0000
  H   H298      1.0  0.88810  0.52271  0.11165  1.0000
  Fe  Fe35      1.0  0.76749  0.67488  0.04292  1.0000
  H   H299      1.0  0.56533  0.79768  0.23676  1.0000
  S   S68       1.0  0.83505  0.69354  0.05885  1.0000
  Fe  Fe36      1.0  0.67428  0.60537  0.03581  1.0000
  S   S69       1.0  0.65262  0.65292  0.02811  1.0000
  C   C248      1.0  0.99685  0.54702  0.06219  1.0000
  Fe  Fe37      1.0  0.69878  0.69048  0.07822  1.0000
  S   S70       1.0  0.68088  0.71458  0.13528  1.0000
  S   S71       1.0  0.71617  0.63987  0.08890  1.0000
  Fe  Fe38      1.0  0.65434  0.94958  0.28773  1.0000
  H   H300      1.0  0.66172  0.88912  0.19419  1.0000
  C   C249      1.0  0.56890  0.76956  0.16024  1.0000
  H   H301      1.0  0.95625  0.61861  0.05184  1.0000
  Fe  Fe39      1.0  0.72290  0.92680  0.26363  1.0000
  S   S72       1.0  0.74361  0.89809  0.21220  1.0000
  C   C250      1.0  0.00153  0.66637  0.16076  1.0000
  C   C251      1.0  0.55385  0.52031  0.02749  1.0000
  C   C252      1.0  0.55805  0.95484  0.27710  1.0000
  H   H302      1.0  0.89826  0.72212  0.28811  1.0000
  C   C253      1.0  0.70018  0.76578  0.15699  1.0000
  C   C254      1.0  0.68118  0.76988  0.19278  1.0000
  C   C255      1.0  0.69424  0.80989  0.21041  1.0000
  C   C256      1.0  0.72652  0.84647  0.19237  1.0000
  C   C257      1.0  0.74600  0.84229  0.15696  1.0000
  C   C258      1.0  0.73302  0.80227  0.13938  1.0000
  H   H303      1.0  0.65581  0.74188  0.20672  1.0000
  H   H304      1.0  0.67943  0.81236  0.23795  1.0000
  H   H305      1.0  0.77111  0.87033  0.14280  1.0000
  H   H306      1.0  0.74795  0.79976  0.11187  1.0000
  S   S73       1.0  0.76721  0.96837  0.31321  1.0000
  H   H307      1.0  0.55300  0.86724  0.19706  1.0000
  H   H308      1.0  0.56763  0.55431  0.02749  1.0000
  S   S74       1.0  0.98134  0.64054  0.23999  1.0000
  H   H309      1.0  0.91528  0.68591  0.16860  1.0000
  C   C259      1.0  0.86581  0.67815  0.02949  1.0000
  C   C260      1.0  0.90841  0.69403  0.03981  1.0000
  C   C261      1.0  0.63906  0.79612  0.10982  1.0000
  H   H310      1.0  0.92186  0.71572  0.06513  1.0000
  H   H311      1.0  0.96656  0.69457  0.02584  1.0000
  S   S75       1.0  0.66707  0.89724  0.30573  1.0000
  H   H312      1.0  0.62184  0.82754  0.23945  1.0000
  H   H313      1.0  0.93157  0.69332  0.24220  1.0000
  C   C262      1.0  0.55653  0.84386  0.17782  1.0000
  N   N17       1.0  0.59570  0.84297  0.18795  1.0000
  H   H314      1.0  0.54122  0.75768  0.17932  1.0000
  C   C263      1.0  0.63135  0.88704  0.18508  1.0000
  C   C264      1.0  0.60025  0.81303  0.16070  1.0000
  C   C265      1.0  0.63559  0.82551  0.13456  1.0000
  H   H315      1.0  0.66678  0.80601  0.09095  1.0000
  H   H316      1.0  0.97724  0.50757  0.20432  1.0000
  C   C266      1.0  0.93381  0.68213  0.01754  1.0000
  H   H317      1.0  0.63464  0.90006  0.15381  1.0000
  C   C267      1.0  0.57309  0.74036  0.13585  1.0000
  N   N18       1.0  0.82224  0.73882  0.18044  1.0000
  C   C268      1.0  0.84254  0.76998  0.14703  1.0000
  C   C269      1.0  0.78559  0.70047  0.16354  1.0000
  C   C270      1.0  0.80571  0.75766  0.21038  1.0000
  C   C271      1.0  0.85263  0.72728  0.19801  1.0000
  C   C272      1.0  0.86284  0.73127  0.24024  1.0000
  C   C273      1.0  0.87235  0.71045  0.17273  1.0000
  C   C274      1.0  0.89104  0.71914  0.25578  1.0000
  C   C275      1.0  0.90062  0.69866  0.18856  1.0000
  C   C276      1.0  0.90988  0.70289  0.23001  1.0000
  H   H318      1.0  0.85171  0.75680  0.12091  1.0000
  H   H319      1.0  0.82085  0.78030  0.13410  1.0000
  H   H320      1.0  0.87151  0.79856  0.15793  1.0000
  H   H321      1.0  0.79480  0.68640  0.13821  1.0000
  H   H322      1.0  0.76135  0.70755  0.15102  1.0000
  H   H323      1.0  0.76999  0.67558  0.18724  1.0000
  H   H324      1.0  0.83158  0.78719  0.22394  1.0000
  H   H325      1.0  0.78329  0.76628  0.19591  1.0000
  H   H326      1.0  0.78766  0.73498  0.23518  1.0000
  H   H327      1.0  0.84935  0.74343  0.26199  1.0000
  H   H328      1.0  0.86580  0.70590  0.14046  1.0000
  H   H329      1.0  0.90017  0.58934  0.04596  1.0000
  C   C277      1.0  0.96717  0.55610  0.08119  1.0000
  H   H330      1.0  0.66167  0.85753  0.13345  1.0000
  H   H331      1.0  0.95358  0.57609  0.13939  1.0000
  C   C278      1.0  0.51452  0.93442  0.26879  1.0000
  N   N19       1.0  0.92920  0.55141  0.06001  1.0000
  H   H332      1.0  0.96786  0.64975  0.15561  1.0000
  S   S76       1.0  0.63564  0.53349  0.03269  1.0000
  H   H333      1.0  0.62680  0.90874  0.20572  1.0000
  H   H334      1.0  0.61207  0.73074  0.09284  1.0000
  C   C279      1.0  0.92700  0.59097  0.06366  1.0000
  S   S77       1.0  0.58529  0.92604  0.27190  1.0000
  H   H335      1.0  0.59053  0.85147  0.25233  1.0000
  C   C280      1.0  0.59318  0.82919  0.23088  1.0000
  S   S78       1.0  0.75239  0.72741  0.03492  1.0000
  C   C281      1.0  0.97530  0.56996  0.12233  1.0000
  H   H336      1.0  0.55659  0.85278  0.14537  1.0000
  H   H337      1.0  0.52770  0.81286  0.18298  1.0000
  H   H338      1.0  0.54942  0.70712  0.13680  1.0000
  H   H339      1.0  0.92253  0.59828  0.09547  1.0000
  C   C282      1.0  0.92828  0.54203  0.01580  1.0000
  H   H340      1.0  0.92621  0.51090  0.01029  1.0000
  C   C283      1.0  0.57867  0.99741  0.28861  1.0000
  H   H341      1.0  0.99340  0.53577  0.03121  1.0000
  C   C284      1.0  0.89102  0.51640  0.07899  1.0000
  C   C285      1.0  0.99793  0.50679  0.22758  1.0000
  H   H342      1.0  0.95671  0.56707  0.99992  1.0000
  H   H343      1.0  0.90065  0.54097  0.00017  1.0000
  C   C286      1.0  0.51265  0.99919  0.28214  1.0000
  H   H344      1.0  0.86171  0.51139  0.06351  1.0000
  Fe  Fe40      1.0  0.00270  0.65204  0.30607  1.0000
  H   H345      1.0  0.00381  0.56152  0.25890  1.0000
  C   C287      1.0  0.64820  0.98762  0.44756  1.0000
  S   S79       1.0  0.91834  0.66816  0.41824  1.0000
  S   S80       1.0  0.69549  0.97618  0.64914  1.0000
  C   C288      1.0  0.63108  0.82434  0.55369  1.0000
  S   S81       1.0  0.96457  0.60300  0.35358  1.0000
  Fe  Fe41      1.0  0.97094  0.65803  0.39140  1.0000
  Fe  Fe42      1.0  0.77145  0.65155  0.61472  1.0000
  S   S82       1.0  0.72909  0.67349  0.58713  1.0000
  S   S83       1.0  0.81008  0.62572  0.58290  1.0000
  Fe  Fe43      1.0  0.68103  0.63193  0.63389  1.0000
  S   S84       1.0  0.61149  0.59413  0.61744  1.0000
  Fe  Fe44      1.0  0.75298  0.72291  0.63673  1.0000
  S   S85       1.0  0.77728  0.79255  0.62333  1.0000
  H   H346      1.0  0.69004  0.89283  0.62805  1.0000
  H   H347      1.0  0.72754  0.78845  0.55136  1.0000
  H   H348      1.0  0.86495  0.69809  0.45060  1.0000
  Fe  Fe45      1.0  0.70963  0.94299  0.35345  1.0000
  S   S86       1.0  0.70187  0.91900  0.41851  1.0000
  C   C289      1.0  0.72413  0.95545  0.45896  1.0000
  C   C290      1.0  0.70956  0.94223  0.49882  1.0000
  C   C291      1.0  0.72767  0.96999  0.53192  1.0000
  H   H349      1.0  0.68406  0.91041  0.50404  1.0000
  H   H350      1.0  0.71618  0.95946  0.56244  1.0000
  H   H351      1.0  0.61970  0.97309  0.61691  1.0000
  H   H352      1.0  0.67130  0.56919  0.56891  1.0000
  C   C292      1.0  0.59671  0.51200  0.62537  1.0000
  C   C293      1.0  0.75688  0.99676  0.45237  1.0000
  C   C294      1.0  0.73964  0.85845  0.47674  1.0000
  C   C295      1.0  0.57979  0.53833  0.61746  1.0000
  H   H353      1.0  0.54131  0.93255  0.44759  1.0000
  C   C296      1.0  0.64080  0.84929  0.58853  1.0000
  C   C297      1.0  0.89027  0.65734  0.46527  1.0000
  C   C298      1.0  0.89069  0.62950  0.49441  1.0000
  C   C299      1.0  0.86630  0.62061  0.53028  1.0000
  C   C300      1.0  0.84173  0.63991  0.53794  1.0000
  C   C301      1.0  0.84172  0.66818  0.50906  1.0000
  C   C302      1.0  0.86552  0.67649  0.47288  1.0000
  H   H354      1.0  0.90931  0.61433  0.48904  1.0000
  H   H355      1.0  0.86654  0.59863  0.55231  1.0000
  H   H356      1.0  0.82324  0.68348  0.51442  1.0000
  H   H357      1.0  0.52321  0.54014  0.60245  1.0000
  H   H358      1.0  0.65403  0.80340  0.50455  1.0000
  C   C303      1.0  0.72769  0.53904  0.50948  1.0000
  C   C304      1.0  0.60724  0.96318  0.43298  1.0000
  C   C305      1.0  0.73054  0.80045  0.51955  1.0000
  C   C306      1.0  0.57313  0.95230  0.45889  1.0000
  H   H359      1.0  0.69724  0.61338  0.50677  1.0000
  H   H360      1.0  0.75667  0.55599  0.52858  1.0000
  H   H361      1.0  0.72099  0.57242  0.57796  1.0000
  H   H362      1.0  0.73910  0.54324  0.47754  1.0000
  H   H363      1.0  0.67534  0.52160  0.57310  1.0000
  H   H364      1.0  0.70893  0.83928  0.46102  1.0000
  H   H365      1.0  0.97504  0.50795  0.38101  1.0000
  H   H366      1.0  0.79164  0.90571  0.53623  1.0000
  H   H367      1.0  0.58033  0.94171  0.58040  1.0000
  C   C307      1.0  0.65893  0.53032  0.49266  1.0000
  H   H368      1.0  0.60206  0.95209  0.40166  1.0000
  C   C308      1.0  0.71499  0.87335  0.57827  1.0000
  N   N20       1.0  0.73934  0.84487  0.51942  1.0000
  C   C309      1.0  0.78251  0.87163  0.53603  1.0000
  C   C310      1.0  0.70617  0.84770  0.54295  1.0000
  H   H369      1.0  0.74774  0.62033  0.52146  1.0000
  H   H370      1.0  0.70093  0.77875  0.50322  1.0000
  C   C311      1.0  0.66317  0.82346  0.53118  1.0000
  C   C312      1.0  0.57993  0.96573  0.49953  1.0000
  H   H371      1.0  0.59847  0.80524  0.54428  1.0000
  H   H372      1.0  0.74679  0.89190  0.47554  1.0000
  H   H373      1.0  0.80670  0.86898  0.51758  1.0000
  C   C313      1.0  0.69084  0.55445  0.56097  1.0000
  S   S87       1.0  0.72119  0.60628  0.65820  1.0000
  S   S88       1.0  0.69343  0.99338  0.33804  1.0000
  C   C314      1.0  0.68262  0.87379  0.60067  1.0000
  H   H374      1.0  0.74659  0.89310  0.58957  1.0000
  H   H375      1.0  0.76386  0.85625  0.45796  1.0000
  H   H376      1.0  0.72917  0.60434  0.47083  1.0000
  C   C315      1.0  0.53652  0.51998  0.60871  1.0000
  H   H377      1.0  0.75626  0.79727  0.50469  1.0000
  H   H378      1.0  0.78517  0.86173  0.56744  1.0000
  N   N21       1.0  0.69816  0.55543  0.51639  1.0000
  H   H379      1.0  0.69052  0.54187  0.43374  1.0000
  C   C316      1.0  0.71887  0.60024  0.50316  1.0000
  H   H380      1.0  0.71257  0.50482  0.51713  1.0000
  S   S89       1.0  0.79893  0.70392  0.66107  1.0000
  C   C317      1.0  0.61444  0.96505  0.58396  1.0000
  C   C318      1.0  0.75823  0.82169  0.65033  1.0000
  H   H381      1.0  0.81455  0.88135  0.63929  1.0000
  H   H382      1.0  0.63251  0.94885  0.57569  1.0000
  H   H383      1.0  0.61590  0.84941  0.60642  1.0000
  C   C319      1.0  0.62133  0.99100  0.51529  1.0000
  C   C320      1.0  0.78344  0.86588  0.65286  1.0000
  H   H384      1.0  0.55253  0.95533  0.51881  1.0000
  H   H385      1.0  0.62976  0.52568  0.63278  1.0000
  C   C321      1.0  0.66074  0.52643  0.44976  1.0000
  H   H386      1.0  0.61329  0.51122  0.54305  1.0000
  C   C322      1.0  0.65540  0.00147  0.48802  1.0000
  C   C323      1.0  0.61818  0.50959  0.51086  1.0000
  H   H387      1.0  0.67465  0.99503  0.42757  1.0000
  H   H388      1.0  0.56768  0.99963  0.57178  1.0000
  S   S90       1.0  0.00546  0.70590  0.34176  1.0000
  N   N22       1.0  0.62772  0.00338  0.55881  1.0000
  H   H389      1.0  0.78885  0.92416  0.67543  1.0000
  S   S91       1.0  0.94685  0.63645  0.95760  1.0000
  Fe  Fe46      1.0  0.74571  0.66059  0.70225  1.0000
  H   H390      1.0  0.67268  0.81091  0.70239  1.0000
  S   S92       1.0  0.75970  0.65014  0.76722  1.0000
  C   C324      1.0  0.65753  0.55066  0.91492  1.0000
  S   S93       1.0  0.69924  0.70810  0.92373  1.0000
  C   C325      1.0  0.54118  0.51794  0.90677  1.0000
  H   H391      1.0  0.90274  0.73015  0.76422  1.0000
  Fe  Fe47      1.0  0.73033  0.96724  0.70144  1.0000
  S   S94       1.0  0.71098  0.89973  0.71973  1.0000
  H   H392      1.0  0.60046  0.58190  0.85785  1.0000
  H   H393      1.0  0.84470  0.68237  0.80968  1.0000
  Fe  Fe48      1.0  0.70830  0.68566  0.98565  1.0000
  H   H394      1.0  0.68545  0.81610  0.81555  1.0000
  C   C326      1.0  0.91004  0.72162  0.79358  1.0000
  C   C327      1.0  0.72907  0.87050  0.69148  1.0000
  H   H395      1.0  0.62368  0.56253  0.71787  1.0000
  C   C328      1.0  0.74070  0.66476  0.81010  1.0000
  C   C329      1.0  0.75498  0.66133  0.84883  1.0000
  C   C330      1.0  0.74244  0.67454  0.88373  1.0000
  C   C331      1.0  0.71480  0.69053  0.88035  1.0000
  C   C332      1.0  0.69966  0.69307  0.84173  1.0000
  C   C333      1.0  0.71273  0.68045  0.80660  1.0000
  H   H396      1.0  0.77660  0.64924  0.85182  1.0000
  H   H397      1.0  0.75515  0.67334  0.91305  1.0000
  H   H398      1.0  0.67786  0.70490  0.83898  1.0000
  H   H399      1.0  0.70161  0.68328  0.77688  1.0000
  H   H400      1.0  0.70511  0.80803  0.76894  1.0000
  H   H401      1.0  0.72612  0.83568  0.87692  1.0000
  H   H402      1.0  0.65767  0.54046  0.94693  1.0000
  H   H403      1.0  0.65822  0.52717  0.89375  1.0000
  H   H404      1.0  0.76900  0.87599  0.77565  1.0000
  C   C334      1.0  0.96239  0.72586  0.84339  1.0000
  H   H405      1.0  0.59973  0.59917  0.92955  1.0000
  N   N23       1.0  0.74844  0.82494  0.81952  1.0000
  C   C335      1.0  0.74445  0.82119  0.86460  1.0000
  H   H406      1.0  0.55910  0.56819  0.71884  1.0000
  C   C336      1.0  0.77273  0.80604  0.80195  1.0000
  C   C337      1.0  0.78974  0.78551  0.82597  1.0000
  C   C338      1.0  0.77940  0.80727  0.75926  1.0000
  C   C339      1.0  0.81120  0.76678  0.80794  1.0000
  C   C340      1.0  0.80041  0.78799  0.74153  1.0000
  C   C341      1.0  0.81598  0.76748  0.76580  1.0000
  H   H407      1.0  0.77587  0.83742  0.87971  1.0000
  H   H408      1.0  0.72743  0.78742  0.87449  1.0000
  H   H409      1.0  0.80257  0.88754  0.81938  1.0000
  C   C342      1.0  0.62429  0.57228  0.86483  1.0000
  C   C343      1.0  0.56518  0.96569  0.67897  1.0000
  H   H410      1.0  0.76788  0.82271  0.73915  1.0000
  H   H411      1.0  0.50664  0.90742  0.66995  1.0000
  H   H412      1.0  0.80416  0.78853  0.70868  1.0000
  H   H413      1.0  0.83116  0.75146  0.75189  1.0000
  N   N24       1.0  0.62057  0.55642  0.90713  1.0000
  H   H414      1.0  0.86048  0.61586  0.94965  1.0000
  C   C344      1.0  0.55673  0.53752  0.72303  1.0000
  C   C345      1.0  0.87404  0.63790  0.97468  1.0000
  H   H415      1.0  0.86066  0.66180  0.87651  1.0000
  H   H416      1.0  0.62045  0.54779  0.84228  1.0000
  S   S95       1.0  0.70179  0.68331  0.68135  1.0000
  H   H417      1.0  0.65473  0.61847  0.93411  1.0000
  C   C346      1.0  0.76914  0.87057  0.80902  1.0000
  H   H418      1.0  0.82281  0.75018  0.82665  1.0000
  H   H419      1.0  0.68898  0.76890  0.80808  1.0000
  C   C347      1.0  0.95208  0.73715  0.80529  1.0000
  C   C348      1.0  0.84873  0.65014  0.99671  1.0000
  C   C349      1.0  0.70516  0.80354  0.80235  1.0000
  H   H420      1.0  0.58378  0.95020  0.68226  1.0000
  H   H421      1.0  0.75263  0.88623  0.82305  1.0000
  H   H422      1.0  0.93336  0.68741  0.89755  1.0000
  H   H423      1.0  0.78594  0.78232  0.85864  1.0000
  C   C350      1.0  0.70375  0.82635  0.68876  1.0000
  C   C351      1.0  0.87721  0.69464  0.81917  1.0000
  H   H424      1.0  0.68789  0.58071  0.91070  1.0000
  H   H425      1.0  0.65567  0.60074  0.85929  1.0000
  C   C352      1.0  0.88623  0.68301  0.85666  1.0000
  C   C353      1.0  0.52137  0.94149  0.67217  1.0000
  H   H426      1.0  0.81595  0.63760  0.98861  1.0000
  C   C354      1.0  0.92809  0.69811  0.86857  1.0000
  C   C355      1.0  0.59322  0.53441  0.72248  1.0000
  C   C356      1.0  0.62344  0.58924  0.93576  1.0000
  H   H427      1.0  0.61880  0.57762  0.96774  1.0000
  S   S96       1.0  0.72753  0.63608  0.99068  1.0000
  C   C357      1.0  0.91661  0.65382  0.98502  1.0000
  H   H428      1.0  0.97585  0.75760  0.78380  1.0000
  H   H429      1.0  0.99317  0.68070  0.88241  1.0000
  C   C358      1.0  0.76892  0.89022  0.67325  1.0000
  H   H430      1.0  0.54141  0.54682  0.89876  1.0000
  C   C359      1.0  0.57943  0.51725  0.91245  1.0000
  H   H431      1.0  0.99530  0.73785  0.92167  1.0000
  C   C360      1.0  0.71825  0.80198  0.66832  1.0000
  H   H432      1.0  0.69836  0.76803  0.66621  1.0000
