data_image0
_chemical_formula_structural       HS2CS3HSHSFeS2FeSC2FeSCSHSFeS2FeSHC8H4CH2C3H3C5SH3C4H3CH3C2H2C4H2FeHCH2CNC2H3NHFeSCSCHC2FeHFeH3CHNCH2C2HNHCH2SH2CNC9H14CH3CH2C3HC4HCHCH4CHCSHNHC4HSFeSFeS2FeSHS2FeS2HFeNFeS6C6H4CHC4H4C3HCHC3H3S2HFeHC2SFeS2FeSFe2C5H5C3HC3HC5HNC9H11CHCHC3H7CH2SH4NSHCHC4H3NHCHC4FeCH4CHCH4C3H3CH2NH4SHC2H2FeHCH3CNCH2CHFeC3FeCFeNSFeSHS2HFeS2FeS2FeCFeS4FeS2FeSCFeSFeS4NCHCHC6H4C6H4C4H5C3H4C2HCH3C4SH5NC9H6CHC2HCH2C2H7CH4SHC7H2CH4SHCH2CHCHC3H3FeHC2H3C2HSHNHCHCHCH3C2HNCHCFeS2FeS2FeSFeCS2FeCSHS3HCH2C7H6C3H2CHC2HNC4H2C2H2CH3C2HSC2H10C2HCH2C2H2CHSCHC2HCH3NHC3FeHCH3CSC2HCH2C3HCH7NC4FeH4CHCHSH3CH2C3H5CSFeCSC2S2HCH2CNHCSC3H2C2NC4HCHCSH3CH2CHC2H2C3HCH3C2HCH3CH10C2H4CHCH3FeH2CHCSHSHNHC2H2C4H2SHC2SHFeSHFeS2FeHS2NHCHCHCFeCHFeCH6CSC2HCHC3H3C2H7CHCH6SCFeC2H3CHCSCHNCSC3H2CH3C2H2NCNCH3C2HC2HCHC3HC3H4C3H3C2HC3H2C4HSH2SFeSFeSCSFeS2FeS2FeSFeS3C4H3C2HC3H2CH3C6H4C3HC3HCH5C2H2C4HCH2CH2C3HCH3NCH2N2CH2C5H4CH3SH8CH3FeH3C2SH3CFeCHCHC3SHCSHC4HC4HSH2FeS2FeS2FeSFeSH2C3H3CH3C3HCH2C2HC3HC3HFeH3NH2C2HC2SHC2SH8C3H2CH2CNH3C4HCH3C2FeC2HC4H2CSCH3SCHFeSFeS3HCSCSHC6H2C2SCHC3H4C2H2NC9H17CH2CH2CH3CH3CFeH3NHCSC2FeCHFeCHFeH2C4H3NSC2HCH2CH3FeS2FeS2Fe2SNSHFeS2FeSFeS3C5H2CHFeC2H3C6H4C3H2CH3CH2CH4SHCH2CNC2HC2H3CHCH3C2H4C2HC2H2CH2CHCHC2SHC2H2N2H2CHC2HCH4C4HCH4CH11C2HSH4CH2CHFeSFeCSH3S2HFeHS5C6H6CH2SC4H2CHFe2S2FeSFeS3C2HC3HC4H2C3H3CH2C2HN2CH2CH2C2H6NCHCHCHCHCHCHC2H5CHNC9H4CHCH2CHSHC2HCH4CH2C3H2C2H3CH5C2HCFeH2CHCH2CH3C2HNH3C2H2FeHCHFeCHSCFeSFeHSH3SHCFeHS3FeS2FeS2FeSFeS3HSCHC3H3C2H2C6H4C6H8C3HC2HC2NC8H9NC3H5CH3CH5C2H2CH2NC5H3SC2HCH5CH3CH3CH2CH3CHCH2FeNHCH6SCS2C2H4C3
_chemical_formula_sum              "H864 S192 C720 Fe96 N48"
_cell_length_a       46.0167
_cell_length_b       45.8673
_cell_length_c       50.642
_cell_angle_alpha    90.004
_cell_angle_beta     89.9903
_cell_angle_gamma    119.897

_space_group_name_H-M_alt    "P 1"
_space_group_IT_number       1

loop_
  _space_group_symop_operation_xyz
  'x, y, z'

loop_
  _atom_site_type_symbol
  _atom_site_label
  _atom_site_symmetry_multiplicity
  _atom_site_fract_x
  _atom_site_fract_y
  _atom_site_fract_z
  _atom_site_occupancy
  H   H1        1.0  0.02680  0.48725  0.17191  1.0000
  S   S1        1.0  0.02989  0.40370  0.11930  1.0000
  S   S2        1.0  0.01119  0.42100  0.18597  1.0000
  C   C1        1.0  0.42632  0.28417  0.30956  1.0000
  S   S3        1.0  0.36540  0.03842  0.28645  1.0000
  S   S4        1.0  0.41135  0.03678  0.10371  1.0000
  S   S5        1.0  0.02119  0.37738  0.24604  1.0000
  H   H2        1.0  0.47248  0.46757  0.19551  1.0000
  S   S6        1.0  0.37336  0.06049  0.16188  1.0000
  H   H3        1.0  0.45078  0.09754  0.25990  1.0000
  S   S7        1.0  0.39581  0.05217  0.03443  1.0000
  Fe  Fe1       1.0  0.40195  0.34902  0.27316  1.0000
  S   S8        1.0  0.35511  0.35349  0.27188  1.0000
  S   S9        1.0  0.39271  0.29525  0.26815  1.0000
  Fe  Fe2       1.0  0.44692  0.42575  0.27243  1.0000
  S   S10       1.0  0.40333  0.43405  0.27054  1.0000
  C   C2        1.0  0.40776  0.07849  0.98399  1.0000
  C   C3        1.0  0.47366  0.04285  0.23568  1.0000
  Fe  Fe3       1.0  0.38200  0.39293  0.24063  1.0000
  S   S11       1.0  0.35532  0.40139  0.20612  1.0000
  C   C4        1.0  0.45545  0.11709  0.12661  1.0000
  S   S12       1.0  0.42736  0.38676  0.24012  1.0000
  H   H4        1.0  0.42002  0.47642  0.16469  1.0000
  S   S13       1.0  0.40727  0.45148  0.01584  1.0000
  Fe  Fe4       1.0  0.32559  0.45532  0.01360  1.0000
  S   S14       1.0  0.32635  0.40651  0.01907  1.0000
  S   S15       1.0  0.27807  0.46018  0.01665  1.0000
  Fe  Fe5       1.0  0.36874  0.43555  0.04792  1.0000
  S   S16       1.0  0.38720  0.41721  0.08282  1.0000
  H   H5        1.0  0.46363  0.11462  0.03876  1.0000
  C   C5        1.0  0.44405  0.04148  0.27706  1.0000
  C   C6        1.0  0.04884  0.48327  0.28845  1.0000
  C   C7        1.0  0.36647  0.40832  0.17224  1.0000
  C   C8        1.0  0.34801  0.41721  0.15520  1.0000
  C   C9        1.0  0.35477  0.42127  0.12788  1.0000
  C   C10       1.0  0.37988  0.41609  0.11729  1.0000
  C   C11       1.0  0.39895  0.40805  0.13446  1.0000
  C   C12       1.0  0.39244  0.40436  0.16182  1.0000
  H   H6        1.0  0.32790  0.42040  0.16309  1.0000
  H   H7        1.0  0.33988  0.42740  0.11491  1.0000
  H   H8        1.0  0.41829  0.40380  0.12639  1.0000
  H   H9        1.0  0.40689  0.39762  0.17465  1.0000
  C   C13       1.0  0.07096  0.33915  0.98496  1.0000
  H   H10       1.0  0.47177  0.04370  0.08998  1.0000
  H   H11       1.0  0.02906  0.44785  0.24432  1.0000
  C   C14       1.0  0.40476  0.27073  0.28790  1.0000
  C   C15       1.0  0.39258  0.23673  0.28128  1.0000
  C   C16       1.0  0.12607  0.35867  0.00248  1.0000
  H   H12       1.0  0.11025  0.38587  0.09485  1.0000
  H   H13       1.0  0.37590  0.22598  0.26459  1.0000
  H   H14       1.0  0.44869  0.03477  0.01277  1.0000
  C   C17       1.0  0.37009  0.04581  0.25196  1.0000
  C   C18       1.0  0.37830  0.07704  0.24114  1.0000
  C   C19       1.0  0.37962  0.08126  0.21351  1.0000
  C   C20       1.0  0.37343  0.05457  0.19647  1.0000
  C   C21       1.0  0.45820  0.08488  0.24477  1.0000
  S   S17       1.0  0.33196  0.00563  0.09737  1.0000
  H   H15       1.0  0.38261  0.09765  0.25403  1.0000
  H   H16       1.0  0.38501  0.10523  0.20530  1.0000
  H   H17       1.0  0.42589  0.10167  0.99340  1.0000
  C   C22       1.0  0.48829  0.01573  0.11352  1.0000
  C   C23       1.0  0.45575  0.47399  0.20678  1.0000
  C   C24       1.0  0.38888  0.04954  0.99954  1.0000
  C   C25       1.0  0.47053  0.03234  0.01702  1.0000
  H   H18       1.0  0.08318  0.40065  0.99696  1.0000
  H   H19       1.0  0.41857  0.02656  0.26839  1.0000
  H   H20       1.0  0.45222  0.48168  0.08729  1.0000
  C   C26       1.0  0.22037  0.46097  0.00282  1.0000
  H   H21       1.0  0.02983  0.32257  0.02335  1.0000
  H   H22       1.0  0.46460  0.47841  0.22761  1.0000
  H   H23       1.0  0.22109  0.46933  0.02291  1.0000
  C   C27       1.0  0.04696  0.39389  0.29639  1.0000
  C   C28       1.0  0.01973  0.38714  0.27982  1.0000
  H   H24       1.0  0.42343  0.12705  0.05623  1.0000
  H   H25       1.0  0.06811  0.39266  0.28836  1.0000
  C   C29       1.0  0.01613  0.38912  0.02961  1.0000
  C   C30       1.0  0.04623  0.41431  0.04035  1.0000
  C   C31       1.0  0.04985  0.41851  0.06786  1.0000
  C   C32       1.0  0.02314  0.39838  0.08486  1.0000
  H   H26       1.0  0.07364  0.43722  0.07603  1.0000
  H   H27       1.0  0.06697  0.43008  0.02758  1.0000
  Fe  Fe6       1.0  0.37477  0.01592  0.06996  1.0000
  H   H28       1.0  0.42929  0.10997  0.12529  1.0000
  C   C33       1.0  0.03862  0.47536  0.24192  1.0000
  H   H29       1.0  0.04116  0.48840  0.30792  1.0000
  H   H30       1.0  0.17661  0.46454  0.99237  1.0000
  C   C34       1.0  0.47884  0.00711  0.19176  1.0000
  N   N1        1.0  0.46701  0.13435  0.07813  1.0000
  C   C35       1.0  0.45274  0.00739  0.23324  1.0000
  C   C36       1.0  0.10508  0.37500  0.05307  1.0000
  H   H31       1.0  0.04903  0.34317  0.98323  1.0000
  H   H32       1.0  0.48383  0.18667  0.08478  1.0000
  H   H33       1.0  0.47825  0.17448  0.05053  1.0000
  N   N2        1.0  0.46930  0.06261  0.25689  1.0000
  H   H34       1.0  0.13131  0.39262  0.04971  1.0000
  Fe  Fe7       1.0  0.36836  0.02194  0.13124  1.0000
  S   S18       1.0  0.01176  0.38060  0.99533  1.0000
  C   C37       1.0  0.47309  0.11363  0.05880  1.0000
  S   S19       1.0  0.36597  0.48303  0.04463  1.0000
  C   C38       1.0  0.36651  0.02373  0.20731  1.0000
  H   H35       1.0  0.45084  0.02404  0.28697  1.0000
  C   C39       1.0  0.36546  0.01986  0.98695  1.0000
  C   C40       1.0  0.04875  0.33588  0.03819  1.0000
  Fe  Fe8       1.0  0.38132  0.39456  0.30189  1.0000
  H   H36       1.0  0.40329  0.48268  0.20795  1.0000
  Fe  Fe9       1.0  0.36543  0.42699  0.98679  1.0000
  H   H37       1.0  0.43043  0.45110  0.20651  1.0000
  H   H38       1.0  0.12080  0.33391  0.01049  1.0000
  H   H39       1.0  0.35074  0.99736  0.99852  1.0000
  C   C41       1.0  0.36431  0.01923  0.23491  1.0000
  H   H40       1.0  0.01083  0.31688  0.06856  1.0000
  N   N3        1.0  0.09596  0.36260  0.00435  1.0000
  C   C42       1.0  0.24546  0.45404  0.99422  1.0000
  H   H41       1.0  0.39215  0.19036  0.29066  1.0000
  H   H42       1.0  0.12477  0.41645  0.00943  1.0000
  C   C43       1.0  0.09331  0.37143  0.07900  1.0000
  C   C44       1.0  0.99582  0.47265  0.27034  1.0000
  H   H43       1.0  0.05024  0.34834  0.10457  1.0000
  N   N4        1.0  0.03256  0.49024  0.26590  1.0000
  H   H44       1.0  0.05054  0.47157  0.09850  1.0000
  C   C45       1.0  0.43090  0.12418  0.07659  1.0000
  H   H45       1.0  0.44161  0.05697  0.29295  1.0000
  H   H46       1.0  0.43608  0.07028  0.23177  1.0000
  S   S20       1.0  0.42632  0.38787  0.30550  1.0000
  H   H47       1.0  0.41451  0.09714  0.08157  1.0000
  H   H48       1.0  0.42461  0.13950  0.08996  1.0000
  C   C46       1.0  0.40178  0.21640  0.29604  1.0000
  N   N5        1.0  0.35626  0.30017  0.18868  1.0000
  C   C47       1.0  0.34099  0.30811  0.21142  1.0000
  C   C48       1.0  0.34387  0.26351  0.18927  1.0000
  C   C49       1.0  0.39310  0.31837  0.19284  1.0000
  C   C50       1.0  0.34836  0.30967  0.16280  1.0000
  C   C51       1.0  0.36271  0.30551  0.13926  1.0000
  C   C52       1.0  0.32687  0.32352  0.16008  1.0000
  C   C53       1.0  0.35684  0.31562  0.11472  1.0000
  C   C54       1.0  0.32088  0.33314  0.13538  1.0000
  C   C55       1.0  0.33610  0.32958  0.11282  1.0000
  H   H49       1.0  0.31313  0.29413  0.21039  1.0000
  H   H50       1.0  0.34770  0.30107  0.23060  1.0000
  H   H51       1.0  0.34984  0.33553  0.21247  1.0000
  H   H52       1.0  0.35603  0.25575  0.17402  1.0000
  H   H53       1.0  0.31632  0.24891  0.18581  1.0000
  H   H54       1.0  0.34901  0.25555  0.20874  1.0000
  H   H55       1.0  0.40368  0.34596  0.19069  1.0000
  H   H56       1.0  0.39988  0.31368  0.21291  1.0000
  H   H57       1.0  0.40643  0.31062  0.17871  1.0000
  H   H58       1.0  0.37904  0.29490  0.13971  1.0000
  H   H59       1.0  0.31517  0.32826  0.17675  1.0000
  H   H60       1.0  0.36883  0.31323  0.09707  1.0000
  H   H61       1.0  0.30532  0.34469  0.13384  1.0000
  H   H62       1.0  0.33245  0.33843  0.09390  1.0000
  C   C56       1.0  0.10540  0.39718  0.99628  1.0000
  H   H63       1.0  0.44840  0.10110  0.16721  1.0000
  H   H64       1.0  0.29871  0.03568  0.24501  1.0000
  H   H65       1.0  0.14802  0.37871  0.01323  1.0000
  C   C57       1.0  0.47776  0.13010  0.10475  1.0000
  H   H66       1.0  0.47804  0.10507  0.23252  1.0000
  H   H67       1.0  0.45994  0.08670  0.06486  1.0000
  C   C58       1.0  0.08319  0.35712  0.03183  1.0000
  C   C59       1.0  0.05951  0.35016  0.08457  1.0000
  C   C60       1.0  0.19496  0.45814  0.98553  1.0000
  H   H68       1.0  0.06582  0.48707  0.23738  1.0000
  C   C61       1.0  0.48660  0.17016  0.07007  1.0000
  C   C62       1.0  0.01549  0.48465  0.06415  1.0000
  C   C63       1.0  0.03733  0.33240  0.06423  1.0000
  C   C64       1.0  0.46619  0.11182  0.15106  1.0000
  H   H69       1.0  0.06181  0.31246  0.99041  1.0000
  C   C65       1.0  0.28721  0.00895  0.24104  1.0000
  H   H70       1.0  0.36206  0.00313  0.19445  1.0000
  C   C66       1.0  0.00023  0.45420  0.02190  1.0000
  H   H71       1.0  0.46278  0.49179  0.15611  1.0000
  H   H72       1.0  0.04223  0.45643  0.28911  1.0000
  H   H73       1.0  0.29373  0.01654  0.19987  1.0000
  H   H74       1.0  0.04348  0.48997  0.12698  1.0000
  C   C67       1.0  0.04480  0.49130  0.10510  1.0000
  H   H75       1.0  0.02529  0.47776  0.22444  1.0000
  C   C68       1.0  0.46945  0.01167  0.03759  1.0000
  S   S21       1.0  0.44232  0.12464  0.30933  1.0000
  H   H76       1.0  0.02562  0.48278  0.98735  1.0000
  N   N6        1.0  0.01305  0.48592  0.09326  1.0000
  H   H77       1.0  0.13475  0.36053  0.98166  1.0000
  C   C69       1.0  0.49275  0.04397  0.09955  1.0000
  C   C70       1.0  0.99655  0.45463  0.04930  1.0000
  C   C71       1.0  0.02278  0.48332  0.00855  1.0000
  C   C72       1.0  0.28422  0.99746  0.21505  1.0000
  H   H78       1.0  0.44680  0.99818  0.04936  1.0000
  S   S22       1.0  0.36258  0.47394  0.97975  1.0000
  Fe  Fe10      1.0  0.04582  0.41303  0.46392  1.0000
  S   S23       1.0  0.09538  0.45839  0.47345  1.0000
  Fe  Fe11      1.0  0.05243  0.42775  0.40371  1.0000
  S   S24       1.0  0.10268  0.47442  0.40939  1.0000
  S   S25       1.0  0.01837  0.41436  0.36747  1.0000
  Fe  Fe12      1.0  0.11426  0.44333  0.43787  1.0000
  S   S26       1.0  0.16468  0.44424  0.43477  1.0000
  H   H79       1.0  0.15600  0.39649  0.58941  1.0000
  S   S27       1.0  0.06497  0.39565  0.42990  1.0000
  S   S28       1.0  0.02898  0.44055  0.43745  1.0000
  Fe  Fe13      1.0  0.39783  0.09265  0.37818  1.0000
  S   S29       1.0  0.44783  0.13934  0.37265  1.0000
  S   S30       1.0  0.37281  0.08420  0.41903  1.0000
  H   H80       1.0  0.42845  0.20336  0.42854  1.0000
  Fe  Fe14      1.0  0.46000  0.10857  0.34495  1.0000
  N   N7        1.0  0.46563  0.00345  0.53907  1.0000
  Fe  Fe15      1.0  0.42506  0.15101  0.33758  1.0000
  S   S31       1.0  0.43620  0.20575  0.33716  1.0000
  S   S32       1.0  0.41158  0.06107  0.35259  1.0000
  S   S33       1.0  0.37423  0.10547  0.34410  1.0000
  S   S34       1.0  0.36032  0.41211  0.33467  1.0000
  S   S35       1.0  0.35181  0.37509  0.45526  1.0000
  S   S36       1.0  0.35280  0.45921  0.47757  1.0000
  C   C73       1.0  0.36457  0.40389  0.36792  1.0000
  C   C74       1.0  0.36732  0.42715  0.38710  1.0000
  C   C75       1.0  0.36506  0.41914  0.41404  1.0000
  C   C76       1.0  0.35973  0.38768  0.42196  1.0000
  C   C77       1.0  0.35854  0.36498  0.40280  1.0000
  C   C78       1.0  0.36118  0.37314  0.37579  1.0000
  H   H81       1.0  0.37034  0.45115  0.38111  1.0000
  H   H82       1.0  0.36666  0.43703  0.42862  1.0000
  H   H83       1.0  0.35443  0.34058  0.40883  1.0000
  H   H84       1.0  0.35879  0.35496  0.36108  1.0000
  C   C79       1.0  0.44409  0.45349  0.42630  1.0000
  H   H85       1.0  0.40357  0.29910  0.64103  1.0000
  C   C80       1.0  0.38909  0.02687  0.47310  1.0000
  C   C81       1.0  0.37393  0.06309  0.44845  1.0000
  C   C82       1.0  0.38970  0.04373  0.44953  1.0000
  C   C83       1.0  0.29273  0.42734  0.39395  1.0000
  H   H86       1.0  0.40193  0.04134  0.43209  1.0000
  H   H87       1.0  0.04142  0.46753  0.55184  1.0000
  H   H88       1.0  0.39291  0.31114  0.59617  1.0000
  H   H89       1.0  0.46242  0.03940  0.33927  1.0000
  C   C84       1.0  0.19477  0.44661  0.45825  1.0000
  C   C85       1.0  0.24746  0.44683  0.46695  1.0000
  C   C86       1.0  0.22354  0.44632  0.44914  1.0000
  H   H90       1.0  0.26920  0.44615  0.45962  1.0000
  C   C87       1.0  0.43574  0.26392  0.32417  1.0000
  H   H91       1.0  0.33336  0.15357  0.38979  1.0000
  C   C88       1.0  0.01981  0.40374  0.33389  1.0000
  C   C89       1.0  0.37938  0.31387  0.61263  1.0000
  C   C90       1.0  0.24218  0.39086  0.37062  1.0000
  H   H92       1.0  0.37168  0.16725  0.37173  1.0000
  H   H93       1.0  0.03165  0.45535  0.50829  1.0000
  H   H94       1.0  0.45328  0.43490  0.39078  1.0000
  S   S37       1.0  0.02890  0.38928  0.61740  1.0000
  S   S38       1.0  0.39553  0.02789  0.60101  1.0000
  H   H95       1.0  0.06711  0.41493  0.52582  1.0000
  Fe  Fe16      1.0  0.35132  0.01187  0.62823  1.0000
  H   H96       1.0  0.18866  0.39457  0.55127  1.0000
  C   C91       1.0  0.04711  0.40227  0.32324  1.0000
  C   C92       1.0  0.41299  0.18602  0.41247  1.0000
  S   S39       1.0  0.40140  0.43847  0.51120  1.0000
  Fe  Fe17      1.0  0.32054  0.44541  0.51399  1.0000
  S   S40       1.0  0.32077  0.39681  0.52124  1.0000
  S   S41       1.0  0.27097  0.44627  0.51788  1.0000
  Fe  Fe18      1.0  0.36702  0.42735  0.54605  1.0000
  S   S42       1.0  0.38636  0.41043  0.58127  1.0000
  Fe  Fe19      1.0  0.35540  0.41253  0.48616  1.0000
  Fe  Fe20      1.0  0.39701  0.48428  0.50535  1.0000
  C   C93       1.0  0.01967  0.46653  0.56084  1.0000
  C   C94       1.0  0.35419  0.41319  0.62702  1.0000
  C   C95       1.0  0.38094  0.41109  0.61596  1.0000
  C   C96       1.0  0.40326  0.40752  0.63288  1.0000
  C   C97       1.0  0.35796  0.06559  0.47142  1.0000
  H   H97       1.0  0.33674  0.41576  0.61427  1.0000
  H   H98       1.0  0.42395  0.40576  0.62448  1.0000
  H   H99       1.0  0.22079  0.36489  0.36776  1.0000
  H   H100      1.0  0.46331  0.05012  0.62149  1.0000
  H   H101      1.0  0.36263  0.13621  0.43888  1.0000
  C   C98       1.0  0.37304  0.02928  0.49605  1.0000
  C   C99       1.0  0.38994  0.23152  0.38839  1.0000
  C   C100      1.0  0.36262  0.16050  0.43826  1.0000
  H   H102      1.0  0.06821  0.40738  0.33570  1.0000
  C   C101      1.0  0.19063  0.44829  0.48549  1.0000
  C   C102      1.0  0.21458  0.44888  0.50326  1.0000
  C   C103      1.0  0.24291  0.44766  0.49421  1.0000
  H   H103      1.0  0.45511  0.47076  0.32028  1.0000
  C   C104      1.0  0.45493  0.45686  0.40010  1.0000
  C   C105      1.0  0.01322  0.38667  0.52808  1.0000
  C   C106      1.0  0.04552  0.40390  0.53872  1.0000
  C   C107      1.0  0.04994  0.40539  0.56625  1.0000
  C   C108      1.0  0.02217  0.39061  0.58327  1.0000
  H   H104      1.0  0.07499  0.41775  0.57443  1.0000
  N   N8        1.0  0.09564  0.34893  0.49508  1.0000
  C   C109      1.0  0.09652  0.31778  0.48894  1.0000
  C   C110      1.0  0.06012  0.34086  0.49391  1.0000
  C   C111      1.0  0.11398  0.37412  0.47412  1.0000
  C   C112      1.0  0.11169  0.36206  0.52107  1.0000
  C   C113      1.0  0.14632  0.37334  0.52474  1.0000
  C   C114      1.0  0.09363  0.36312  0.54353  1.0000
  C   C115      1.0  0.16201  0.38563  0.54910  1.0000
  C   C116      1.0  0.10959  0.37541  0.56783  1.0000
  C   C117      1.0  0.14371  0.38678  0.57058  1.0000
  H   H105      1.0  0.08362  0.29850  0.50462  1.0000
  H   H106      1.0  0.08391  0.30659  0.46981  1.0000
  H   H107      1.0  0.12259  0.32242  0.48742  1.0000
  H   H108      1.0  0.04386  0.32025  0.50773  1.0000
  H   H109      1.0  0.04905  0.33247  0.47386  1.0000
  H   H110      1.0  0.05786  0.36333  0.49860  1.0000
  H   H111      1.0  0.14024  0.37983  0.47173  1.0000
  H   H112      1.0  0.10214  0.36539  0.45437  1.0000
  H   H113      1.0  0.11471  0.39829  0.47842  1.0000
  H   H114      1.0  0.16174  0.37298  0.50879  1.0000
  H   H115      1.0  0.06716  0.35474  0.54293  1.0000
  C   C118      1.0  0.37821  0.27345  0.40635  1.0000
  H   H116      1.0  0.16898  0.44898  0.49298  1.0000
  C   C119      1.0  0.35763  0.04898  0.49507  1.0000
  H   H117      1.0  0.35685  0.21107  0.45067  1.0000
  C   C120      1.0  0.38548  0.30734  0.63842  1.0000
  C   C121      1.0  0.36649  0.25473  0.42951  1.0000
  C   C122      1.0  0.19998  0.36293  0.44766  1.0000
  H   H118      1.0  0.30651  0.43636  0.37489  1.0000
  H   H119      1.0  0.23221  0.40811  0.37469  1.0000
  H   H120      1.0  0.32194  0.33776  0.62523  1.0000
  H   H121      1.0  0.09538  0.37627  0.58467  1.0000
  H   H122      1.0  0.39953  0.22377  0.37202  1.0000
  H   H123      1.0  0.39907  0.27640  0.36777  1.0000
  H   H124      1.0  0.22723  0.44530  0.42814  1.0000
  C   C123      1.0  0.38992  0.26186  0.38583  1.0000
  H   H125      1.0  0.17429  0.35688  0.45064  1.0000
  H   H126      1.0  0.43460  0.44301  0.34729  1.0000
  S   S43       1.0  0.36485  0.47508  0.54145  1.0000
  H   H127      1.0  0.35261  0.33094  0.58806  1.0000
  H   H128      1.0  0.26683  0.37086  0.48194  1.0000
  H   H129      1.0  0.20810  0.35638  0.48865  1.0000
  H   H130      1.0  0.35664  0.13183  0.39295  1.0000
  N   N9        1.0  0.47761  0.49045  0.35822  1.0000
  S   S44       1.0  0.00663  0.37996  0.49381  1.0000
  H   H131      1.0  0.33598  0.15407  0.44007  1.0000
  C   C124      1.0  0.33917  0.32855  0.62897  1.0000
  H   H132      1.0  0.28331  0.44458  0.39974  1.0000
  C   C125      1.0  0.36626  0.22422  0.43222  1.0000
  C   C126      1.0  0.48030  0.01406  0.62239  1.0000
  C   C127      1.0  0.37790  0.21158  0.41155  1.0000
  C   C128      1.0  0.35645  0.32469  0.60795  1.0000
  H   H133      1.0  0.29115  0.37767  0.36412  1.0000
  H   H134      1.0  0.48955  0.45019  0.35812  1.0000
  H   H135      1.0  0.34554  0.08031  0.47091  1.0000
  N   N10       1.0  0.26488  0.39209  0.39200  1.0000
  H   H136      1.0  0.45666  0.02358  0.57453  1.0000
  C   C129      1.0  0.27857  0.37024  0.38378  1.0000
  H   H137      1.0  0.31154  0.43036  0.40902  1.0000
  C   C130      1.0  0.24835  0.38110  0.41808  1.0000
  C   C131      1.0  0.26670  0.38003  0.44027  1.0000
  C   C132      1.0  0.21434  0.37210  0.42251  1.0000
  C   C133      1.0  0.25208  0.37090  0.46527  1.0000
  Fe  Fe21      1.0  0.07937  0.48502  0.44444  1.0000
  C   C134      1.0  0.21887  0.36255  0.46902  1.0000
  H   H138      1.0  0.03635  0.46081  0.59938  1.0000
  H   H139      1.0  0.45273  0.27476  0.34068  1.0000
  H   H140      1.0  0.45488  0.04396  0.54439  1.0000
  H   H141      1.0  0.29775  0.37145  0.39768  1.0000
  C   C135      1.0  0.48749  0.04308  0.33818  1.0000
  H   H142      1.0  0.25847  0.34343  0.38259  1.0000
  C   C136      1.0  0.01715  0.46271  0.58831  1.0000
  H   H143      1.0  0.21112  0.45022  0.52426  1.0000
  H   H144      1.0  0.02127  0.49569  0.42745  1.0000
  H   H145      1.0  0.29277  0.38673  0.43864  1.0000
  H   H146      1.0  0.19845  0.37253  0.40702  1.0000
  C   C137      1.0  0.02793  0.47728  0.50511  1.0000
  C   C138      1.0  0.35908  0.15717  0.39104  1.0000
  C   C139      1.0  0.45405  0.99905  0.51127  1.0000
  H   H147      1.0  0.40094  0.01160  0.47345  1.0000
  H   H148      1.0  0.37829  0.29704  0.40432  1.0000
  H   H149      1.0  0.37683  0.17476  0.45601  1.0000
  C   C140      1.0  0.44929  0.01960  0.55348  1.0000
  H   H150      1.0  0.42939  0.47873  0.34260  1.0000
  H   H151      1.0  0.41404  0.16233  0.41447  1.0000
  N   N11       1.0  0.37800  0.17938  0.41351  1.0000
  H   H152      1.0  0.34513  0.05111  0.51243  1.0000
  H   H153      1.0  0.35753  0.26399  0.44546  1.0000
  H   H154      1.0  0.25550  0.39888  0.35128  1.0000
  H   H155      1.0  0.42551  0.19761  0.39344  1.0000
  S   S45       1.0  0.37285  0.00681  0.52504  1.0000
  H   H156      1.0  0.46315  0.02387  0.50148  1.0000
  C   C141      1.0  0.44798  0.46996  0.34137  1.0000
  C   C142      1.0  0.48479  0.04657  0.62202  1.0000
  H   H157      1.0  0.43496  0.42973  0.43660  1.0000
  H   H158      1.0  0.39444  0.48796  0.62248  1.0000
  Fe  Fe22      1.0  0.39299  0.07836  0.31798  1.0000
  H   H159      1.0  0.02852  0.48080  0.48333  1.0000
  C   C143      1.0  0.42358  0.22993  0.31755  1.0000
  H   H160      1.0  0.43610  0.31025  0.31486  1.0000
  H   H161      1.0  0.48594  0.02909  0.39861  1.0000
  H   H162      1.0  0.43950  0.49161  0.59391  1.0000
  C   C144      1.0  0.46647  0.48750  0.38605  1.0000
  N   N12       1.0  0.99583  0.47157  0.51668  1.0000
  C   C145      1.0  0.44343  0.48005  0.43900  1.0000
  H   H163      1.0  0.43418  0.47708  0.45908  1.0000
  H   H164      1.0  0.42158  0.00349  0.55347  1.0000
  C   C146      1.0  0.41792  0.49280  0.63130  1.0000
  H   H165      1.0  0.47016  0.48812  0.49768  1.0000
  Fe  Fe23      1.0  0.35848  0.99704  0.56929  1.0000
  C   C147      1.0  0.99435  0.46811  0.54583  1.0000
  C   C148      1.0  0.44332  0.49484  0.61511  1.0000
  C   C149      1.0  0.49226  0.01514  0.33563  1.0000
  Fe  Fe24      1.0  0.04720  0.41784  0.96510  1.0000
  C   C150      1.0  0.43541  0.04577  0.74422  1.0000
  Fe  Fe25      1.0  0.05283  0.43267  0.90477  1.0000
  N   N13       1.0  0.43967  0.02612  0.69800  1.0000
  S   S46       1.0  0.01818  0.41915  0.86869  1.0000
  Fe  Fe26      1.0  0.11520  0.44821  0.93859  1.0000
  S   S47       1.0  0.16391  0.44585  0.93597  1.0000
  H   H166      1.0  0.41231  0.02300  0.74873  1.0000
  S   S48       1.0  0.06597  0.40075  0.93070  1.0000
  S   S49       1.0  0.02963  0.44522  0.93893  1.0000
  H   H167      1.0  0.47431  0.00956  0.70883  1.0000
  Fe  Fe27      1.0  0.39594  0.08261  0.87403  1.0000
  S   S50       1.0  0.44419  0.13193  0.87099  1.0000
  S   S51       1.0  0.37146  0.04627  0.90906  1.0000
  Fe  Fe28      1.0  0.38652  0.07911  0.81276  1.0000
  S   S52       1.0  0.43389  0.12830  0.80607  1.0000
  S   S53       1.0  0.35459  0.03890  0.78252  1.0000
  Fe  Fe29      1.0  0.45635  0.10914  0.83627  1.0000
  C   C151      1.0  0.33908  0.01444  0.73188  1.0000
  Fe  Fe30      1.0  0.41725  0.14704  0.84099  1.0000
  S   S54       1.0  0.42239  0.19937  0.84600  1.0000
  S   S55       1.0  0.41005  0.05937  0.84102  1.0000
  S   S56       1.0  0.36798  0.09851  0.84605  1.0000
  S   S57       1.0  0.35591  0.05228  0.65686  1.0000
  Fe  Fe31      1.0  0.41127  0.35292  0.77388  1.0000
  S   S58       1.0  0.36365  0.35546  0.77083  1.0000
  S   S59       1.0  0.40466  0.30017  0.76826  1.0000
  Fe  Fe32      1.0  0.45362  0.42994  0.77552  1.0000
  S   S60       1.0  0.40917  0.43700  0.77234  1.0000
  C   C152      1.0  0.45182  0.05152  0.71937  1.0000
  Fe  Fe33      1.0  0.38629  0.39537  0.80208  1.0000
  S   S61       1.0  0.35446  0.40078  0.83356  1.0000
  Fe  Fe34      1.0  0.39091  0.39697  0.74120  1.0000
  S   S62       1.0  0.36323  0.40273  0.70598  1.0000
  S   S63       1.0  0.43206  0.39029  0.80746  1.0000
  S   S64       1.0  0.43722  0.39244  0.74214  1.0000
  S   S65       1.0  0.37879  0.39903  0.95654  1.0000
  N   N14       1.0  0.37719  0.30645  0.68761  1.0000
  C   C153      1.0  0.37159  0.40705  0.67151  1.0000
  H   H168      1.0  0.30927  0.31196  0.86161  1.0000
  C   C154      1.0  0.45940  0.03933  0.93082  1.0000
  H   H169      1.0  0.41600  0.40272  0.67315  1.0000
  C   C155      1.0  0.36380  0.40309  0.86754  1.0000
  C   C156      1.0  0.34577  0.41148  0.88538  1.0000
  C   C157      1.0  0.35105  0.41159  0.91273  1.0000
  C   C158      1.0  0.37391  0.40259  0.92240  1.0000
  C   C159      1.0  0.39252  0.39494  0.90455  1.0000
  C   C160      1.0  0.38772  0.39547  0.87718  1.0000
  H   H170      1.0  0.32726  0.41744  0.87803  1.0000
  H   H171      1.0  0.33656  0.41747  0.92635  1.0000
  H   H172      1.0  0.41048  0.38824  0.91192  1.0000
  H   H173      1.0  0.40204  0.38934  0.86363  1.0000
  C   C161      1.0  0.41860  0.22734  0.82350  1.0000
  C   C162      1.0  0.42818  0.26022  0.83191  1.0000
  C   C163      1.0  0.42459  0.28297  0.81527  1.0000
  C   C164      1.0  0.41125  0.27313  0.78986  1.0000
  C   C165      1.0  0.40183  0.24032  0.78138  1.0000
  C   C166      1.0  0.40549  0.21759  0.79802  1.0000
  H   H174      1.0  0.43865  0.26822  0.85145  1.0000
  H   H175      1.0  0.43227  0.30812  0.82214  1.0000
  H   H176      1.0  0.39150  0.23230  0.76181  1.0000
  H   H177      1.0  0.39797  0.19246  0.79120  1.0000
  C   C167      1.0  0.35651  0.04338  0.74761  1.0000
  C   C168      1.0  0.37425  0.07475  0.73525  1.0000
  C   C169      1.0  0.37376  0.07712  0.70748  1.0000
  C   C170      1.0  0.35621  0.04816  0.69176  1.0000
  H   H178      1.0  0.43522  0.06526  0.78289  1.0000
  H   H179      1.0  0.44208  0.45231  0.70463  1.0000
  H   H180      1.0  0.38778  0.09725  0.74707  1.0000
  H   H181      1.0  0.38703  0.10154  0.69812  1.0000
  H   H182      1.0  0.40654  0.28670  0.92881  1.0000
  C   C171      1.0  0.33918  0.01675  0.70412  1.0000
  C   C172      1.0  0.37927  0.04846  0.94382  1.0000
  C   C173      1.0  0.40302  0.07802  0.95637  1.0000
  H   H183      1.0  0.46988  0.47180  0.96877  1.0000
  H   H184      1.0  0.41736  0.10067  0.94487  1.0000
  H   H185      1.0  0.33158  0.29804  0.70659  1.0000
  H   H186      1.0  0.36571  0.34108  0.70747  1.0000
  C   C174      1.0  0.49302  0.47714  0.86378  1.0000
  C   C175      1.0  0.19413  0.44808  0.95930  1.0000
  H   H187      1.0  0.34100  0.25363  0.68683  1.0000
  C   C176      1.0  0.21885  0.44059  0.95082  1.0000
  H   H188      1.0  0.41876  0.48296  0.89398  1.0000
  H   H189      1.0  0.21860  0.43286  0.93060  1.0000
  H   H190      1.0  0.42184  0.35498  0.68893  1.0000
  C   C177      1.0  0.02036  0.41347  0.83407  1.0000
  C   C178      1.0  0.04935  0.41751  0.82174  1.0000
  C   C179      1.0  0.04960  0.41255  0.79423  1.0000
  C   C180      1.0  0.02097  0.40350  0.77866  1.0000
  S   S66       1.0  0.10338  0.47911  0.91011  1.0000
  H   H191      1.0  0.47471  0.00422  0.94162  1.0000
  H   H192      1.0  0.07147  0.42415  0.83343  1.0000
  H   H193      1.0  0.07212  0.41556  0.78497  1.0000
  H   H194      1.0  0.31178  0.31309  0.82656  1.0000
  H   H195      1.0  0.26333  0.43807  0.96111  1.0000
  N   N15       1.0  0.33262  0.28493  0.84520  1.0000
  C   C181      1.0  0.35043  0.28685  0.82024  1.0000
  C   C182      1.0  0.30027  0.25293  0.84562  1.0000
  C   C183      1.0  0.32534  0.31306  0.84478  1.0000
  C   C184      1.0  0.35294  0.28593  0.86825  1.0000
  C   C185      1.0  0.36615  0.26381  0.86970  1.0000
  C   C186      1.0  0.35905  0.30756  0.89025  1.0000
  C   C187      1.0  0.38539  0.26429  0.89123  1.0000
  C   C188      1.0  0.37822  0.30775  0.91175  1.0000
  C   C189      1.0  0.39154  0.28633  0.91217  1.0000
  H   H196      1.0  0.35279  0.26424  0.81669  1.0000
  H   H197      1.0  0.33718  0.28892  0.80258  1.0000
  H   H198      1.0  0.37617  0.30915  0.82022  1.0000
  H   H199      1.0  0.30392  0.23073  0.84432  1.0000
  H   H200      1.0  0.28395  0.25128  0.82878  1.0000
  H   H201      1.0  0.28634  0.25044  0.86426  1.0000
  C   C190      1.0  0.43176  0.03986  0.67431  1.0000
  H   H202      1.0  0.44846  0.07672  0.91578  1.0000
  C   C191      1.0  0.42206  0.49565  0.65872  1.0000
  C   C192      1.0  0.47732  0.10076  0.75995  1.0000
  H   H203      1.0  0.34935  0.32465  0.89141  1.0000
  C   C193      1.0  0.48102  0.02612  0.92970  1.0000
  H   H204      1.0  0.38271  0.32469  0.92822  1.0000
  H   H205      1.0  0.45395  0.06258  0.66635  1.0000
  C   C194      1.0  0.36911  0.31207  0.66042  1.0000
  C   C195      1.0  0.26180  0.02921  0.81131  1.0000
  H   H206      1.0  0.46576  0.46741  0.82732  1.0000
  H   H207      1.0  0.30772  0.03197  0.82067  1.0000
  H   H208      1.0  0.46727  0.47877  0.73122  1.0000
  H   H209      1.0  0.32842  0.41214  0.66294  1.0000
  H   H210      1.0  0.48662  0.47889  0.70082  1.0000
  H   H211      1.0  0.34227  0.99633  0.94994  1.0000
  H   H212      1.0  0.36183  0.24590  0.85418  1.0000
  C   C196      1.0  0.35924  0.31424  0.70834  1.0000
  H   H213      1.0  0.27313  0.04755  0.79555  1.0000
  H   H214      1.0  0.03534  0.47014  0.77856  1.0000
  H   H215      1.0  0.48852  0.03948  0.68211  1.0000
  H   H216      1.0  0.36595  0.30995  0.72851  1.0000
  S   S67       1.0  0.00888  0.42648  0.67742  1.0000
  H   H217      1.0  0.48701  0.11957  0.77546  1.0000
  C   C197      1.0  0.22777  0.01511  0.81680  1.0000
  C   C198      1.0  0.46634  0.47305  0.84817  1.0000
  C   C199      1.0  0.46611  0.01787  0.69113  1.0000
  C   C200      1.0  0.44013  0.47562  0.85948  1.0000
  C   C201      1.0  0.34538  0.32257  0.65487  1.0000
  C   C202      1.0  0.39878  0.40572  0.66051  1.0000
  C   C203      1.0  0.36070  0.01939  0.95932  1.0000
  H   H218      1.0  0.34896  0.33772  0.84524  1.0000
  H   H219      1.0  0.45853  0.04151  0.84016  1.0000
  C   C204      1.0  0.44038  0.48224  0.88649  1.0000
  H   H220      1.0  0.01492  0.48106  0.86212  1.0000
  H   H221      1.0  0.33204  0.32753  0.67017  1.0000
  H   H222      1.0  0.44885  0.44258  0.94249  1.0000
  H   H223      1.0  0.42171  0.02117  0.65798  1.0000
  S   S68       1.0  0.02332  0.39854  0.74397  1.0000
  H   H224      1.0  0.41896  0.47154  0.84734  1.0000
  C   C205      1.0  0.44825  0.07008  0.76415  1.0000
  H   H225      1.0  0.39565  0.24748  0.89157  1.0000
  H   H226      1.0  0.33653  0.02718  0.85530  1.0000
  C   C206      1.0  0.03372  0.49330  0.77525  1.0000
  H   H227      1.0  0.08166  0.34310  0.96466  1.0000
  C   C207      1.0  0.46737  0.48681  0.90299  1.0000
  H   H228      1.0  0.04912  0.47028  0.73039  1.0000
  C   C208      1.0  0.24432  0.44352  0.96810  1.0000
  C   C209      1.0  0.47056  0.46784  0.94710  1.0000
  C   C210      1.0  0.32295  0.99943  0.85290  1.0000
  H   H229      1.0  0.21258  0.02249  0.80535  1.0000
  H   H230      1.0  0.42916  0.32136  0.67990  1.0000
  H   H231      1.0  0.42035  0.32574  0.71334  1.0000
  Fe  Fe35      1.0  0.08032  0.48990  0.94528  1.0000
  H   H232      1.0  0.11557  0.40275  0.97580  1.0000
  C   C211      1.0  0.41366  0.32805  0.69257  1.0000
  C   C212      1.0  0.48193  0.04355  0.83430  1.0000
  H   H233      1.0  0.37335  0.26562  0.71139  1.0000
  H   H234      1.0  0.41576  0.47218  0.93870  1.0000
  H   H235      1.0  0.38255  0.26353  0.67745  1.0000
  C   C213      1.0  0.36812  0.27076  0.69089  1.0000
  C   C214      1.0  0.46565  0.06700  0.91540  1.0000
  H   H236      1.0  0.43724  0.02777  0.94328  1.0000
  S   S69       1.0  0.09671  0.46358  0.97420  1.0000
  H   H237      1.0  0.01486  0.49264  0.78936  1.0000
  N   N16       1.0  0.02453  0.49556  0.74759  1.0000
  H   H238      1.0  0.40089  0.49276  0.67001  1.0000
  C   C215      1.0  0.34952  0.41105  0.65463  1.0000
  H   H239      1.0  0.02351  0.49146  0.66085  1.0000
  C   C216      1.0  0.28155  0.01977  0.82592  1.0000
  H   H240      1.0  0.41267  0.04721  0.67888  1.0000
  C   C217      1.0  0.48121  0.08322  0.71566  1.0000
  H   H241      1.0  0.29930  0.02156  0.89209  1.0000
  H   H242      1.0  0.45700  0.99711  0.67643  1.0000
  H   H243      1.0  0.40610  0.47743  0.71208  1.0000
  C   C218      1.0  0.48503  0.01461  0.83389  1.0000
  C   C219      1.0  0.46376  0.47750  0.70942  1.0000
  H   H244      1.0  0.38761  0.99825  0.70931  1.0000
  N   N17       1.0  0.46890  0.49442  0.93157  1.0000
  C   C220      1.0  0.04993  0.49500  0.72978  1.0000
  H   H245      1.0  0.99385  0.44163  0.74306  1.0000
  C   C221      1.0  0.17991  0.74727  0.10040  1.0000
  Fe  Fe36      1.0  0.08414  0.65756  0.17208  1.0000
  S   S70       1.0  0.03918  0.65821  0.18792  1.0000
  S   S71       1.0  0.08389  0.60957  0.16045  1.0000
  Fe  Fe37      1.0  0.12875  0.73534  0.17578  1.0000
  S   S72       1.0  0.08603  0.74058  0.19270  1.0000
  S   S73       1.0  0.18433  0.77559  0.17034  1.0000
  Fe  Fe38      1.0  0.07382  0.69505  0.21822  1.0000
  S   S74       1.0  0.06429  0.67886  0.26186  1.0000
  Fe  Fe39      1.0  0.05511  0.70262  0.16097  1.0000
  C   C222      1.0  0.14132  0.76473  0.08621  1.0000
  S   S75       1.0  0.11854  0.69238  0.20313  1.0000
  S   S76       1.0  0.09813  0.69975  0.14333  1.0000
  Fe  Fe40      1.0  0.32645  0.95419  0.10405  1.0000
  C   C223      1.0  0.27062  0.96265  0.20942  1.0000
  S   S77       1.0  0.27130  0.91159  0.10430  1.0000
  H   H246      1.0  0.01777  0.61006  0.26150  1.0000
  S   S78       1.0  0.36117  0.97070  0.13923  1.0000
  S   S79       1.0  0.36737  0.96370  0.07431  1.0000
  S   S80       1.0  0.44960  0.54813  0.00630  1.0000
  H   H247      1.0  0.01833  0.59003  0.18291  1.0000
  C   C224      1.0  0.02948  0.71115  0.04285  1.0000
  H   H248      1.0  0.05960  0.53554  0.01185  1.0000
  H   H249      1.0  0.03204  0.53256  0.30410  1.0000
  C   C225      1.0  0.99671  0.59148  0.24911  1.0000
  C   C226      1.0  0.20777  0.81367  0.15214  1.0000
  C   C227      1.0  0.24305  0.83039  0.15324  1.0000
  C   C228      1.0  0.26289  0.86021  0.13877  1.0000
  C   C229      1.0  0.24769  0.87378  0.12288  1.0000
  C   C230      1.0  0.21239  0.85703  0.12174  1.0000
  C   C231      1.0  0.19255  0.82736  0.13642  1.0000
  H   H250      1.0  0.25514  0.82004  0.16529  1.0000
  H   H251      1.0  0.28994  0.87247  0.13975  1.0000
  H   H252      1.0  0.20028  0.86728  0.10960  1.0000
  H   H253      1.0  0.16549  0.81512  0.13563  1.0000
  H   H254      1.0  0.05551  0.59355  0.30181  1.0000
  H   H255      1.0  0.05254  0.61633  0.06734  1.0000
  C   C232      1.0  0.05173  0.54109  0.16684  1.0000
  C   C233      1.0  0.04967  0.57039  0.17007  1.0000
  C   C234      1.0  0.02050  0.56785  0.18080  1.0000
  H   H256      1.0  0.27558  0.90748  0.19242  1.0000
  H   H257      1.0  0.07430  0.54284  0.15872  1.0000
  C   C235      1.0  0.07228  0.59771  0.26171  1.0000
  H   H258      1.0  0.23632  0.56496  0.99287  1.0000
  C   C236      1.0  0.04444  0.68312  0.29074  1.0000
  C   C237      1.0  0.07387  0.64147  0.06925  1.0000
  H   H259      1.0  0.12615  0.75574  0.10464  1.0000
  N   N18       1.0  0.15576  0.74314  0.07922  1.0000
  C   C238      1.0  0.02350  0.70306  0.09839  1.0000
  C   C239      1.0  0.48975  0.55182  0.00769  1.0000
  C   C240      1.0  0.04907  0.73274  0.08732  1.0000
  C   C241      1.0  0.05181  0.73686  0.05974  1.0000
  H   H260      1.0  0.06573  0.75319  0.10012  1.0000
  H   H261      1.0  0.07089  0.76044  0.05145  1.0000
  C   C242      1.0  0.48298  0.55129  0.28082  1.0000
  C   C243      1.0  0.02486  0.50956  0.17433  1.0000
  H   H262      1.0  0.28043  0.96557  0.14166  1.0000
  H   H263      1.0  0.09676  0.62796  0.10037  1.0000
  C   C244      1.0  0.04560  0.52694  0.26383  1.0000
  H   H264      1.0  0.42468  0.52694  0.20201  1.0000
  H   H265      1.0  0.08534  0.59436  0.22155  1.0000
  H   H266      1.0  0.46190  0.55535  0.28333  1.0000
  C   C245      1.0  0.00125  0.67714  0.08150  1.0000
  C   C246      1.0  0.07608  0.66739  0.05352  1.0000
  H   H267      1.0  0.00389  0.59882  0.22815  1.0000
  S   S81       1.0  0.44821  0.97957  0.11688  1.0000
  C   C247      1.0  0.48864  0.53414  0.19877  1.0000
  C   C248      1.0  0.02884  0.70262  0.29126  1.0000
  H   H268      1.0  0.26853  0.99036  0.16101  1.0000
  H   H269      1.0  0.19977  0.77406  0.10299  1.0000
  H   H270      1.0  0.10302  0.71935  0.04414  1.0000
  H   H271      1.0  0.02972  0.53917  0.09722  1.0000
  H   H272      1.0  0.14409  0.68388  0.10569  1.0000
  H   H273      1.0  0.08269  0.62479  0.26091  1.0000
  H   H274      1.0  0.15924  0.75658  0.03792  1.0000
  H   H275      1.0  0.45444  0.53022  0.06434  1.0000
  H   H276      1.0  0.18506  0.73934  0.04780  1.0000
  H   H277      1.0  0.19646  0.78179  0.05655  1.0000
  C   C249      1.0  0.09887  0.64803  0.08769  1.0000
  C   C250      1.0  0.06074  0.54568  0.24049  1.0000
  H   H278      1.0  0.07664  0.49848  0.28702  1.0000
  C   C251      1.0  0.00757  0.51406  0.10108  1.0000
  H   H279      1.0  0.05652  0.66229  0.03924  1.0000
  H   H280      1.0  0.48005  0.99356  0.17461  1.0000
  C   C252      1.0  0.23309  0.92586  0.17544  1.0000
  C   C253      1.0  0.17493  0.75573  0.05428  1.0000
  H   H281      1.0  0.12474  0.76526  0.07054  1.0000
  H   H282      1.0  0.00249  0.51372  0.12263  1.0000
  C   C254      1.0  0.10291  0.70012  0.05655  1.0000
  H   H283      1.0  0.02910  0.71632  0.27379  1.0000
  S   S82       1.0  0.03318  0.71898  0.00840  1.0000
  C   C255      1.0  0.42804  0.50622  0.21002  1.0000
  H   H284      1.0  0.16730  0.73909  0.11996  1.0000
  C   C256      1.0  0.12845  0.70793  0.07558  1.0000
  C   C257      1.0  0.28770  0.93141  0.18105  1.0000
  H   H285      1.0  0.19296  0.73291  0.09607  1.0000
  C   C258      1.0  0.12607  0.68062  0.09065  1.0000
  H   H286      1.0  0.47247  0.50045  0.01863  1.0000
  H   H287      1.0  0.16119  0.79132  0.08949  1.0000
  H   H288      1.0  0.25496  0.93467  0.27364  1.0000
  N   N19       1.0  0.26858  0.94958  0.18233  1.0000
  H   H289      1.0  0.28021  0.55462  0.00959  1.0000
  C   C259      1.0  0.25957  0.94029  0.23128  1.0000
  C   C260      1.0  0.26289  0.95212  0.25719  1.0000
  C   C261      1.0  0.07381  0.58051  0.23958  1.0000
  Fe  Fe41      1.0  0.40240  0.98485  0.10919  1.0000
  H   H290      1.0  0.21753  0.93812  0.17733  1.0000
  C   C262      1.0  0.28240  0.97627  0.16178  1.0000
  H   H291      1.0  0.24877  0.91348  0.22850  1.0000
  H   H292      1.0  0.06301  0.53410  0.22265  1.0000
  H   H293      1.0  0.28995  0.92443  0.16045  1.0000
  C   C263      1.0  0.27166  0.54822  0.98935  1.0000
  S   S83       1.0  0.01567  0.70051  0.13281  1.0000
  C   C264      1.0  0.05694  0.58003  0.28472  1.0000
  C   C265      1.0  0.04360  0.54516  0.28580  1.0000
  H   H294      1.0  0.47395  0.56545  0.22185  1.0000
  C   C266      1.0  0.00455  0.68091  0.05381  1.0000
  H   H295      1.0  0.43860  0.96308  0.20963  1.0000
  H   H296      1.0  0.31355  0.94718  0.18886  1.0000
  C   C267      1.0  0.47742  0.51842  0.27795  1.0000
  C   C268      1.0  0.47492  0.50608  0.08815  1.0000
  C   C269      1.0  0.47620  0.53349  0.07526  1.0000
  H   H297      1.0  0.18108  0.54072  0.98149  1.0000
  C   C270      1.0  0.03860  0.51377  0.04990  1.0000
  H   H298      1.0  0.30947  0.99439  0.16516  1.0000
  H   H299      1.0  0.22170  0.90309  0.18819  1.0000
  H   H300      1.0  0.23061  0.91659  0.15475  1.0000
  H   H301      1.0  0.44692  0.52042  0.15840  1.0000
  H   H302      1.0  0.43321  0.51020  0.23160  1.0000
  H   H303      1.0  0.06652  0.51610  0.09970  1.0000
  H   H304      1.0  0.05455  0.53723  0.05989  1.0000
  N   N20       1.0  0.45511  0.50376  0.19597  1.0000
  C   C271      1.0  0.99570  0.50708  0.18504  1.0000
  C   C272      1.0  0.04194  0.51305  0.02248  1.0000
  C   C273      1.0  0.27698  0.98642  0.26206  1.0000
  C   C274      1.0  0.45540  0.98998  0.21153  1.0000
  Fe  Fe42      1.0  0.40255  0.49705  0.01108  1.0000
  H   H305      1.0  0.30419  0.52813  0.98130  1.0000
  H   H306      1.0  0.35769  0.99490  0.24310  1.0000
  H   H307      1.0  0.45224  0.49774  0.27863  1.0000
  H   H308      1.0  0.28052  0.99570  0.28219  1.0000
  C   C275      1.0  0.44592  0.49788  0.16759  1.0000
  H   H309      1.0  0.43346  0.99254  0.24746  1.0000
  C   C276      1.0  0.99369  0.53637  0.18835  1.0000
  H   H310      1.0  0.99512  0.56668  0.25173  1.0000
  S   S84       1.0  0.08508  0.53577  0.45476  1.0000
  H   H311      1.0  0.00075  0.62486  0.60895  1.0000
  H   H312      1.0  0.19815  0.53622  0.48852  1.0000
  H   H313      1.0  0.47072  0.99005  0.33475  1.0000
  C   C277      1.0  0.00941  0.60674  0.61386  1.0000
  H   H314      1.0  0.07628  0.64339  0.61250  1.0000
  H   H315      1.0  0.05646  0.58636  0.61704  1.0000
  C   C278      1.0  0.05028  0.54170  0.44912  1.0000
  C   C279      1.0  0.05066  0.57057  0.45890  1.0000
  C   C280      1.0  0.20580  0.91168  0.60394  1.0000
  H   H316      1.0  0.07909  0.77396  0.62370  1.0000
  H   H317      1.0  0.14506  0.52879  0.45158  1.0000
  H   H318      1.0  0.07270  0.58965  0.46897  1.0000
  H   H319      1.0  0.21676  0.81705  0.60350  1.0000
  H   H320      1.0  0.04627  0.64593  0.54678  1.0000
  C   C281      1.0  0.26171  0.64265  0.43394  1.0000
  S   S85       1.0  0.02398  0.70302  0.49981  1.0000
  Fe  Fe43      1.0  0.31567  0.93929  0.60957  1.0000
  C   C282      1.0  0.28448  0.62360  0.46836  1.0000
  S   S86       1.0  0.27064  0.88544  0.60791  1.0000
  C   C283      1.0  0.49061  0.51349  0.50011  1.0000
  C   C284      1.0  0.01786  0.69486  0.53418  1.0000
  S   S87       1.0  0.35816  0.94973  0.58189  1.0000
  S   S88       1.0  0.44347  0.53448  0.49630  1.0000
  H   H321      1.0  0.45235  0.53035  0.43575  1.0000
  C   C285      1.0  0.02798  0.66757  0.33707  1.0000
  H   H322      1.0  0.21796  0.52086  0.46569  1.0000
  H   H323      1.0  0.01765  0.55489  0.60401  1.0000
  C   C286      1.0  0.21520  0.82569  0.62304  1.0000
  N   N21       1.0  0.18326  0.88739  0.58375  1.0000
  H   H324      1.0  0.00442  0.76724  0.51994  1.0000
  C   C287      1.0  0.17064  0.90530  0.56707  1.0000
  S   S89       1.0  0.43997  0.97783  0.62315  1.0000
  C   C288      1.0  0.15466  0.85674  0.59518  1.0000
  C   C289      1.0  0.04053  0.70949  0.57901  1.0000
  C   C290      1.0  0.04495  0.71307  0.55143  1.0000
  H   H325      1.0  0.06141  0.72394  0.59210  1.0000
  H   H326      1.0  0.06937  0.73042  0.54338  1.0000
  C   C291      1.0  0.25596  0.59160  0.46742  1.0000
  C   C292      1.0  0.09976  0.79695  0.61576  1.0000
  N   N22       1.0  0.19874  0.55071  0.44786  1.0000
  C   C293      1.0  0.16830  0.55379  0.45113  1.0000
  C   C294      1.0  0.19766  0.53598  0.42157  1.0000
  C   C295      1.0  0.19728  0.52663  0.46818  1.0000
  C   C296      1.0  0.22919  0.58430  0.44966  1.0000
  H   H327      1.0  0.47708  0.53552  0.34609  1.0000
  C   C297      1.0  0.01254  0.68724  0.33766  1.0000
  H   H328      1.0  0.05374  0.57581  0.58274  1.0000
  C   C298      1.0  0.46492  0.51396  0.39951  1.0000
  S   S90       1.0  0.00716  0.65070  0.43492  1.0000
  H   H329      1.0  0.21728  0.90041  0.61663  1.0000
  H   H330      1.0  0.19582  0.55112  0.40519  1.0000
  H   H331      1.0  0.25559  0.57305  0.48076  1.0000
  C   C299      1.0  0.47327  0.50024  0.62624  1.0000
  H   H332      1.0  0.46283  0.98457  0.49941  1.0000
  H   H333      1.0  0.49096  0.97787  0.39827  1.0000
  C   C300      1.0  0.23952  0.85831  0.63110  1.0000
  H   H334      1.0  0.02275  0.61472  0.63314  1.0000
  C   C301      1.0  0.02170  0.51746  0.43589  1.0000
  C   C302      1.0  0.02251  0.57482  0.45587  1.0000
  H   H335      1.0  0.17024  0.77918  0.63338  1.0000
  H   H336      1.0  0.17565  0.51022  0.41963  1.0000
  C   C303      1.0  0.15004  0.85069  0.62284  1.0000
  C   C304      1.0  0.20361  0.87767  0.56709  1.0000
  C   C305      1.0  0.04005  0.57955  0.59931  1.0000
  H   H337      1.0  0.19161  0.92907  0.55888  1.0000
  C   C306      1.0  0.00764  0.61234  0.52141  1.0000
  H   H338      1.0  0.16744  0.86782  0.63729  1.0000
  H   H339      1.0  0.17366  0.50199  0.46672  1.0000
  H   H340      1.0  0.46094  0.95397  0.53951  1.0000
  C   C307      1.0  0.01311  0.70471  0.31459  1.0000
  C   C308      1.0  0.28732  0.64908  0.45172  1.0000
  H   H341      1.0  0.30458  0.62865  0.48207  1.0000
  C   C309      1.0  0.18874  0.80406  0.63997  1.0000
  H   H342      1.0  0.19229  0.92068  0.61681  1.0000
  H   H343      1.0  0.16453  0.56762  0.43470  1.0000
  H   H344      1.0  0.08087  0.64006  0.57775  1.0000
  C   C310      1.0  0.23312  0.61077  0.43279  1.0000
  H   H345      1.0  0.30947  0.67382  0.45254  1.0000
  H   H346      1.0  0.02780  0.65398  0.35458  1.0000
  H   H347      1.0  0.08589  0.78291  0.57530  1.0000
  H   H348      1.0  0.13285  0.83387  0.55713  1.0000
  H   H349      1.0  0.99408  0.50452  0.48705  1.0000
  H   H350      1.0  0.03114  0.78058  0.56281  1.0000
  H   H351      1.0  0.02300  0.59704  0.46359  1.0000
  H   H352      1.0  0.22726  0.93426  0.59481  1.0000
  H   H353      1.0  0.22739  0.89992  0.56034  1.0000
  H   H354      1.0  0.16913  0.56693  0.46985  1.0000
  C   C311      1.0  0.10363  0.80204  0.58857  1.0000
  C   C312      1.0  0.12289  0.82123  0.63281  1.0000
  H   H355      1.0  0.15599  0.89010  0.54983  1.0000
  H   H356      1.0  0.42574  0.95528  0.55274  1.0000
  H   H357      1.0  0.21078  0.86134  0.57828  1.0000
  H   H358      1.0  0.05821  0.66009  0.59037  1.0000
  C   C313      1.0  0.06305  0.63881  0.59316  1.0000
  H   H359      1.0  0.15413  0.91184  0.57870  1.0000
  C   C314      1.0  0.13063  0.83140  0.57836  1.0000
  H   H360      1.0  0.19006  0.86350  0.54915  1.0000
  H   H361      1.0  0.21410  0.60694  0.41848  1.0000
  H   H362      1.0  0.22044  0.53383  0.41814  1.0000
  Fe  Fe44      1.0  0.39295  0.98037  0.61441  1.0000
  H   H363      1.0  0.01085  0.52421  0.51820  1.0000
  H   H364      1.0  0.26405  0.66250  0.42092  1.0000
  C   C315      1.0  0.00452  0.76296  0.56146  1.0000
  H   H365      1.0  0.01642  0.63032  0.50524  1.0000
  C   C316      1.0  0.02470  0.62098  0.54555  1.0000
  S   S91       1.0  0.00072  0.68771  0.62381  1.0000
  H   H366      1.0  0.04977  0.50041  0.51315  1.0000
  S   S92       1.0  0.31362  0.98502  0.59530  1.0000
  H   H367      1.0  0.46386  0.97223  0.57142  1.0000
  N   N23       1.0  0.03139  0.60590  0.59281  1.0000
  H   H368      1.0  0.47175  0.53766  0.39015  1.0000
  C   C317      1.0  0.45361  0.96981  0.55110  1.0000
  C   C318      1.0  0.00871  0.68837  0.58955  1.0000
  H   H369      1.0  0.00132  0.72006  0.31480  1.0000
  H   H370      1.0  0.42609  0.98536  0.51002  1.0000
  C   C319      1.0  0.04378  0.66554  0.31376  1.0000
  C   C320      1.0  0.45366  0.51013  0.42565  1.0000
  C   C321      1.0  0.01358  0.59809  0.56716  1.0000
  C   C322      1.0  0.48427  0.54034  0.50103  1.0000
  H   H371      1.0  0.05572  0.65036  0.31365  1.0000
  H   H372      1.0  0.99917  0.75242  0.60318  1.0000
  S   S93       1.0  0.35090  0.96569  0.64348  1.0000
  H   H373      1.0  0.49290  0.50170  0.61351  1.0000
  C   C323      1.0  0.99337  0.52131  0.43339  1.0000
  C   C324      1.0  0.99356  0.54993  0.44337  1.0000
  S   S94       1.0  0.08867  0.54222  0.95348  1.0000
  H   H374      1.0  0.23982  0.52008  0.91801  1.0000
  Fe  Fe45      1.0  0.07286  0.65998  0.67801  1.0000
  S   S95       1.0  0.02193  0.65318  0.68371  1.0000
  H   H375      1.0  0.03282  0.60920  0.96444  1.0000
  Fe  Fe46      1.0  0.10609  0.73663  0.68363  1.0000
  S   S96       1.0  0.05578  0.73353  0.68984  1.0000
  S   S97       1.0  0.15312  0.78887  0.68756  1.0000
  Fe  Fe47      1.0  0.04389  0.68999  0.71727  1.0000
  H   H376      1.0  0.05866  0.65327  0.89105  1.0000
  S   S98       1.0  0.01950  0.66246  0.94590  1.0000
  S   S99       1.0  0.09476  0.69474  0.71291  1.0000
  N   N24       1.0  0.20669  0.55009  0.94383  1.0000
  H   H377      1.0  0.17587  0.54334  0.90953  1.0000
  C   C325      1.0  0.05312  0.58902  0.74257  1.0000
  H   H378      1.0  0.47030  0.56057  0.78935  1.0000
  C   C326      1.0  0.23386  0.54437  0.95349  1.0000
  H   H379      1.0  0.46085  0.50241  0.78945  1.0000
  C   C327      1.0  0.19633  0.53875  0.91618  1.0000
  Fe  Fe48      1.0  0.03874  0.69662  0.65600  1.0000
  C   C328      1.0  0.21069  0.84722  0.67348  1.0000
  H   H380      1.0  0.43721  0.51684  0.93135  1.0000
  Fe  Fe49      1.0  0.99954  0.68423  0.97590  1.0000
  C   C329      1.0  0.48494  0.52297  0.78361  1.0000
  H   H381      1.0  0.05668  0.52175  0.89328  1.0000
  H   H382      1.0  0.00602  0.58772  0.67844  1.0000
  H   H383      1.0  0.46370  0.99054  0.83908  1.0000
  H   H384      1.0  0.06485  0.57784  0.89790  1.0000
  H   H385      1.0  0.47186  0.91737  0.79096  1.0000
  H   H386      1.0  0.19817  0.59172  0.93717  1.0000
  C   C330      1.0  0.01631  0.67882  0.78841  1.0000
  S   S100      1.0  0.08917  0.70201  0.64831  1.0000
  C   C331      1.0  0.02204  0.52278  0.94429  1.0000
  C   C332      1.0  0.04266  0.57281  0.67049  1.0000
  H   H387      1.0  0.06496  0.62377  0.83672  1.0000
  C   C333      1.0  0.18628  0.81468  0.66536  1.0000
  H   H388      1.0  0.40064  0.97560  0.68852  1.0000
  C   C334      1.0  0.05353  0.54838  0.95248  1.0000
  C   C335      1.0  0.05727  0.57968  0.95961  1.0000
  C   C336      1.0  0.04233  0.52939  0.88094  1.0000
  H   H389      1.0  0.07601  0.51393  0.73516  1.0000
  H   H390      1.0  0.24102  0.60139  0.93315  1.0000
  H   H391      1.0  0.42371  0.52256  0.70893  1.0000
  C   C337      1.0  0.02976  0.58521  0.95854  1.0000
  C   C338      1.0  0.27246  0.94725  0.86006  1.0000
  H   H392      1.0  0.00054  0.73825  0.79720  1.0000
  H   H393      1.0  0.33740  0.99053  0.86476  1.0000
  H   H394      1.0  0.02223  0.61111  0.82871  1.0000
  H   H395      1.0  0.32515  0.99007  0.74123  1.0000
  H   H396      1.0  0.22309  0.59641  0.96548  1.0000
  H   H397      1.0  0.08208  0.63239  0.88505  1.0000
  H   H398      1.0  0.18633  0.51117  0.91410  1.0000
  C   C339      1.0  0.02235  0.69357  0.84340  1.0000
  H   H399      1.0  0.16865  0.50436  0.96132  1.0000
  C   C340      1.0  0.04802  0.71406  0.82561  1.0000
  H   H400      1.0  0.21752  0.55218  0.90213  1.0000
  H   H401      1.0  0.08145  0.59966  0.96611  1.0000
  H   H402      1.0  0.28795  0.93833  0.87042  1.0000
  H   H403      1.0  0.07024  0.73603  0.83292  1.0000
  H   H404      1.0  0.07768  0.56065  0.74758  1.0000
  H   H405      1.0  0.27004  0.93916  0.83903  1.0000
  S   S101      1.0  0.02730  0.70482  0.87747  1.0000
  C   C341      1.0  0.21777  0.58648  0.94497  1.0000
  Fe  Fe50      1.0  0.99647  0.67929  0.91458  1.0000
  C   C342      1.0  0.45237  0.50126  0.67075  1.0000
  C   C343      1.0  0.04514  0.70669  0.79833  1.0000
  H   H406      1.0  0.20910  0.85575  0.69306  1.0000
  H   H407      1.0  0.02263  0.61211  0.73769  1.0000
  H   H408      1.0  0.24716  0.93354  0.86916  1.0000
  C   C344      1.0  0.05664  0.62801  0.88991  1.0000
  H   H409      1.0  0.49059  0.97332  0.91518  1.0000
  C   C345      1.0  0.05355  0.55885  0.74510  1.0000
  S   S102      1.0  0.07800  0.61395  0.67010  1.0000
  C   C346      1.0  0.23707  0.86892  0.65650  1.0000
  H   H410      1.0  0.44143  0.50212  0.96288  1.0000
  N   N25       1.0  0.28763  0.98431  0.86193  1.0000
  C   C347      1.0  0.02353  0.52718  0.74424  1.0000
  S   S103      1.0  0.00983  0.66988  0.75395  1.0000
  C   C348      1.0  0.27388  0.52413  0.94765  1.0000
  C   C349      1.0  0.04677  0.56176  0.88338  1.0000
  C   C350      1.0  0.42915  0.50239  0.71480  1.0000
  H   H411      1.0  0.04761  0.64989  0.84530  1.0000
  H   H412      1.0  0.05851  0.51495  0.78072  1.0000
  C   C351      1.0  0.24837  0.52923  0.93775  1.0000
  H   H413      1.0  0.43425  0.50524  0.73644  1.0000
  H   H414      1.0  0.04958  0.61700  0.91006  1.0000
  H   H415      1.0  0.28390  0.51160  0.93564  1.0000
  C   C352      1.0  0.04195  0.62333  0.84408  1.0000
  C   C353      1.0  0.02284  0.58866  0.73986  1.0000
  H   H416      1.0  0.07215  0.54933  0.66203  1.0000
  H   H417      1.0  0.06490  0.72302  0.78490  1.0000
  N   N26       1.0  0.03143  0.60609  0.87001  1.0000
  C   C354      1.0  0.01957  0.51229  0.66493  1.0000
  N   N27       1.0  0.45790  0.50464  0.69968  1.0000
  C   C355      1.0  0.02764  0.57211  0.86798  1.0000
  H   H418      1.0  0.15504  0.53398  0.95348  1.0000
  H   H419      1.0  0.48513  0.55874  0.69752  1.0000
  H   H420      1.0  0.25538  0.89390  0.66304  1.0000
  C   C356      1.0  0.17664  0.53158  0.96078  1.0000
  C   C357      1.0  0.01014  0.56706  0.67450  1.0000
  H   H421      1.0  0.07641  0.61288  0.74228  1.0000
  C   C358      1.0  0.04718  0.54522  0.66551  1.0000
  C   C359      1.0  0.01875  0.50638  0.86341  1.0000
  H   H422      1.0  0.22063  0.96369  0.86728  1.0000
  C   C360      1.0  0.99972  0.51575  0.84795  1.0000
  H   H423      1.0  0.04565  0.49954  0.70898  1.0000
  C   C361      1.0  0.49038  0.55605  0.78363  1.0000
  C   C362      1.0  0.99834  0.55950  0.95013  1.0000
  C   C363      1.0  0.00415  0.54815  0.85003  1.0000
  H   H424      1.0  0.32461  0.99343  0.83181  1.0000
  C   C364      1.0  0.28539  0.53345  0.97339  1.0000
  C   C365      1.0  0.47786  0.50348  0.65361  1.0000
  C   C366      1.0  0.48775  0.53768  0.70583  1.0000
  H   H425      1.0  0.12028  0.81679  0.65398  1.0000
  H   H426      1.0  0.00133  0.62825  0.88099  1.0000
  H   H427      1.0  0.30382  0.98670  0.90232  1.0000
  H   H428      1.0  0.18687  0.98078  0.84136  1.0000
  C   C367      1.0  0.99894  0.60314  0.87766  1.0000
  C   C368      1.0  0.43951  0.49648  0.94133  1.0000
  C   C369      1.0  0.23290  0.98187  0.85170  1.0000
  H   H429      1.0  0.26285  0.98164  0.89901  1.0000
  H   H430      1.0  0.41324  0.98190  0.72242  1.0000
  H   H431      1.0  0.32535  0.99429  0.69231  1.0000
  C   C370      1.0  0.40900  0.99412  0.70504  1.0000
  C   C371      1.0  0.99386  0.66518  0.83360  1.0000
  H   H432      1.0  0.49167  0.54192  0.72748  1.0000
  C   C372      1.0  0.48734  0.90702  0.78451  1.0000
  C   C373      1.0  0.99465  0.52828  0.94317  1.0000
  C   C374      1.0  0.48760  0.89865  0.75809  1.0000
  H   H433      1.0  0.47190  0.90221  0.74399  1.0000
  H   H434      1.0  0.01864  0.49879  0.93832  1.0000
  C   C375      1.0  0.28821  0.99380  0.89001  1.0000
  C   C376      1.0  0.26759  0.99539  0.84638  1.0000
  C   C377      1.0  0.21336  0.99159  0.83705  1.0000
  C   C378      1.0  0.24640  0.55378  0.97960  1.0000
  H   H435      1.0  0.87923  0.22481  0.16507  1.0000
  S   S104      1.0  0.93894  0.37634  0.21517  1.0000
  H   H436      1.0  0.58126  0.02066  0.29329  1.0000
  H   H437      1.0  0.56989  0.07835  0.24508  1.0000
  S   S105      1.0  0.94195  0.38705  0.15058  1.0000
  Fe  Fe51      1.0  0.96223  0.41968  0.18674  1.0000
  S   S106      1.0  0.96143  0.46800  0.19464  1.0000
  Fe  Fe52      1.0  0.92265  0.34294  0.17877  1.0000
  S   S107      1.0  0.86866  0.29806  0.18041  1.0000
  C   C379      1.0  0.52786  0.02657  0.02894  1.0000
  S   S108      1.0  0.67971  0.05950  0.28596  1.0000
  Fe  Fe53      1.0  0.63804  0.10310  0.10509  1.0000
  S   S109      1.0  0.62934  0.05087  0.10185  1.0000
  S   S110      1.0  0.59234  0.10950  0.10532  1.0000
  Fe  Fe54      1.0  0.71441  0.13488  0.10416  1.0000
  S   S111      1.0  0.71015  0.08386  0.10008  1.0000
  S   S112      1.0  0.76840  0.17944  0.10268  1.0000
  Fe  Fe55      1.0  0.66907  0.07145  0.07043  1.0000
  S   S113      1.0  0.65821  0.03561  0.03553  1.0000
  Fe  Fe56      1.0  0.67073  0.06776  0.13150  1.0000
  S   S114      1.0  0.66562  0.03036  0.16286  1.0000
  S   S115      1.0  0.67580  0.12343  0.07192  1.0000
  S   S116      1.0  0.67676  0.11906  0.13739  1.0000
  C   C380      1.0  0.57761  0.03883  0.22850  1.0000
  C   C381      1.0  0.52481  0.07224  0.09684  1.0000
  C   C382      1.0  0.55277  0.07280  0.10826  1.0000
  C   C383      1.0  0.54858  0.04439  0.12182  1.0000
  H   H438      1.0  0.78801  0.13186  0.12933  1.0000
  H   H439      1.0  0.52805  0.09355  0.08546  1.0000
  H   H440      1.0  0.56999  0.04435  0.13046  1.0000
  C   C384      1.0  0.67394  0.05053  0.25191  1.0000
  C   C385      1.0  0.66459  0.01852  0.24222  1.0000
  H   H441      1.0  0.60656  0.09692  0.16575  1.0000
  C   C386      1.0  0.66800  0.03858  0.19704  1.0000
  C   C387      1.0  0.67613  0.07026  0.20680  1.0000
  C   C388      1.0  0.67962  0.07635  0.23414  1.0000
  H   H442      1.0  0.67970  0.09004  0.19334  1.0000
  H   H443      1.0  0.68657  0.10110  0.24158  1.0000
  C   C389      1.0  0.65349  0.03962  0.00109  1.0000
  H   H444      1.0  0.76500  0.08855  0.13785  1.0000
  H   H445      1.0  0.96055  0.44861  0.09619  1.0000
  H   H446      1.0  0.58405  0.05817  0.28087  1.0000
  C   C390      1.0  0.84090  0.26634  0.15784  1.0000
  C   C391      1.0  0.80757  0.24423  0.16572  1.0000
  C   C392      1.0  0.78492  0.21788  0.14911  1.0000
  C   C393      1.0  0.79538  0.21294  0.12437  1.0000
  C   C394      1.0  0.82867  0.23509  0.11646  1.0000
  C   C395      1.0  0.85124  0.26165  0.13298  1.0000
  H   H447      1.0  0.79925  0.24753  0.18489  1.0000
  H   H448      1.0  0.75939  0.20158  0.15547  1.0000
  H   H449      1.0  0.83711  0.23171  0.09736  1.0000
  H   H450      1.0  0.87672  0.27827  0.12658  1.0000
  C   C396      1.0  0.51648  0.01587  0.12429  1.0000
  C   C397      1.0  0.58691  0.05804  0.04045  1.0000
  C   C398      1.0  0.66196  0.01269  0.21484  1.0000
  H   H451      1.0  0.66036  0.99854  0.25577  1.0000
  C   C399      1.0  0.52198  0.13305  0.13378  1.0000
  C   C400      1.0  0.56656  0.01012  0.01133  1.0000
  C   C401      1.0  0.80234  0.16510  0.20765  1.0000
  H   H452      1.0  0.58829  0.11425  0.20577  1.0000
  C   C402      1.0  0.74692  0.12498  0.16800  1.0000
  H   H453      1.0  0.58124  0.06985  0.05740  1.0000
  H   H454      1.0  0.97116  0.38310  0.27807  1.0000
  H   H455      1.0  0.87359  0.24149  0.21014  1.0000
  H   H456      1.0  0.75087  0.06949  0.18110  1.0000
  H   H457      1.0  0.54770  0.13867  0.13636  1.0000
  C   C403      1.0  0.80476  0.15456  0.18175  1.0000
  C   C404      1.0  0.58797  0.09047  0.20563  1.0000
  H   H458      1.0  0.51805  0.05485  0.17804  1.0000
  H   H459      1.0  0.52752  0.02868  0.26282  1.0000
  C   C405      1.0  0.77001  0.09423  0.18944  1.0000
  C   C406      1.0  0.58879  0.02998  0.20524  1.0000
  C   C407      1.0  0.57760  0.06979  0.22801  1.0000
  C   C408      1.0  0.85812  0.20755  0.17714  1.0000
  H   H460      1.0  0.57530  0.02771  0.99429  1.0000
  C   C409      1.0  0.78540  0.11343  0.14486  1.0000
  H   H461      1.0  0.60987  0.05695  0.04560  1.0000
  H   H462      1.0  0.61447  0.04681  0.27106  1.0000
  C   C410      1.0  0.53098  0.00698  0.25824  1.0000
  H   H463      1.0  0.50737  0.11498  0.17342  1.0000
  H   H464      1.0  0.50200  0.48840  0.11137  1.0000
  C   C411      1.0  0.65491  0.06829  0.99010  1.0000
  C   C412      1.0  0.85496  0.21707  0.20259  1.0000
  C   C413      1.0  0.55424  0.00223  0.05757  1.0000
  H   H465      1.0  0.75111  0.14506  0.15365  1.0000
  C   C414      1.0  0.49765  0.05941  0.21534  1.0000
  H   H466      1.0  0.59404  0.07553  0.02344  1.0000
  H   H467      1.0  0.72556  0.10095  0.16066  1.0000
  H   H468      1.0  0.51397  0.08635  0.21557  1.0000
  N   N28       1.0  0.56645  0.01741  0.25244  1.0000
  C   C415      1.0  0.58740  0.03663  0.27532  1.0000
  H   H469      1.0  0.66019  0.08947  0.00265  1.0000
  H   H470      1.0  0.53003  0.14865  0.09372  1.0000
  N   N29       1.0  0.77752  0.12240  0.17107  1.0000
  N   N30       1.0  0.55817  0.02413  0.03464  1.0000
  C   C416      1.0  0.50136  0.08371  0.27104  1.0000
  H   H471      1.0  0.75920  0.09641  0.20848  1.0000
  H   H472      1.0  0.96585  0.34971  0.03841  1.0000
  C   C417      1.0  0.51152  0.13853  0.10929  1.0000
  C   C418      1.0  0.98518  0.45466  0.10481  1.0000
  C   C419      1.0  0.82713  0.19590  0.21783  1.0000
  C   C420      1.0  0.98925  0.36921  0.04658  1.0000
  C   C421      1.0  0.52797  0.04715  0.00792  1.0000
  H   H473      1.0  0.98899  0.43275  0.10194  1.0000
  H   H474      1.0  0.78083  0.15003  0.22000  1.0000
  H   H475      1.0  0.83678  0.17204  0.14636  1.0000
  H   H476      1.0  0.82446  0.20386  0.23740  1.0000
  C   C422      1.0  0.83336  0.17695  0.16664  1.0000
  H   H477      1.0  0.73892  0.13113  0.18689  1.0000
  H   H478      1.0  0.80883  0.11203  0.14557  1.0000
  H   H479      1.0  0.79300  0.09290  0.19386  1.0000
  S   S117      1.0  0.97027  0.33979  0.17783  1.0000
  H   H480      1.0  0.59074  0.00751  0.20380  1.0000
  H   H481      1.0  0.98504  0.44486  0.27139  1.0000
  H   H482      1.0  0.52147  0.10231  0.25805  1.0000
  H   H483      1.0  0.58728  0.00494  0.01580  1.0000
  H   H484      1.0  0.51382  0.17902  0.06813  1.0000
  H   H485      1.0  0.97185  0.35838  0.08705  1.0000
  H   H486      1.0  0.98585  0.43093  0.01095  1.0000
  H   H487      1.0  0.54873  0.01177  0.07598  1.0000
  C   C423      1.0  0.59844  0.08086  0.18310  1.0000
  H   H488      1.0  0.98323  0.45685  0.12660  1.0000
  H   H489      1.0  0.51055  0.06797  0.28059  1.0000
  H   H490      1.0  0.57765  0.00130  0.06149  1.0000
  Fe  Fe57      1.0  0.99022  0.38566  0.15159  1.0000
  H   H491      1.0  0.98281  0.47765  0.25385  1.0000
  H   H492      1.0  0.60799  0.04373  0.16567  1.0000
  H   H493      1.0  0.49833  0.09869  0.28708  1.0000
  C   C424      1.0  0.50011  0.04171  0.19373  1.0000
  C   C425      1.0  0.99247  0.38868  0.29045  1.0000
  S   S118      1.0  0.49879  0.47162  0.27325  1.0000
  H   H494      1.0  0.97908  0.43094  0.05835  1.0000
  H   H495      1.0  0.50044  0.06613  0.98619  1.0000
  H   H496      1.0  0.55014  0.06149  0.99601  1.0000
  C   C426      1.0  0.64652  0.01231  0.98445  1.0000
  Fe  Fe58      1.0  0.98734  0.37594  0.21236  1.0000
  C   C427      1.0  0.59894  0.05077  0.18297  1.0000
  H   H497      1.0  0.98903  0.48029  0.28911  1.0000
  C   C428      1.0  0.49931  0.11957  0.15459  1.0000
  H   H498      1.0  0.50009  0.12175  0.05663  1.0000
  C   C429      1.0  0.49754  0.00866  0.04354  1.0000
  C   C430      1.0  0.49971  0.04997  0.00213  1.0000
  C   C431      1.0  0.99256  0.37410  0.07413  1.0000
  S   S119      1.0  0.62607  0.03852  0.34517  1.0000
  H   H499      1.0  0.53471  0.08406  0.40379  1.0000
  C   C432      1.0  0.98956  0.46030  0.60160  1.0000
  S   S120      1.0  0.66739  0.04925  0.41308  1.0000
  H   H500      1.0  0.90104  0.26083  0.56960  1.0000
  C   C433      1.0  0.65859  0.04650  0.44747  1.0000
  C   C434      1.0  0.68016  0.07344  0.46391  1.0000
  C   C435      1.0  0.67500  0.07211  0.49146  1.0000
  C   C436      1.0  0.63119  0.01849  0.45880  1.0000
  H   H501      1.0  0.70136  0.09532  0.45535  1.0000
  C   C437      1.0  0.51519  0.07554  0.33997  1.0000
  C   C438      1.0  0.54754  0.07986  0.33856  1.0000
  C   C439      1.0  0.55227  0.05196  0.33631  1.0000
  C   C440      1.0  0.52469  0.01939  0.33524  1.0000
  H   H502      1.0  0.70955  0.46170  0.48093  1.0000
  S   S121      1.0  0.67473  0.11974  0.64220  1.0000
  H   H503      1.0  0.95617  0.24635  0.60020  1.0000
  H   H504      1.0  0.63576  0.08535  0.39224  1.0000
  Fe  Fe59      1.0  0.63224  0.10245  0.61313  1.0000
  S   S122      1.0  0.62718  0.05220  0.60684  1.0000
  S   S123      1.0  0.58599  0.10682  0.62148  1.0000
  Fe  Fe60      1.0  0.70874  0.13804  0.60656  1.0000
  S   S124      1.0  0.70783  0.08864  0.59963  1.0000
  S   S125      1.0  0.75609  0.19006  0.60187  1.0000
  Fe  Fe61      1.0  0.66325  0.07492  0.57307  1.0000
  S   S126      1.0  0.64273  0.03864  0.53772  1.0000
  Fe  Fe62      1.0  0.67135  0.07002  0.63377  1.0000
  S   S127      1.0  0.66593  0.12502  0.57788  1.0000
  H   H505      1.0  0.56907  0.09593  0.56436  1.0000
  H   H506      1.0  0.97122  0.39779  0.32538  1.0000
  C   C441      1.0  0.51728  0.07475  0.62197  1.0000
  C   C442      1.0  0.54557  0.07072  0.62166  1.0000
  C   C443      1.0  0.54101  0.03822  0.62189  1.0000
  H   H507      1.0  0.96924  0.44166  0.48271  1.0000
  H   H508      1.0  0.52052  0.09980  0.62166  1.0000
  H   H509      1.0  0.56239  0.03459  0.62168  1.0000
  C   C444      1.0  0.64840  0.04354  0.50293  1.0000
  H   H510      1.0  0.96838  0.36483  0.58557  1.0000
  H   H511      1.0  0.69221  0.09273  0.50389  1.0000
  H   H512      1.0  0.98748  0.45687  0.62284  1.0000
  C   C445      1.0  0.57286  0.03630  0.40810  1.0000
  C   C446      1.0  0.78803  0.21824  0.62413  1.0000
  C   C447      1.0  0.81257  0.25016  0.61490  1.0000
  H   H513      1.0  0.97054  0.41806  0.51048  1.0000
  C   C448      1.0  0.96639  0.46521  0.56004  1.0000
  H   H514      1.0  0.81094  0.25739  0.59487  1.0000
  H   H515      1.0  0.85757  0.29721  0.62377  1.0000
  C   C449      1.0  0.57385  0.05824  0.54287  1.0000
  C   C450      1.0  0.89720  0.24215  0.60989  1.0000
  H   H516      1.0  0.96036  0.35981  0.53694  1.0000
  C   C451      1.0  0.62665  0.10356  0.39001  1.0000
  C   C452      1.0  0.54418  0.00481  0.40490  1.0000
  C   C453      1.0  0.87481  0.21611  0.62716  1.0000
  H   H517      1.0  0.60097  0.07129  0.54447  1.0000
  C   C454      1.0  0.84360  0.19060  0.61833  1.0000
  C   C455      1.0  0.53875  0.06281  0.40468  1.0000
  C   C456      1.0  0.93128  0.30213  0.61694  1.0000
  H   H518      1.0  0.67101  0.47592  0.50228  1.0000
  Fe  Fe63      1.0  0.65019  0.01973  0.31665  1.0000
  H   H519      1.0  0.61987  0.15292  0.41022  1.0000
  H   H520      1.0  0.84597  0.21624  0.55525  1.0000
  H   H521      1.0  0.57137  0.01679  0.52145  1.0000
  N   N31       1.0  0.60201  0.09945  0.41070  1.0000
  H   H522      1.0  0.64953  0.12888  0.39070  1.0000
  H   H523      1.0  0.80863  0.17146  0.58608  1.0000
  C   C457      1.0  0.59613  0.12841  0.40841  1.0000
  C   C458      1.0  0.57112  0.06636  0.40775  1.0000
  H   H524      1.0  0.62459  0.08190  0.43943  1.0000
  C   C459      1.0  0.83347  0.19051  0.59242  1.0000
  C   C460      1.0  0.50857  0.01006  0.62253  1.0000
  S   S128      1.0  0.94078  0.37958  0.64179  1.0000
  H   H525      1.0  0.95624  0.32347  0.62269  1.0000
  C   C461      1.0  0.61704  0.10130  0.43700  1.0000
  C   C462      1.0  0.55579  0.07205  0.55404  1.0000
  S   S129      1.0  0.51079  0.11145  0.34387  1.0000
  H   H526      1.0  0.91232  0.30237  0.63041  1.0000
  H   H527      1.0  0.94325  0.43552  0.51084  1.0000
  H   H528      1.0  0.57729  0.05577  0.33556  1.0000
  H   H529      1.0  0.56909  0.10491  0.33956  1.0000
  H   H530      1.0  0.59653  0.03696  0.41055  1.0000
  H   H531      1.0  0.61553  0.09999  0.36993  1.0000
  H   H532      1.0  0.71424  0.03418  0.48780  1.0000
  H   H533      1.0  0.57921  0.12805  0.42428  1.0000
  C   C463      1.0  0.51022  0.03114  0.40171  1.0000
  C   C464      1.0  0.88596  0.24135  0.58363  1.0000
  C   C465      1.0  0.85453  0.21590  0.57513  1.0000
  H   H534      1.0  0.98257  0.29046  0.60753  1.0000
  H   H535      1.0  0.94566  0.46512  0.54995  1.0000
  C   C466      1.0  0.62638  0.01690  0.48640  1.0000
  H   H536      1.0  0.92572  0.30760  0.59681  1.0000
  H   H537      1.0  0.64014  0.12601  0.44026  1.0000
  C   C467      1.0  0.52077  0.05490  0.55270  1.0000
  N   N32       1.0  0.93054  0.26952  0.61842  1.0000
  H   H538      1.0  0.59904  0.09740  0.45316  1.0000
  H   H539      1.0  0.58502  0.12859  0.38887  1.0000
  H   H540      1.0  0.51196  0.48197  0.33460  1.0000
  C   C468      1.0  0.83929  0.27277  0.63124  1.0000
  C   C469      1.0  0.50152  0.47777  0.35505  1.0000
  C   C470      1.0  0.55703  0.02744  0.52989  1.0000
  C   C471      1.0  0.96424  0.46158  0.58753  1.0000
  H   H541      1.0  0.95472  0.27809  0.58025  1.0000
  C   C472      1.0  0.50274  0.02306  0.54001  1.0000
  H   H542      1.0  0.82643  0.17156  0.63198  1.0000
  H   H543      1.0  0.94260  0.45913  0.59811  1.0000
  H   H544      1.0  0.52294  0.49050  0.36900  1.0000
  C   C473      1.0  0.95706  0.27105  0.60081  1.0000
  C   C474      1.0  0.98544  0.37284  0.54509  1.0000
  Fe  Fe64      1.0  0.64154  0.01560  0.37736  1.0000
  C   C475      1.0  0.96848  0.44042  0.50472  1.0000
  C   C476      1.0  0.52202  0.01012  0.52828  1.0000
  H   H545      1.0  0.50848  0.06693  0.56218  1.0000
  C   C477      1.0  0.99256  0.39694  0.31731  1.0000
  C   C478      1.0  0.98988  0.37538  0.57263  1.0000
  C   C479      1.0  0.51296  0.00225  0.40158  1.0000
  C   C480      1.0  0.69642  0.00755  0.48572  1.0000
  H   H546      1.0  0.70217  0.00914  0.44433  1.0000
  H   H547      1.0  0.64940  0.49436  0.53544  1.0000
  C   C481      1.0  0.71764  0.48780  0.48525  1.0000
  S   S130      1.0  0.67010  0.00105  0.34913  1.0000
  C   C482      1.0  0.93933  0.26548  0.64591  1.0000
  H   H548      1.0  0.68462  0.00092  0.52715  1.0000
  H   H549      1.0  0.61415  0.99779  0.44644  1.0000
  H   H550      1.0  0.60904  0.11382  0.67534  1.0000
  S   S131      1.0  0.93605  0.38307  0.70710  1.0000
  C   C483      1.0  0.62683  0.08819  0.71559  1.0000
  H   H551      1.0  0.49464  0.08959  0.69713  1.0000
  Fe  Fe65      1.0  0.95768  0.41970  0.67319  1.0000
  S   S132      1.0  0.95174  0.46569  0.66960  1.0000
  Fe  Fe66      1.0  0.92336  0.34290  0.67586  1.0000
  S   S133      1.0  0.87627  0.29028  0.67844  1.0000
  S   S134      1.0  0.97336  0.34522  0.68067  1.0000
  S   S135      1.0  0.61476  0.03477  0.84227  1.0000
  H   H552      1.0  0.81923  0.22444  0.68635  1.0000
  C   C484      1.0  0.49374  0.08187  0.89912  1.0000
  S   S136      1.0  0.63807  0.04615  0.91170  1.0000
  C   C485      1.0  0.56553  0.02251  0.73306  1.0000
  S   S137      1.0  0.67861  0.05607  0.78808  1.0000
  H   H553      1.0  0.53630  0.08138  0.88427  1.0000
  C   C486      1.0  0.67395  0.04852  0.75371  1.0000
  C   C487      1.0  0.65101  0.01688  0.74361  1.0000
  C   C488      1.0  0.79054  0.20936  0.65014  1.0000
  C   C489      1.0  0.66694  0.03799  0.69857  1.0000
  C   C490      1.0  0.68974  0.06972  0.70862  1.0000
  C   C491      1.0  0.69344  0.07487  0.73613  1.0000
  H   H554      1.0  0.70486  0.09013  0.69522  1.0000
  H   H555      1.0  0.71138  0.09938  0.74379  1.0000
  C   C492      1.0  0.64352  0.04254  0.94605  1.0000
  C   C493      1.0  0.64998  0.06971  0.96272  1.0000
  S   S138      1.0  0.66166  0.02996  0.66432  1.0000
  C   C494      1.0  0.64155  0.01370  0.95709  1.0000
  H   H556      1.0  0.65161  0.09219  0.95439  1.0000
  C   C495      1.0  0.99196  0.46487  0.74177  1.0000
  C   C496      1.0  0.53970  0.07697  0.82071  1.0000
  C   C497      1.0  0.54299  0.04806  0.82064  1.0000
  H   H557      1.0  0.51483  0.48685  0.90211  1.0000
  H   H558      1.0  0.97214  0.46119  0.75614  1.0000
  H   H559      1.0  0.56076  0.10101  0.81518  1.0000
  H   H560      1.0  0.56653  0.04994  0.81501  1.0000
  C   C498      1.0  0.50922  0.07491  0.82780  1.0000
  C   C499      1.0  0.81747  0.23184  0.66640  1.0000
  H   H561      1.0  0.52498  0.00831  0.95183  1.0000
  H   H562      1.0  0.56485  0.08957  0.68049  1.0000
  N   N33       1.0  0.71599  0.11950  0.86782  1.0000
  C   C500      1.0  0.74452  0.14483  0.85187  1.0000
  C   C501      1.0  0.72655  0.12490  0.89597  1.0000
  C   C502      1.0  0.70944  0.08553  0.86030  1.0000
  C   C503      1.0  0.68570  0.12219  0.86258  1.0000
  C   C504      1.0  0.67341  0.11921  0.83641  1.0000
  C   C505      1.0  0.66760  0.12773  0.88288  1.0000
  C   C506      1.0  0.64519  0.12213  0.83087  1.0000
  C   C507      1.0  0.63954  0.13086  0.87708  1.0000
  C   C508      1.0  0.62840  0.12814  0.85115  1.0000
  H   H563      1.0  0.74888  0.17063  0.85564  1.0000
  H   H564      1.0  0.76821  0.14482  0.85638  1.0000
  H   H565      1.0  0.74034  0.13996  0.83028  1.0000
  H   H566      1.0  0.73228  0.15024  0.90295  1.0000
  H   H567      1.0  0.74956  0.12313  0.89920  1.0000
  H   H568      1.0  0.70692  0.10538  0.90897  1.0000
  H   H569      1.0  0.70368  0.08024  0.83896  1.0000
  H   H570      1.0  0.73135  0.08214  0.86436  1.0000
  H   H571      1.0  0.68773  0.06581  0.87146  1.0000
  H   H572      1.0  0.68527  0.11407  0.82001  1.0000
  H   H573      1.0  0.67441  0.12943  0.90345  1.0000
  H   H574      1.0  0.63621  0.11948  0.81073  1.0000
  H   H575      1.0  0.62638  0.13546  0.89283  1.0000
  H   H576      1.0  0.60669  0.13065  0.84678  1.0000
  H   H577      1.0  0.60994  0.06547  0.66419  1.0000
  H   H578      1.0  0.88025  0.21536  0.64780  1.0000
  H   H579      1.0  0.57515  0.03000  0.89151  1.0000
  C   C509      1.0  0.84215  0.26365  0.65710  1.0000
  H   H580      1.0  0.58323  0.01464  0.72733  1.0000
  H   H581      1.0  0.55940  0.05004  0.94574  1.0000
  C   C510      1.0  0.58950  0.09974  0.69063  1.0000
  H   H582      1.0  0.56749  0.03536  0.67239  1.0000
  H   H583      1.0  0.96491  0.28581  0.65146  1.0000
  C   C511      1.0  0.56009  0.04280  0.89296  1.0000
  H   H584      1.0  0.56233  0.01388  0.93636  1.0000
  H   H585      1.0  0.92191  0.26687  0.66054  1.0000
  H   H586      1.0  0.59244  0.11899  0.70536  1.0000
  C   C512      1.0  0.54126  0.00296  0.75181  1.0000
  H   H587      1.0  0.60210  0.03319  0.68685  1.0000
  H   H588      1.0  0.54510  0.08442  0.72646  1.0000
  H   H589      1.0  0.96977  0.39264  0.77934  1.0000
  C   C513      1.0  0.64780  0.01158  0.71616  1.0000
  Fe  Fe67      1.0  0.62563  0.01032  0.87639  1.0000
  H   H590      1.0  0.57746  0.06894  0.89970  1.0000
  H   H591      1.0  0.62884  0.10589  0.73145  1.0000
  H   H592      1.0  0.49381  0.46686  0.94330  1.0000
  N   N34       1.0  0.59359  0.07243  0.70263  1.0000
  H   H593      1.0  0.64755  0.10235  0.70121  1.0000
  C   C514      1.0  0.59312  0.05060  0.68073  1.0000
  S   S139      1.0  0.50550  0.47588  0.77667  1.0000
  C   C515      1.0  0.56751  0.05211  0.72238  1.0000
  C   C516      1.0  0.54463  0.06166  0.73252  1.0000
  Fe  Fe68      1.0  0.99113  0.38409  0.64850  1.0000
  C   C517      1.0  0.52061  0.04202  0.75146  1.0000
  H   H594      1.0  0.96921  0.40142  0.82777  1.0000
  Fe  Fe69      1.0  0.98699  0.38758  0.70948  1.0000
  C   C518      1.0  0.51853  0.01243  0.76065  1.0000
  H   H595      1.0  0.93890  0.24120  0.64856  1.0000
  Fe  Fe70      1.0  0.64215  0.01678  0.81659  1.0000
  H   H596      1.0  0.63163  0.06915  0.72500  1.0000
  H   H597      1.0  0.50383  0.05003  0.75947  1.0000
  C   C519      1.0  0.51567  0.01680  0.82752  1.0000
  C   C520      1.0  0.50964  0.04032  0.91295  1.0000
  C   C521      1.0  0.99183  0.40477  0.81844  1.0000
  C   C522      1.0  0.49369  0.48404  0.89077  1.0000
  H   H598      1.0  0.55185  0.04352  0.87256  1.0000
  H   H599      1.0  0.77203  0.18498  0.65760  1.0000
  H   H600      1.0  0.51306  0.47456  0.85483  1.0000
  N   N35       1.0  0.53113  0.02478  0.91110  1.0000
  S   S140      1.0  0.50660  0.11207  0.82923  1.0000
  C   C523      1.0  0.51554  0.06891  0.89782  1.0000
  C   C524      1.0  0.99206  0.39975  0.79094  1.0000
  H   H601      1.0  0.98320  0.46570  0.72141  1.0000
  C   C525      1.0  0.54488  0.02417  0.93747  1.0000
  H   H602      1.0  0.51593  0.13163  0.73242  1.0000
  H   H603      1.0  0.49827  0.10320  0.88692  1.0000
  C   C526      1.0  0.49366  0.10742  0.73570  1.0000
  H   H604      1.0  0.49988  0.99729  0.77530  1.0000
  H   H605      1.0  0.63620  0.99636  0.75692  1.0000
  H   H606      1.0  0.71549  0.81133  0.29133  1.0000
  Fe  Fe71      1.0  0.61417  0.74227  0.27076  1.0000
  S   S141      1.0  0.66163  0.74006  0.26360  1.0000
  S   S142      1.0  0.61824  0.79436  0.26842  1.0000
  Fe  Fe72      1.0  0.57245  0.66554  0.27672  1.0000
  S   S143      1.0  0.61714  0.65946  0.27092  1.0000
  S   S144      1.0  0.52135  0.61980  0.28430  1.0000
  Fe  Fe73      1.0  0.64357  0.70376  0.29770  1.0000
  Fe  Fe74      1.0  0.63043  0.69562  0.23705  1.0000
  S   S145      1.0  0.64529  0.67455  0.20166  1.0000
  N   N36       1.0  0.96516  0.59090  0.25619  1.0000
  S   S146      1.0  0.58401  0.69991  0.24172  1.0000
  H   H607      1.0  0.67296  0.76635  0.06399  1.0000
  Fe  Fe75      1.0  0.67707  0.67508  0.04511  1.0000
  S   S147      1.0  0.67809  0.62662  0.04417  1.0000
  S   S148      1.0  0.66585  0.70277  0.07751  1.0000
  Fe  Fe76      1.0  0.71847  0.65113  0.01269  1.0000
  S   S149      1.0  0.76543  0.64592  0.01776  1.0000
  Fe  Fe77      1.0  0.64167  0.61200  0.01039  1.0000
  S   S150      1.0  0.59403  0.56143  0.00838  1.0000
  S   S151      1.0  0.71969  0.70092  0.01609  1.0000
  S   S152      1.0  0.63808  0.65843  0.01346  1.0000
  C   C527      1.0  0.55434  0.55868  0.00825  1.0000
  C   C528      1.0  0.52588  0.52768  0.01387  1.0000
  C   C529      1.0  0.67619  0.80116  0.00277  1.0000
  C   C530      1.0  0.51827  0.58292  0.00206  1.0000
  C   C531      1.0  0.55043  0.58634  0.00229  1.0000
  H   H608      1.0  0.59538  0.64015  0.11924  1.0000
  H   H609      1.0  0.57872  0.59808  0.13053  1.0000
  C   C532      1.0  0.51559  0.57893  0.28043  1.0000
  H   H610      1.0  0.55960  0.97054  0.26811  1.0000
  Fe  Fe78      1.0  0.68019  0.68026  0.98435  1.0000
  C   C533      1.0  0.53705  0.54037  0.27457  1.0000
  C   C534      1.0  0.54259  0.57327  0.27725  1.0000
  H   H611      1.0  0.60016  0.58234  0.09258  1.0000
  H   H612      1.0  0.57104  0.56314  0.18185  1.0000
  H   H613      1.0  0.56783  0.59406  0.27700  1.0000
  C   C535      1.0  0.65088  0.68308  0.16722  1.0000
  C   C536      1.0  0.64563  0.70756  0.15526  1.0000
  C   C537      1.0  0.65056  0.71335  0.12782  1.0000
  C   C538      1.0  0.66071  0.69476  0.11202  1.0000
  C   C539      1.0  0.66567  0.67007  0.12391  1.0000
  C   C540      1.0  0.66073  0.66428  0.15134  1.0000
  H   H614      1.0  0.63805  0.72219  0.16719  1.0000
  H   H615      1.0  0.64660  0.73249  0.11885  1.0000
  H   H616      1.0  0.67364  0.65567  0.11209  1.0000
  H   H617      1.0  0.66501  0.64539  0.16042  1.0000
  C   C541      1.0  0.61804  0.82338  0.29196  1.0000
  C   C542      1.0  0.62443  0.85520  0.28320  1.0000
  C   C543      1.0  0.53246  0.54126  0.10230  1.0000
  H   H618      1.0  0.62908  0.86136  0.26244  1.0000
  H   H619      1.0  0.86034  0.73224  0.98520  1.0000
  C   C544      1.0  0.62473  0.87915  0.30096  1.0000
  H   H620      1.0  0.98571  0.51258  0.09043  1.0000
  H   H621      1.0  0.64518  0.98994  0.99277  1.0000
  H   H622      1.0  0.82326  0.72131  0.02362  1.0000
  C   C545      1.0  0.93706  0.56324  0.24148  1.0000
  H   H623      1.0  0.51526  0.51365  0.17680  1.0000
  H   H624      1.0  0.67582  0.83765  0.03078  1.0000
  C   C546      1.0  0.56535  0.62907  0.07387  1.0000
  H   H625      1.0  0.81917  0.63189  0.02535  1.0000
  H   H626      1.0  0.93103  0.69481  0.07202  1.0000
  H   H627      1.0  0.94500  0.62420  0.25116  1.0000
  H   H628      1.0  0.95157  0.74027  0.07443  1.0000
  S   S153      1.0  0.59777  0.70781  0.30612  1.0000
  H   H629      1.0  0.52961  0.61377  0.22538  1.0000
  C   C547      1.0  0.51732  0.53501  0.18743  1.0000
  H   H630      1.0  0.55156  0.61545  0.12648  1.0000
  H   H631      1.0  0.61855  0.62360  0.07930  1.0000
  C   C548      1.0  0.57323  0.61443  0.11772  1.0000
  N   N37       1.0  0.93985  0.72087  0.03465  1.0000
  C   C549      1.0  0.96840  0.75111  0.02254  1.0000
  C   C550      1.0  0.94930  0.71892  0.06241  1.0000
  H   H632      1.0  0.83926  0.71023  0.06732  1.0000
  C   C551      1.0  0.90854  0.72239  0.03232  1.0000
  C   C552      1.0  0.88647  0.71605  0.05400  1.0000
  H   H633      1.0  0.71867  0.77935  0.30856  1.0000
  H   H634      1.0  0.92930  0.69087  0.99926  1.0000
  H   H635      1.0  0.52864  0.50618  0.01864  1.0000
  C   C553      1.0  0.50565  0.56480  0.07543  1.0000
  H   H636      1.0  0.69904  0.84645  0.31133  1.0000
  C   C554      1.0  0.84727  0.72256  0.02618  1.0000
  H   H637      1.0  0.62964  0.90339  0.29377  1.0000
  H   H638      1.0  0.98738  0.66072  0.04105  1.0000
  H   H639      1.0  0.58972  0.58826  0.05968  1.0000
  C   C555      1.0  0.95673  0.60850  0.30211  1.0000
  C   C556      1.0  0.67404  0.78567  0.05003  1.0000
  H   H640      1.0  0.93499  0.53840  0.24528  1.0000
  H   H641      1.0  0.91270  0.56121  0.24704  1.0000
  H   H642      1.0  0.50491  0.58456  0.06438  1.0000
  H   H643      1.0  0.51542  0.60433  0.99719  1.0000
  C   C557      1.0  0.67811  0.85426  0.99151  1.0000
  C   C558      1.0  0.67661  0.83125  0.01039  1.0000
  H   H644      1.0  0.69720  0.80956  0.05511  1.0000
  C   C559      1.0  0.93542  0.69068  0.02051  1.0000
  C   C560      1.0  0.95930  0.58526  0.28500  1.0000
  H   H645      1.0  0.70416  0.75382  0.03391  1.0000
  H   H646      1.0  0.98984  0.64509  0.25644  1.0000
  C   C561      1.0  0.54930  0.56326  0.18998  1.0000
  H   H647      1.0  0.97114  0.53464  0.19644  1.0000
  H   H648      1.0  0.57201  0.61020  0.99735  1.0000
  C   C562      1.0  0.84817  0.64481  0.98930  1.0000
  H   H649      1.0  0.96594  0.75202  0.00078  1.0000
  C   C563      1.0  0.79756  0.64936  0.99592  1.0000
  H   H650      1.0  0.58968  0.65323  0.07466  1.0000
  C   C564      1.0  0.96816  0.62307  0.24701  1.0000
  C   C565      1.0  0.64343  0.74336  0.01745  1.0000
  S   S154      1.0  0.60373  0.96978  0.30990  1.0000
  H   H651      1.0  0.62075  0.74606  0.01864  1.0000
  C   C566      1.0  0.59480  0.59892  0.08002  1.0000
  C   C567      1.0  0.53486  0.56961  0.08893  1.0000
  H   H652      1.0  0.56060  0.62170  0.05267  1.0000
  H   H653      1.0  0.57849  0.61329  0.20589  1.0000
  N   N38       1.0  0.67440  0.77601  0.02206  1.0000
  N   N39       1.0  0.56636  0.60249  0.08997  1.0000
  H   H654      1.0  0.99265  0.75157  0.02563  1.0000
  H   H655      1.0  0.55821  0.53639  0.27232  1.0000
  C   C568      1.0  0.52599  0.59180  0.21448  1.0000
  H   H656      1.0  0.97091  0.77458  0.03113  1.0000
  C   C569      1.0  0.85631  0.71614  0.05080  1.0000
  C   C570      1.0  0.50299  0.50996  0.10169  1.0000
  H   H657      1.0  0.54586  0.63472  0.08112  1.0000
  C   C571      1.0  0.89824  0.72835  0.00742  1.0000
  H   H658      1.0  0.55300  0.97015  0.23342  1.0000
  H   H659      1.0  0.55356  0.54308  0.11309  1.0000
  H   H660      1.0  0.72771  0.79550  0.02035  1.0000
  H   H661      1.0  0.94025  0.56728  0.21972  1.0000
  C   C572      1.0  0.82139  0.64111  0.00537  1.0000
  C   C573      1.0  0.86823  0.72875  0.00455  1.0000
  C   C574      1.0  0.70379  0.77121  0.01870  1.0000
  C   C575      1.0  0.55362  0.59157  0.20354  1.0000
  H   H662      1.0  0.53404  0.97581  0.05425  1.0000
  C   C576      1.0  0.56869  0.98631  0.24994  1.0000
  H   H663      1.0  0.64331  0.73255  0.99775  1.0000
  H   H664      1.0  0.51454  0.99327  0.24119  1.0000
  H   H665      1.0  0.95861  0.68885  0.02128  1.0000
  H   H666      1.0  0.98113  0.65426  0.08991  1.0000
  C   C577      1.0  0.72228  0.80516  0.31086  1.0000
  H   H667      1.0  0.70382  0.75994  0.99925  1.0000
  H   H668      1.0  0.91464  0.66724  0.02924  1.0000
  H   H669      1.0  0.91257  0.73135  0.98970  1.0000
  H   H670      1.0  0.89150  0.71020  0.07351  1.0000
  H   H671      1.0  0.64064  0.72412  0.03223  1.0000
  H   H672      1.0  0.95945  0.63204  0.29526  1.0000
  H   H673      1.0  0.65166  0.78813  0.05441  1.0000
  H   H674      1.0  0.65556  0.98807  0.20740  1.0000
  H   H675      1.0  0.97265  0.62668  0.22532  1.0000
  H   H676      1.0  0.86596  0.63805  0.99688  1.0000
  H   H677      1.0  0.59507  0.99228  0.24690  1.0000
  C   C578      1.0  0.95633  0.55580  0.29683  1.0000
  C   C579      1.0  0.50445  0.51272  0.27498  1.0000
  H   H678      1.0  0.65772  0.78521  0.30730  1.0000
  S   S155      1.0  0.94950  0.63728  0.98101  1.0000
  H   H679      1.0  0.97396  0.71996  0.06366  1.0000
  H   H680      1.0  0.95817  0.53710  0.28510  1.0000
  H   H681      1.0  0.54464  0.98591  0.00497  1.0000
  H   H682      1.0  0.52152  0.99007  0.27580  1.0000
  C   C580      1.0  0.49393  0.56360  0.21230  1.0000
  H   H683      1.0  0.51349  0.99391  0.13465  1.0000
  H   H684      1.0  0.67844  0.87707  0.99770  1.0000
  C   C581      1.0  0.49382  0.52431  0.01370  1.0000
  H   H685      1.0  0.49489  0.99251  0.06001  1.0000
  Fe  Fe79      1.0  0.95866  0.60281  0.44139  1.0000
  S   S156      1.0  0.95635  0.55225  0.44161  1.0000
  Fe  Fe80      1.0  0.91685  0.63853  0.44508  1.0000
  C   C582      1.0  0.95664  0.74386  0.48644  1.0000
  S   S157      1.0  0.86543  0.63590  0.44444  1.0000
  H   H686      1.0  0.51850  0.57653  0.42902  1.0000
  H   H687      1.0  0.95723  0.65269  0.58035  1.0000
  H   H688      1.0  0.52793  0.62111  0.34697  1.0000
  S   S158      1.0  0.93002  0.61488  0.41136  1.0000
  S   S159      1.0  0.94086  0.62131  0.47563  1.0000
  H   H689      1.0  0.96565  0.65712  0.53185  1.0000
  Fe  Fe81      1.0  0.62161  0.95176  0.34448  1.0000
  H   H690      1.0  0.70217  0.54166  0.55470  1.0000
  S   S160      1.0  0.61985  0.90131  0.35144  1.0000
  S   S161      1.0  0.59408  0.96570  0.37464  1.0000
  S   S162      1.0  0.67909  0.70280  0.32832  1.0000
  S   S163      1.0  0.67683  0.63500  0.47824  1.0000
  S   S164      1.0  0.66095  0.70892  0.45200  1.0000
  C   C583      1.0  0.67130  0.70132  0.36262  1.0000
  C   C584      1.0  0.64777  0.70910  0.37291  1.0000
  C   C585      1.0  0.64440  0.71062  0.40038  1.0000
  C   C586      1.0  0.66369  0.70335  0.41778  1.0000
  C   C587      1.0  0.68598  0.69388  0.40754  1.0000
  C   C588      1.0  0.69006  0.69331  0.38003  1.0000
  H   H691      1.0  0.63268  0.71466  0.35980  1.0000
  H   H692      1.0  0.62712  0.71799  0.40817  1.0000
  H   H693      1.0  0.70114  0.68846  0.42078  1.0000
  H   H694      1.0  0.70825  0.68718  0.37219  1.0000
  H   H695      1.0  0.91394  0.66874  0.51780  1.0000
  H   H696      1.0  0.90868  0.74708  0.51619  1.0000
  C   C589      1.0  0.73275  0.78746  0.36274  1.0000
  H   H697      1.0  0.60766  0.83367  0.35744  1.0000
  H   H698      1.0  0.88564  0.70264  0.52282  1.0000
  S   S165      1.0  0.96337  0.68874  0.43888  1.0000
  C   C590      1.0  0.61930  0.92804  0.42625  1.0000
  C   C591      1.0  0.83717  0.64091  0.46565  1.0000
  C   C592      1.0  0.78813  0.64858  0.47014  1.0000
  C   C593      1.0  0.81154  0.64511  0.45430  1.0000
  H   H699      1.0  0.76858  0.65165  0.46099  1.0000
  H   H700      1.0  0.80974  0.64566  0.43301  1.0000
  C   C594      1.0  0.94874  0.57329  0.34019  1.0000
  H   H701      1.0  0.68807  0.79716  0.42421  1.0000
  Fe  Fe82      1.0  0.67274  0.68144  0.48380  1.0000
  Fe  Fe83      1.0  0.66880  0.67490  0.54484  1.0000
  S   S166      1.0  0.67234  0.62779  0.54332  1.0000
  S   S167      1.0  0.65463  0.69759  0.57942  1.0000
  Fe  Fe84      1.0  0.71299  0.65462  0.51255  1.0000
  S   S168      1.0  0.76013  0.65004  0.51888  1.0000
  Fe  Fe85      1.0  0.63635  0.61224  0.50923  1.0000
  S   S169      1.0  0.59241  0.55918  0.50433  1.0000
  S   S170      1.0  0.71156  0.70319  0.51622  1.0000
  S   S171      1.0  0.63024  0.65725  0.51253  1.0000
  C   C595      1.0  0.55084  0.55228  0.50476  1.0000
  C   C596      1.0  0.52374  0.51949  0.50168  1.0000
  H   H702      1.0  0.76683  0.50602  0.46859  1.0000
  C   C597      1.0  0.51136  0.57309  0.50426  1.0000
  C   C598      1.0  0.54436  0.57897  0.50657  1.0000
  C   C599      1.0  0.97905  0.58102  0.51808  1.0000
  H   H703      1.0  0.56469  0.60426  0.50928  1.0000
  C   C600      1.0  0.95386  0.73144  0.53439  1.0000
  C   C601      1.0  0.63679  0.70071  0.63077  1.0000
  C   C602      1.0  0.65659  0.69298  0.61418  1.0000
  C   C603      1.0  0.67936  0.68497  0.62569  1.0000
  H   H704      1.0  0.61918  0.70703  0.62206  1.0000
  H   H705      1.0  0.69497  0.67927  0.61323  1.0000
  C   C604      1.0  0.83876  0.63976  0.49321  1.0000
  C   C605      1.0  0.81548  0.64339  0.50906  1.0000
  C   C606      1.0  0.79002  0.64787  0.49768  1.0000
  H   H706      1.0  0.85728  0.63513  0.50230  1.0000
  H   H707      1.0  0.81678  0.64206  0.53033  1.0000
  H   H708      1.0  0.63256  0.52158  0.53013  1.0000
  C   C607      1.0  0.69454  0.80350  0.38195  1.0000
  H   H709      1.0  0.70350  0.58869  0.49535  1.0000
  H   H710      1.0  0.91481  0.67801  0.48333  1.0000
  C   C608      1.0  0.64880  0.93956  0.48050  1.0000
  C   C609      1.0  0.69771  0.55812  0.54115  1.0000
  H   H711      1.0  0.66664  0.95136  0.38948  1.0000
  N   N40       1.0  0.70118  0.80660  0.33249  1.0000
  N   N41       1.0  0.93649  0.72162  0.50855  1.0000
  C   C610      1.0  0.68987  0.78710  0.62170  1.0000
  H   H712      1.0  0.65673  0.90100  0.41039  1.0000
  H   H713      1.0  0.61279  0.94830  0.42781  1.0000
  C   C611      1.0  0.98190  0.66925  0.57233  1.0000
  H   H714      1.0  0.51592  0.54270  0.36124  1.0000
  H   H715      1.0  0.64302  0.94053  0.52277  1.0000
  C   C612      1.0  0.93645  0.71553  0.55799  1.0000
  C   C613      1.0  0.96703  0.55834  0.53905  1.0000
  H   H716      1.0  0.50556  0.52771  0.32827  1.0000
  H   H717      1.0  0.63010  0.91322  0.47951  1.0000
  H   H718      1.0  0.50541  0.98505  0.62276  1.0000
  H   H719      1.0  0.89198  0.71672  0.48980  1.0000
  H   H720      1.0  0.96423  0.77057  0.49045  1.0000
  H   H721      1.0  0.60323  0.90793  0.44041  1.0000
  N   N42       1.0  0.68315  0.54092  0.51572  1.0000
  C   C614      1.0  0.98655  0.74722  0.58423  1.0000
  H   H722      1.0  0.68540  0.84209  0.34440  1.0000
  C   C615      1.0  0.70570  0.53050  0.50330  1.0000
  H   H723      1.0  0.66897  0.98580  0.40776  1.0000
  C   C616      1.0  0.70405  0.84033  0.33156  1.0000
  H   H724      1.0  0.52834  0.49860  0.50034  1.0000
  C   C617      1.0  0.66606  0.78094  0.32683  1.0000
  H   H725      1.0  0.50678  0.59403  0.50518  1.0000
  C   C618      1.0  0.98397  0.56664  0.56325  1.0000
  H   H726      1.0  0.63605  0.49920  0.50274  1.0000
  C   C619      1.0  0.61261  0.83994  0.33673  1.0000
  H   H727      1.0  0.61174  0.91672  0.40616  1.0000
  C   C620      1.0  0.90447  0.72215  0.50951  1.0000
  C   C621      1.0  0.95119  0.55003  0.32402  1.0000
  H   H728      1.0  0.97952  0.74200  0.48251  1.0000
  H   H729      1.0  0.60547  0.58930  0.42947  1.0000
  H   H730      1.0  0.67059  0.55351  0.47806  1.0000
  H   H731      1.0  0.68953  0.92230  0.43448  1.0000
  H   H732      1.0  0.96646  0.49663  0.51369  1.0000
  C   C622      1.0  0.71127  0.77445  0.61684  1.0000
  H   H733      1.0  0.60576  0.79117  0.32588  1.0000
  N   N43       1.0  0.57224  0.60983  0.42705  1.0000
  C   C623      1.0  0.56904  0.63657  0.44095  1.0000
  C   C624      1.0  0.54233  0.57676  0.43297  1.0000
  C   C625      1.0  0.60194  0.60954  0.43827  1.0000
  C   C626      1.0  0.57438  0.61578  0.39818  1.0000
  C   C627      1.0  0.54750  0.61600  0.38452  1.0000
  C   C628      1.0  0.60233  0.62076  0.38274  1.0000
  C   C629      1.0  0.54843  0.62057  0.35714  1.0000
  C   C630      1.0  0.60289  0.62516  0.35537  1.0000
  C   C631      1.0  0.57604  0.62503  0.34263  1.0000
  H   H734      1.0  0.54580  0.63686  0.43559  1.0000
  H   H735      1.0  0.56850  0.63346  0.46282  1.0000
  H   H736      1.0  0.59067  0.66190  0.43636  1.0000
  H   H737      1.0  0.96597  0.57453  0.49927  1.0000
  C   C632      1.0  0.65611  0.95486  0.50538  1.0000
  H   H738      1.0  0.67599  0.81131  0.38057  1.0000
  C   C633      1.0  0.71025  0.79992  0.35898  1.0000
  H   H739      1.0  0.94916  0.52749  0.33272  1.0000
  H   H740      1.0  0.54620  0.98228  0.40442  1.0000
  C   C634      1.0  0.61888  0.87172  0.32791  1.0000
  H   H741      1.0  0.62445  0.62208  0.39132  1.0000
  S   S172      1.0  0.52976  0.98359  0.33331  1.0000
  H   H742      1.0  0.62477  0.62969  0.34397  1.0000
  C   C635      1.0  0.61185  0.81582  0.31889  1.0000
  C   C636      1.0  0.98865  0.75513  0.53683  1.0000
  H   H743      1.0  0.78567  0.56570  0.47830  1.0000
  C   C637      1.0  0.66263  0.91332  0.43022  1.0000
  H   H744      1.0  0.91044  0.69602  0.55763  1.0000
  H   H745      1.0  0.94423  0.53439  0.53654  1.0000
  H   H746      1.0  0.95258  0.68616  0.49997  1.0000
  H   H747      1.0  0.93915  0.71035  0.60017  1.0000
  C   C638      1.0  0.76056  0.54625  0.48382  1.0000
  H   H748      1.0  0.68099  0.56558  0.55142  1.0000
  H   H749      1.0  0.59944  0.60497  0.45999  1.0000
  C   C639      1.0  0.67976  0.98882  0.50796  1.0000
  C   C640      1.0  0.72360  0.78362  0.41001  1.0000
  C   C641      1.0  0.95263  0.72347  0.58249  1.0000
  H   H750      1.0  0.64834  0.78057  0.34187  1.0000
  H   H751      1.0  0.97120  0.50205  0.42354  1.0000
  C   C642      1.0  0.49468  0.52564  0.34825  1.0000
  C   C643      1.0  0.67954  0.56464  0.49798  1.0000
  H   H752      1.0  0.62524  0.63422  0.43546  1.0000
  H   H753      1.0  0.72769  0.77617  0.42937  1.0000
  H   H754      1.0  0.67561  0.78920  0.60550  1.0000
  C   C644      1.0  0.70121  0.79546  0.40703  1.0000
  H   H755      1.0  0.74465  0.78225  0.34647  1.0000
  H   H756      1.0  0.70165  0.97498  0.41069  1.0000
  H   H757      1.0  0.71339  0.76662  0.59704  1.0000
  H   H758      1.0  0.98676  0.58181  0.61721  1.0000
  H   H759      1.0  0.64741  0.89327  0.44473  1.0000
  C   C645      1.0  0.66480  0.95808  0.45731  1.0000
  C   C646      1.0  0.67412  0.96454  0.40890  1.0000
  H   H760      1.0  0.54129  0.56986  0.45408  1.0000
  C   C647      1.0  0.72842  0.77001  0.63766  1.0000
  Fe  Fe86      1.0  0.58068  0.98805  0.34029  1.0000
  H   H761      1.0  0.75569  0.76913  0.39026  1.0000
  H   H762      1.0  0.66326  0.75547  0.32653  1.0000
  C   C648      1.0  0.95134  0.60232  0.32923  1.0000
  H   H763      1.0  0.66121  0.57150  0.50595  1.0000
  C   C649      1.0  0.68911  0.99265  0.46070  1.0000
  H   H764      1.0  0.57685  0.62895  0.32147  1.0000
  H   H765      1.0  0.72955  0.86030  0.33759  1.0000
  C   C650      1.0  0.92902  0.68710  0.50217  1.0000
  H   H766      1.0  0.94506  0.56901  0.36132  1.0000
  H   H767      1.0  0.54250  0.55629  0.42129  1.0000
  H   H768      1.0  0.52568  0.61292  0.39499  1.0000
  C   C651      1.0  0.73933  0.77966  0.38794  1.0000
  C   C652      1.0  0.99159  0.50043  0.50877  1.0000
  H   H769      1.0  0.74381  0.75867  0.63389  1.0000
  N   N44       1.0  0.65559  0.94155  0.43109  1.0000
  H   H770      1.0  0.94235  0.73663  0.46750  1.0000
  H   H771      1.0  0.72208  0.58174  0.53848  1.0000
  H   H772      1.0  0.94989  0.62063  0.34198  1.0000
  C   C653      1.0  0.64889  0.51258  0.52121  1.0000
  C   C654      1.0  0.74995  0.51269  0.47831  1.0000
  H   H773      1.0  0.97359  0.54840  0.57905  1.0000
  H   H774      1.0  0.51014  0.98623  0.51813  1.0000
  Fe  Fe87      1.0  0.98800  0.67019  0.46754  1.0000
  H   H775      1.0  0.74825  0.58132  0.50015  1.0000
  C   C655      1.0  0.98653  0.67203  0.54478  1.0000
  H   H776      1.0  0.74933  0.82320  0.31429  1.0000
  Fe  Fe88      1.0  0.97781  0.66422  0.40670  1.0000
  C   C656      1.0  0.73889  0.55502  0.49624  1.0000
  H   H777      1.0  0.60586  0.99457  0.49508  1.0000
  S   S173      1.0  0.99201  0.69082  0.36638  1.0000
  C   C657      1.0  0.69567  0.49640  0.49757  1.0000
  Fe  Fe89      1.0  0.96861  0.61691  0.94892  1.0000
  S   S174      1.0  0.96309  0.56517  0.94780  1.0000
  Fe  Fe90      1.0  0.93208  0.65763  0.94771  1.0000
  H   H778      1.0  0.98930  0.58848  0.89629  1.0000
  S   S175      1.0  0.88571  0.66371  0.94251  1.0000
  H   H779      1.0  0.96189  0.70007  0.88089  1.0000
  H   H780      1.0  0.73088  0.85300  0.69060  1.0000
  H   H781      1.0  0.62471  0.70715  0.67085  1.0000
  S   S176      1.0  0.94633  0.63237  0.91587  1.0000
  H   H782      1.0  0.60409  0.64983  0.93685  1.0000
  C   C658      1.0  0.70294  0.79155  0.66911  1.0000
  Fe  Fe91      1.0  0.60883  0.94775  0.84195  1.0000
  H   H783      1.0  0.96832  0.63650  0.79881  1.0000
  S   S177      1.0  0.59840  0.89326  0.84396  1.0000
  S   S178      1.0  0.57842  0.96093  0.86983  1.0000
  S   S179      1.0  0.59590  0.96825  0.80609  1.0000
  Fe  Fe92      1.0  0.62426  0.74730  0.77372  1.0000
  S   S180      1.0  0.67123  0.74350  0.77023  1.0000
  S   S181      1.0  0.63331  0.80132  0.77014  1.0000
  Fe  Fe93      1.0  0.58009  0.67026  0.77351  1.0000
  S   S182      1.0  0.62406  0.66250  0.76982  1.0000
  S   S183      1.0  0.52791  0.62465  0.77776  1.0000
  Fe  Fe94      1.0  0.64762  0.70263  0.80062  1.0000
  S   S184      1.0  0.67501  0.68947  0.83128  1.0000
  Fe  Fe95      1.0  0.64346  0.70358  0.73951  1.0000
  S   S185      1.0  0.67240  0.69889  0.70449  1.0000
  S   S186      1.0  0.60241  0.70856  0.80636  1.0000
  S   S187      1.0  0.59763  0.70925  0.74105  1.0000
  H   H784      1.0  0.54908  0.54592  0.84984  1.0000
  S   S188      1.0  0.67247  0.71254  0.95460  1.0000
  C   C659      1.0  0.52173  0.58333  0.77661  1.0000
  H   H785      1.0  0.93110  0.70115  0.90164  1.0000
  C   C660      1.0  0.52796  0.88981  0.79460  1.0000
  C   C661      1.0  0.54214  0.54412  0.76954  1.0000
  C   C662      1.0  0.54746  0.57710  0.76931  1.0000
  H   H786      1.0  0.63355  0.61995  0.84341  1.0000
  H   H787      1.0  0.56234  0.53970  0.76395  1.0000
  H   H788      1.0  0.57145  0.59754  0.76327  1.0000
  C   C663      1.0  0.66382  0.69439  0.66997  1.0000
  C   C664      1.0  0.67920  0.84809  0.96468  1.0000
  H   H789      1.0  0.89863  0.72330  0.85881  1.0000
  H   H790      1.0  0.89251  0.64552  0.88845  1.0000
  C   C665      1.0  0.67273  0.69516  0.86550  1.0000
  C   C666      1.0  0.66032  0.71526  0.87545  1.0000
  C   C667      1.0  0.66029  0.72031  0.90286  1.0000
  C   C668      1.0  0.67209  0.70485  0.92044  1.0000
  C   C669      1.0  0.68359  0.68400  0.91051  1.0000
  C   C670      1.0  0.68413  0.67939  0.88311  1.0000
  H   H791      1.0  0.65159  0.72758  0.86202  1.0000
  H   H792      1.0  0.65133  0.73645  0.91044  1.0000
  H   H793      1.0  0.69271  0.67197  0.92387  1.0000
  H   H794      1.0  0.69374  0.66380  0.87551  1.0000
  C   C671      1.0  0.61153  0.86895  0.82504  1.0000
  C   C672      1.0  0.59653  0.83417  0.82996  1.0000
  C   C673      1.0  0.60372  0.81324  0.81401  1.0000
  C   C674      1.0  0.62593  0.82682  0.79273  1.0000
  C   C675      1.0  0.64144  0.86171  0.78814  1.0000
  C   C676      1.0  0.63467  0.88270  0.80436  1.0000
  H   H795      1.0  0.57873  0.82317  0.84597  1.0000
  H   H796      1.0  0.59152  0.78650  0.81785  1.0000
  H   H797      1.0  0.65887  0.87261  0.77189  1.0000
  H   H798      1.0  0.64698  0.90945  0.80057  1.0000
  H   H799      1.0  0.67705  0.77353  0.96795  1.0000
  H   H800      1.0  0.54051  0.98073  0.76002  1.0000
  H   H801      1.0  0.95289  0.73418  0.87844  1.0000
  H   H802      1.0  0.70204  0.84274  0.71779  1.0000
  C   C677      1.0  0.80086  0.66128  0.97001  1.0000
  C   C678      1.0  0.72429  0.77816  0.66348  1.0000
  C   C679      1.0  0.85172  0.65716  0.96353  1.0000
  H   H803      1.0  0.49884  0.98914  0.88207  1.0000
  C   C680      1.0  0.82777  0.66519  0.95400  1.0000
  C   C681      1.0  0.70483  0.83541  0.69733  1.0000
  H   H804      1.0  0.83006  0.67464  0.93410  1.0000
  C   C682      1.0  0.90697  0.67607  0.81230  1.0000
  C   C683      1.0  0.60853  0.59858  0.83779  1.0000
  N   N45       1.0  0.58137  0.59999  0.85252  1.0000
  C   C684      1.0  0.54891  0.56965  0.84603  1.0000
  C   C685      1.0  0.57978  0.62971  0.84273  1.0000
  C   C686      1.0  0.58779  0.60091  0.88128  1.0000
  C   C687      1.0  0.59319  0.62835  0.89770  1.0000
  C   C688      1.0  0.58918  0.57382  0.89368  1.0000
  C   C689      1.0  0.59921  0.62828  0.92479  1.0000
  C   C690      1.0  0.59539  0.57414  0.92077  1.0000
  C   C691      1.0  0.60032  0.60128  0.93628  1.0000
  H   H805      1.0  0.54262  0.56899  0.82476  1.0000
  H   H806      1.0  0.52800  0.56904  0.85754  1.0000
  H   H807      1.0  0.55942  0.63213  0.85248  1.0000
  H   H808      1.0  0.60403  0.65339  0.84568  1.0000
  H   H809      1.0  0.60588  0.60016  0.81603  1.0000
  H   H810      1.0  0.58612  0.55251  0.88236  1.0000
  H   H811      1.0  0.57465  0.62808  0.82110  1.0000
  H   H812      1.0  0.50730  0.88026  0.72896  1.0000
  H   H813      1.0  0.60565  0.60168  0.95720  1.0000
  N   N46       1.0  0.69749  0.80003  0.69623  1.0000
  C   C692      1.0  0.54880  0.85891  0.73147  1.0000
  C   C693      1.0  0.66204  0.77764  0.70385  1.0000
  C   C694      1.0  0.71883  0.79627  0.71643  1.0000
  H   H814      1.0  0.56441  0.83087  0.77001  1.0000
  H   H815      1.0  0.56605  0.84926  0.72631  1.0000
  H   H816      1.0  0.68748  0.83974  0.68489  1.0000
  H   H817      1.0  0.63041  0.98690  0.70847  1.0000
  H   H818      1.0  0.87841  0.63469  0.85538  1.0000
  C   C695      1.0  0.58731  0.89735  0.76333  1.0000
  H   H819      1.0  0.59371  0.65059  0.89006  1.0000
  H   H820      1.0  0.63661  0.99261  0.94457  1.0000
  H   H821      1.0  0.70162  0.68086  0.66204  1.0000
  C   C696      1.0  0.54722  0.84034  0.77587  1.0000
  H   H822      1.0  0.65699  0.78273  0.72434  1.0000
  H   H823      1.0  0.65552  0.75084  0.70299  1.0000
  H   H824      1.0  0.74594  0.81223  0.71180  1.0000
  H   H825      1.0  0.71478  0.80367  0.73646  1.0000
  H   H826      1.0  0.71284  0.76961  0.71819  1.0000
  C   C697      1.0  0.50812  0.88592  0.74972  1.0000
  C   C698      1.0  0.95265  0.70285  0.78102  1.0000
  H   H827      1.0  0.59709  0.55360  0.92984  1.0000
  H   H828      1.0  0.96224  0.70548  0.76105  1.0000
  C   C699      1.0  0.50738  0.90247  0.80271  1.0000
  H   H829      1.0  0.50748  0.90946  0.82321  1.0000
  H   H830      1.0  0.52648  0.97773  0.89798  1.0000
  N   N47       1.0  0.91548  0.68725  0.86115  1.0000
  C   C700      1.0  0.90088  0.65101  0.86747  1.0000
  C   C701      1.0  0.94159  0.70658  0.88128  1.0000
  C   C702      1.0  0.88892  0.69640  0.86393  1.0000
  C   C703      1.0  0.92852  0.69371  0.83374  1.0000
  C   C704      1.0  0.96259  0.71689  0.82748  1.0000
  H   H831      1.0  0.55518  0.88030  0.71781  1.0000
  H   H832      1.0  0.59278  0.90492  0.78442  1.0000
  H   H833      1.0  0.90234  0.66613  0.77037  1.0000
  S   S189      1.0  0.65714  0.99592  0.85107  1.0000
  C   C705      1.0  0.98715  0.50662  0.66946  1.0000
  C   C706      1.0  0.49934  0.52722  0.93710  1.0000
  H   H834      1.0  0.91950  0.64264  0.86414  1.0000
  C   C707      1.0  0.99086  0.65797  0.80628  1.0000
  H   H835      1.0  0.52101  0.81914  0.77418  1.0000
  H   H836      1.0  0.97384  0.64919  0.84690  1.0000
  H   H837      1.0  0.86698  0.68101  0.85102  1.0000
  H   H838      1.0  0.87909  0.69240  0.88458  1.0000
  H   H839      1.0  0.98870  0.55421  0.83772  1.0000
  C   C708      1.0  0.68570  0.79558  0.64740  1.0000
  H   H840      1.0  0.97049  0.50824  0.93664  1.0000
  H   H841      1.0  0.52287  0.52683  0.93310  1.0000
  H   H842      1.0  0.51135  0.54001  0.69794  1.0000
  C   C709      1.0  0.52903  0.88114  0.76784  1.0000
  H   H843      1.0  0.98105  0.49755  0.83463  1.0000
  H   H844      1.0  0.95760  0.53015  0.67726  1.0000
  H   H845      1.0  0.97928  0.59040  0.86238  1.0000
  C   C710      1.0  0.64004  0.70101  0.65850  1.0000
  H   H846      1.0  0.60909  0.57501  0.84153  1.0000
  H   H847      1.0  0.66813  0.80441  0.65022  1.0000
  C   C711      1.0  0.97424  0.72132  0.80146  1.0000
  H   H848      1.0  0.64422  0.78042  0.69076  1.0000
  H   H849      1.0  0.73710  0.77248  0.67873  1.0000
  H   H850      1.0  0.96893  0.50507  0.74019  1.0000
  C   C712      1.0  0.91901  0.68048  0.78638  1.0000
  H   H851      1.0  0.78288  0.66781  0.96241  1.0000
  C   C713      1.0  0.51088  0.51688  0.77660  1.0000
  H   H852      1.0  0.50065  0.53447  0.95818  1.0000
  H   H853      1.0  0.68034  0.86597  0.95011  1.0000
  Fe  Fe96      1.0  0.56976  0.98512  0.83454  1.0000
  N   N48       1.0  0.55247  0.86952  0.75957  1.0000
  H   H854      1.0  0.88072  0.65830  0.81546  1.0000
  C   C714      1.0  0.68315  0.68601  0.65340  1.0000
  H   H855      1.0  0.60602  0.89015  0.75686  1.0000
  H   H856      1.0  0.50152  0.50758  0.66128  1.0000
  H   H857      1.0  0.55225  0.84661  0.79715  1.0000
  H   H858      1.0  0.52289  0.83823  0.72722  1.0000
  H   H859      1.0  0.59211  0.92014  0.75201  1.0000
  H   H860      1.0  0.54374  0.88775  0.80946  1.0000
  S   S190      1.0  0.68146  0.63223  0.97882  1.0000
  C   C715      1.0  0.98257  0.53422  0.67384  1.0000
  S   S191      1.0  0.51873  0.97994  0.82843  1.0000
  S   S192      1.0  0.98143  0.70594  0.94434  1.0000
  C   C716      1.0  0.67881  0.81889  0.95659  1.0000
  C   C717      1.0  0.67733  0.79577  0.97527  1.0000
  H   H861      1.0  0.49967  0.54770  0.92509  1.0000
  H   H862      1.0  0.67966  0.81404  0.93570  1.0000
  H   H863      1.0  0.96945  0.55801  0.73673  1.0000
  H   H864      1.0  0.98115  0.73119  0.84234  1.0000
  C   C718      1.0  0.99289  0.55812  0.73939  1.0000
  C   C719      1.0  0.99303  0.52774  0.74141  1.0000
  C   C720      1.0  0.51088  0.98976  0.90130  1.0000
