data_image0
_chemical_formula_structural       FeS2FeS2Fe2S3FeCSCHCHCH2NHC2HC2HC2H2C7H8CH2CH2CSC2HCH2C2HNHCSH5CHC4H2CH4NC8H2CH4NC3FeH4C2H3CH3CHCHCFeS2FeS2Fe2CS2FeHSC3HCSH2SC2HCH4CH2C6H4NC8H5CH6NH4C6H3CHC4HCH3CHCH5NHNH4SHC2HCH2CH3C2H2FeHSCH4SFeS2FeSHFeSFeS3HC2H7C6H4CHC7H4CH2NH3CH2SC3HC2H3CSH4SCSC4HCNCH4C2HNHCH2C2H2C2H5C2H3CFeHCFeHSHCH2S2FeS2FeS2FeSFeS3HCH3CH4C6H5C8H5C4H3CH3C4SH2CHCHCHNH3NC9H12CH2C2H2CH6FeHSHCH4C2SFeH2SCFeS2FeS2FeSFeS3FeS2FeS2FeCFeS3C6H4C6H4C6H7CH4SH5CH2C5HFeHSCHC3H3C4HC2H2SHC2HFeHCHCH2CH2FeNHC3HC2HCHC2H2C2H2C2H3C3HCHCHCH4CSCH6CHC3HC2H2C3H4CHNH2NCH2C2HC4HNH2CHC2H3C2HC3H4SC2FeS2FeSCFeS2FeSFeS3FeS2FeS2FeHFeS3C6H4C6H4C6H3C2FeSC2H3CH3S2CNH3C4H2SHCH2C5HNH2CFeHSCSCH2C3H3C2HNC8H10NH2SC4HC3H7C4H2CH4CH2C2HNH3CH2CHCH5C2H3C3HCHCH5FeCH3CH2C3HCHC2HC2SHC3HC2H2CHCHCHSH3C3HC2HSC2S2H2FeSHSFeS2FeS2FeSFeHS3FeSFeSC3H2C4FeHCHC6H4C5H2C3H2C8H3C2HC3NCFeH3SNCSHC2HC2HCH8C3HC2HCH3FeSHSH3C3H3CHCHC3H2CSCHC2HC3HCHSHCHFeSNC2HCH2C2HCSHCH3CH4C4SCH3CH3CNH2CH3NH2NHCSC3H2CH4CHCHC2H4C4H5CH3NH3FeSH4C2FeSNSFeS2FeS2FeSFeS4FeSFeSC2HCFeH4CH2C7H4C3HFeH2CH2CH2C6H6C7H2CH2FeHSCHNHS2CH3CH3CH7CHC2HC4H2CH3C2FeNC4HCHSH7CH4SNCHFeHC4HCHC2H2C2H2C5HSH3NH2CNHNHSC2H2CH2CHCSHC3H4C3H2CH5SHCHSCH3C2HCS2NCHFeSHCSHFeSHFeSFeHSC3S2C2H4C3FeC2FeCSHC3HCSC2H4C2H2C2HCH2SHC2H2CHNH2CH2C2HCFeCH2CH5CH2CHCHNSCHCH6NH3SH3CHC2H2C3HCSHSC2FeSHFeS2FeSHFeSFeS2HC3H2CHNH2C6H2CH3C3SH3C3H3CHCH5CHC2NC9SCSH13C2HCH5SHNH5CHCFeHCHC2H2NC2H3C3SFeS2CS2Fe2C2SCHSCFeSCHC7H4SHC2H2SCHNHC2H3SH3NCHFeCH3CHC2HCHC2HFeH4CHCFeCH4CHSCHC3HSHCH4C2H4FeS2CSHFe2S3H2SHFeSH3C6H4CHCHC2NHCHFeH3C5HCH3CH2C2H3CH4SC2HC2H2CH4CH2C3H2SH2C3H3CHNH3C2HC2
_chemical_formula_sum              "Fe96 S192 C720 H864 N48"
_cell_length_a       50.7778
_cell_length_b       50.4153
_cell_length_c       40.8543
_cell_angle_alpha    90.0102
_cell_angle_beta     90.0569
_cell_angle_gamma    120.318

_space_group_name_H-M_alt    "P 1"
_space_group_IT_number       1

loop_
  _space_group_symop_operation_xyz
  'x, y, z'

loop_
  _atom_site_type_symbol
  _atom_site_label
  _atom_site_symmetry_multiplicity
  _atom_site_fract_x
  _atom_site_fract_y
  _atom_site_fract_z
  _atom_site_occupancy
  Fe  Fe1       1.0  0.13913  0.43128  0.31411  1.0000
  S   S1        1.0  0.12264  0.45696  0.34525  1.0000
  S   S2        1.0  0.18479  0.43236  0.31788  1.0000
  Fe  Fe2       1.0  0.09232  0.41980  0.25880  1.0000
  S   S3        1.0  0.07306  0.44479  0.28564  1.0000
  S   S4        1.0  0.08209  0.40407  0.20562  1.0000
  Fe  Fe3       1.0  0.12101  0.47982  0.29883  1.0000
  Fe  Fe4       1.0  0.07560  0.41985  0.33006  1.0000
  S   S5        1.0  0.03291  0.40416  0.35981  1.0000
  S   S6        1.0  0.14050  0.45706  0.26855  1.0000
  S   S7        1.0  0.09164  0.39190  0.30223  1.0000
  Fe  Fe5       1.0  0.30619  0.41464  0.43634  1.0000
  C   C1        1.0  0.34250  0.38431  0.14726  1.0000
  S   S8        1.0  0.25643  0.40128  0.42654  1.0000
  C   C2        1.0  0.23693  0.50137  0.38206  1.0000
  H   H1        1.0  0.21944  0.40613  0.19975  1.0000
  C   C3        1.0  0.26488  0.50827  0.39595  1.0000
  H   H2        1.0  0.21276  0.36806  0.31301  1.0000
  C   C4        1.0  0.20970  0.48065  0.39733  1.0000
  H   H3        1.0  0.18808  0.47478  0.38603  1.0000
  H   H4        1.0  0.02077  0.42740  0.15789  1.0000
  N   N1        1.0  0.34241  0.34481  0.18632  1.0000
  H   H5        1.0  0.33548  0.49853  0.42532  1.0000
  C   C5        1.0  0.08437  0.47600  0.16978  1.0000
  C   C6        1.0  0.04543  0.38747  0.18703  1.0000
  H   H6        1.0  0.09587  0.48711  0.14640  1.0000
  C   C7        1.0  0.04278  0.38276  0.15294  1.0000
  C   C8        1.0  0.31267  0.49288  0.41580  1.0000
  H   H7        1.0  0.06295  0.38898  0.13855  1.0000
  C   C9        1.0  0.02995  0.39088  0.40010  1.0000
  C   C10       1.0  0.04415  0.37455  0.40987  1.0000
  H   H8        1.0  0.15496  0.42495  0.21231  1.0000
  H   H9        1.0  0.06015  0.37294  0.39370  1.0000
  C   C11       1.0  0.23808  0.47302  0.44038  1.0000
  C   C12       1.0  0.23709  0.41019  0.39582  1.0000
  C   C13       1.0  0.20593  0.40020  0.40015  1.0000
  C   C14       1.0  0.18956  0.40689  0.37680  1.0000
  C   C15       1.0  0.20418  0.42361  0.34864  1.0000
  C   C16       1.0  0.23523  0.43324  0.34405  1.0000
  C   C17       1.0  0.25162  0.42662  0.36744  1.0000
  H   H10       1.0  0.19437  0.38731  0.42188  1.0000
  H   H11       1.0  0.16567  0.39910  0.38064  1.0000
  H   H12       1.0  0.24670  0.44590  0.32219  1.0000
  H   H13       1.0  0.27536  0.43398  0.36332  1.0000
  H   H14       1.0  0.14804  0.34799  0.19906  1.0000
  H   H15       1.0  0.18897  0.44984  0.43775  1.0000
  H   H16       1.0  0.02073  0.38276  0.23148  1.0000
  H   H17       1.0  0.18254  0.43553  0.24476  1.0000
  C   C18       1.0  0.01934  0.44537  0.14519  1.0000
  H   H18       1.0  0.32813  0.32848  0.31773  1.0000
  H   H19       1.0  0.14147  0.38913  0.27218  1.0000
  C   C19       1.0  0.03571  0.35821  0.43959  1.0000
  H   H20       1.0  0.07338  0.45074  0.16610  1.0000
  H   H21       1.0  0.29952  0.46774  0.41087  1.0000
  C   C20       1.0  0.03897  0.47675  0.15332  1.0000
  S   S9        1.0  0.32276  0.38075  0.44239  1.0000
  C   C21       1.0  0.31814  0.33099  0.13043  1.0000
  C   C22       1.0  0.24018  0.38561  0.26967  1.0000
  H   H22       1.0  0.06394  0.47645  0.23080  1.0000
  C   C23       1.0  0.31131  0.33886  0.10006  1.0000
  H   H23       1.0  0.03667  0.44400  0.20860  1.0000
  H   H24       1.0  0.07784  0.50368  0.28188  1.0000
  C   C24       1.0  0.26635  0.49427  0.42555  1.0000
  C   C25       1.0  0.01348  0.35862  0.45962  1.0000
  H   H25       1.0  0.11748  0.37802  0.23704  1.0000
  N   N2        1.0  0.06211  0.48538  0.17955  1.0000
  H   H26       1.0  0.19270  0.43276  0.20346  1.0000
  C   C26       1.0  0.31998  0.36925  0.09328  1.0000
  S   S10       1.0  0.32396  0.43570  0.48595  1.0000
  H   H27       1.0  0.31088  0.30710  0.13448  1.0000
  H   H28       1.0  0.16921  0.36875  0.29043  1.0000
  H   H29       1.0  0.34254  0.41555  0.11108  1.0000
  H   H30       1.0  0.23670  0.46044  0.46230  1.0000
  H   H31       1.0  0.25969  0.38565  0.28055  1.0000
  C   C27       1.0  0.29393  0.48547  0.47065  1.0000
  H   H32       1.0  0.17256  0.38276  0.17701  1.0000
  C   C28       1.0  0.01418  0.37007  0.13718  1.0000
  C   C29       1.0  0.01397  0.48953  0.10950  1.0000
  C   C30       1.0  0.04719  0.46936  0.21044  1.0000
  C   C31       1.0  0.33517  0.39181  0.11695  1.0000
  H   H33       1.0  0.28132  0.46004  0.46721  1.0000
  H   H34       1.0  0.12750  0.35159  0.25417  1.0000
  C   C32       1.0  0.21364  0.37549  0.28787  1.0000
  H   H35       1.0  0.04552  0.34429  0.44645  1.0000
  H   H36       1.0  0.26261  0.40446  0.22389  1.0000
  H   H37       1.0  0.30092  0.33662  0.20932  1.0000
  H   H38       1.0  0.13425  0.37272  0.18529  1.0000
  N   N3        1.0  0.16390  0.38919  0.22752  1.0000
  C   C33       1.0  0.15440  0.37245  0.19588  1.0000
  C   C34       1.0  0.13643  0.37630  0.24871  1.0000
  C   C35       1.0  0.17398  0.42199  0.22166  1.0000
  C   C36       1.0  0.18943  0.38687  0.24206  1.0000
  C   C37       1.0  0.21685  0.39695  0.22418  1.0000
  C   C38       1.0  0.18856  0.37598  0.27441  1.0000
  C   C39       1.0  0.24176  0.39622  0.23784  1.0000
  C   C40       1.0  0.32561  0.01595  0.25972  1.0000
  H   H39       1.0  0.10227  0.48206  0.18883  1.0000
  H   H40       1.0  0.31563  0.37555  0.06933  1.0000
  C   C41       1.0  0.31408  0.32481  0.20483  1.0000
  H   H41       1.0  0.29894  0.30301  0.19162  1.0000
  H   H42       1.0  0.34126  0.36658  0.36266  1.0000
  H   H43       1.0  0.29980  0.32143  0.08140  1.0000
  H   H44       1.0  0.34219  0.11429  0.26347  1.0000
  N   N4        1.0  0.29628  0.50166  0.43944  1.0000
  C   C42       1.0  0.21028  0.46662  0.42647  1.0000
  C   C43       1.0  0.05548  0.49022  0.37082  1.0000
  C   C44       1.0  0.01910  0.37933  0.20525  1.0000
  Fe  Fe6       1.0  0.34381  0.40470  0.49010  1.0000
  H   H45       1.0  0.32227  0.29228  0.46526  1.0000
  H   H46       1.0  0.01164  0.50647  0.09543  1.0000
  H   H47       1.0  0.05425  0.46813  0.37009  1.0000
  H   H48       1.0  0.31674  0.50487  0.39196  1.0000
  C   C45       1.0  0.03563  0.49874  0.13468  1.0000
  C   C46       1.0  0.33459  0.35359  0.15474  1.0000
  H   H49       1.0  0.28237  0.49143  0.48998  1.0000
  H   H50       1.0  0.31919  0.31824  0.22910  1.0000
  H   H51       1.0  0.31688  0.49172  0.48043  1.0000
  C   C47       1.0  0.33542  0.31782  0.46418  1.0000
  H   H52       1.0  0.02915  0.47444  0.21795  1.0000
  H   H53       1.0  0.32635  0.32666  0.48361  1.0000
  H   H54       1.0  0.33004  0.32482  0.44047  1.0000
  C   C48       1.0  0.03020  0.49217  0.38039  1.0000
  H   H55       1.0  0.01250  0.36659  0.11095  1.0000
  C   C49       1.0  0.34073  0.04542  0.24609  1.0000
  H   H56       1.0  0.33819  0.04665  0.21998  1.0000
  C   C50       1.0  0.32847  0.01179  0.29295  1.0000
  Fe  Fe7       1.0  0.15630  0.42995  0.82012  1.0000
  S   S11       1.0  0.15037  0.46708  0.84349  1.0000
  S   S12       1.0  0.19723  0.42218  0.82472  1.0000
  Fe  Fe8       1.0  0.09976  0.40951  0.77448  1.0000
  S   S13       1.0  0.08966  0.44448  0.79531  1.0000
  S   S14       1.0  0.07639  0.37863  0.73006  1.0000
  Fe  Fe9       1.0  0.13996  0.47707  0.79320  1.0000
  Fe  Fe10      1.0  0.10024  0.43153  0.84420  1.0000
  C   C51       1.0  0.04799  0.40361  0.91043  1.0000
  S   S15       1.0  0.14987  0.44324  0.76923  1.0000
  S   S16       1.0  0.10639  0.39328  0.82392  1.0000
  Fe  Fe11      1.0  0.32686  0.43060  0.94942  1.0000
  H   H57       1.0  0.02223  0.32776  0.92431  1.0000
  S   S17       1.0  0.28253  0.43223  0.94589  1.0000
  C   C52       1.0  0.23760  0.36758  0.72355  1.0000
  C   C53       1.0  0.01197  0.48839  0.65268  1.0000
  C   C54       1.0  0.02517  0.47869  0.67717  1.0000
  H   H58       1.0  0.33215  0.34496  0.59645  1.0000
  C   C55       1.0  0.03118  0.39293  0.71564  1.0000
  S   S18       1.0  0.32544  0.39066  0.97633  1.0000
  H   H59       1.0  0.25300  0.40403  0.75899  1.0000
  H   H60       1.0  0.16827  0.33092  0.68749  1.0000
  S   S19       1.0  0.07298  0.43502  0.88590  1.0000
  C   C56       1.0  0.15981  0.39912  0.71009  1.0000
  C   C57       1.0  0.04718  0.37847  0.70556  1.0000
  H   H61       1.0  0.05317  0.49056  0.72053  1.0000
  C   C58       1.0  0.03920  0.36251  0.67555  1.0000
  H   H62       1.0  0.13899  0.34533  0.76991  1.0000
  H   H63       1.0  0.05132  0.35118  0.66746  1.0000
  H   H64       1.0  0.20562  0.40505  0.75913  1.0000
  H   H65       1.0  0.15708  0.38631  0.77329  1.0000
  C   C59       1.0  0.04455  0.37446  0.90649  1.0000
  H   H66       1.0  0.25904  0.36773  0.72323  1.0000
  H   H67       1.0  0.05751  0.37075  0.88790  1.0000
  C   C60       1.0  0.26026  0.43158  0.91161  1.0000
  C   C61       1.0  0.23200  0.42968  0.91729  1.0000
  C   C62       1.0  0.21287  0.42774  0.89110  1.0000
  C   C63       1.0  0.22156  0.42728  0.85871  1.0000
  C   C64       1.0  0.24991  0.42932  0.85298  1.0000
  C   C65       1.0  0.26933  0.43190  0.87916  1.0000
  H   H68       1.0  0.22473  0.42960  0.94220  1.0000
  H   H69       1.0  0.19116  0.42611  0.89605  1.0000
  H   H70       1.0  0.25702  0.42917  0.82807  1.0000
  H   H71       1.0  0.29123  0.43406  0.87420  1.0000
  N   N5        1.0  0.24640  0.33895  0.89385  1.0000
  C   C66       1.0  0.27648  0.36479  0.90404  1.0000
  C   C67       1.0  0.22358  0.34890  0.89811  1.0000
  C   C68       1.0  0.23787  0.31270  0.91631  1.0000
  C   C69       1.0  0.24857  0.33006  0.85983  1.0000
  C   C70       1.0  0.26872  0.31913  0.85218  1.0000
  C   C71       1.0  0.23184  0.33280  0.83336  1.0000
  C   C72       1.0  0.27202  0.31155  0.82013  1.0000
  C   C73       1.0  0.23528  0.32504  0.80138  1.0000
  H   H72       1.0  0.11926  0.36512  0.75849  1.0000
  H   H73       1.0  0.27547  0.37349  0.92877  1.0000
  H   H74       1.0  0.29432  0.35820  0.90517  1.0000
  H   H75       1.0  0.28460  0.38439  0.88674  1.0000
  H   H76       1.0  0.22920  0.36937  0.88290  1.0000
  C   C74       1.0  0.02458  0.35020  0.92708  1.0000
  H   H77       1.0  0.04587  0.46132  0.83828  1.0000
  H   H78       1.0  0.25573  0.30614  0.91769  1.0000
  H   H79       1.0  0.23474  0.31836  0.94187  1.0000
  H   H80       1.0  0.21623  0.29210  0.90836  1.0000
  H   H81       1.0  0.28268  0.31702  0.87087  1.0000
  H   H82       1.0  0.21619  0.34118  0.83659  1.0000
  N   N6        1.0  0.33721  0.12117  0.81672  1.0000
  H   H83       1.0  0.08755  0.50044  0.87397  1.0000
  H   H84       1.0  0.25847  0.30906  0.76990  1.0000
  H   H85       1.0  0.28806  0.30384  0.81485  1.0000
  H   H86       1.0  0.28865  0.10168  0.81288  1.0000
  C   C75       1.0  0.04281  0.49832  0.70252  1.0000
  C   C76       1.0  0.33926  0.01120  0.63666  1.0000
  C   C77       1.0  0.02952  0.46426  0.85390  1.0000
  C   C78       1.0  0.33742  0.12011  0.85307  1.0000
  C   C79       1.0  0.18587  0.34711  0.70369  1.0000
  C   C80       1.0  0.14176  0.36632  0.75776  1.0000
  H   H87       1.0  0.17726  0.41884  0.72464  1.0000
  H   H88       1.0  0.20014  0.33021  0.89181  1.0000
  H   H89       1.0  0.22295  0.35603  0.92382  1.0000
  C   C81       1.0  0.06971  0.50233  0.88796  1.0000
  H   H90       1.0  0.34225  0.37675  0.79963  1.0000
  C   C82       1.0  0.20683  0.38828  0.74363  1.0000
  C   C83       1.0  0.12822  0.34461  0.70401  1.0000
  C   C84       1.0  0.01107  0.45383  0.61038  1.0000
  C   C85       1.0  0.25544  0.31460  0.79476  1.0000
  H   H91       1.0  0.30566  0.09391  0.77839  1.0000
  C   C86       1.0  0.21348  0.34716  0.70369  1.0000
  H   H92       1.0  0.13420  0.34659  0.67758  1.0000
  H   H93       1.0  0.31975  0.12430  0.86390  1.0000
  H   H94       1.0  0.13900  0.40127  0.70964  1.0000
  C   C87       1.0  0.18172  0.36776  0.72380  1.0000
  H   H95       1.0  0.03395  0.43079  0.93805  1.0000
  C   C88       1.0  0.23421  0.38800  0.74360  1.0000
  H   H96       1.0  0.10702  0.34609  0.70530  1.0000
  H   H97       1.0  0.16848  0.40214  0.68456  1.0000
  H   H98       1.0  0.21633  0.33148  0.68789  1.0000
  H   H99       1.0  0.12206  0.32135  0.71301  1.0000
  H   H100      1.0  0.22238  0.32739  0.78157  1.0000
  N   N7        1.0  0.15327  0.36916  0.72377  1.0000
  H   H101      1.0  0.30084  0.07380  0.81577  1.0000
  N   N8        1.0  0.04336  0.49604  0.86691  1.0000
  H   H102      1.0  0.32742  0.02465  0.63478  1.0000
  H   H103      1.0  0.02195  0.45578  0.67692  1.0000
  H   H104      1.0  0.03686  0.40512  0.73871  1.0000
  H   H105      1.0  0.33801  0.37976  0.85967  1.0000
  S   S20       1.0  0.33772  0.37639  0.53616  1.0000
  H   H106      1.0  0.03449  0.47196  0.60326  1.0000
  C   C89       1.0  0.01546  0.36083  0.65593  1.0000
  C   C90       1.0  0.30676  0.09663  0.80543  1.0000
  H   H107      1.0  0.01298  0.43722  0.62672  1.0000
  C   C91       1.0  0.03117  0.40826  0.93464  1.0000
  H   H108      1.0  0.06313  0.48562  0.90843  1.0000
  H   H109      1.0  0.02287  0.44683  0.87362  1.0000
  C   C92       1.0  0.34344  0.15119  0.80353  1.0000
  H   H110      1.0  0.34163  0.03079  0.57869  1.0000
  H   H111      1.0  0.33251  0.09725  0.86221  1.0000
  H   H112      1.0  0.34129  0.13830  0.75210  1.0000
  C   C93       1.0  0.02057  0.49922  0.88652  1.0000
  C   C94       1.0  0.01102  0.38400  0.95491  1.0000
  H   H113      1.0  0.01153  0.46214  0.92061  1.0000
  H   H114      1.0  0.31254  0.99609  0.24410  1.0000
  Fe  Fe12      1.0  0.29391  0.88160  0.14572  1.0000
  H   H115      1.0  0.07503  0.75965  0.17004  1.0000
  S   S21       1.0  0.24480  0.84104  0.15317  1.0000
  C   C95       1.0  0.15169  0.81627  0.22727  1.0000
  H   H116      1.0  0.31865  0.89510  0.47338  1.0000
  H   H117      1.0  0.05173  0.67454  0.13074  1.0000
  H   H118      1.0  0.10308  0.78549  0.26933  1.0000
  H   H119      1.0  0.08992  0.67926  0.02581  1.0000
  S   S22       1.0  0.30473  0.92715  0.12293  1.0000
  Fe  Fe13      1.0  0.07605  0.63736  0.27275  1.0000
  S   S23       1.0  0.10980  0.66703  0.31122  1.0000
  S   S24       1.0  0.06126  0.58883  0.25690  1.0000
  Fe  Fe14      1.0  0.05267  0.68131  0.26396  1.0000
  S   S25       1.0  0.08364  0.71388  0.30270  1.0000
  H   H120      1.0  0.30304  0.54292  0.46267  1.0000
  Fe  Fe15      1.0  0.11991  0.70734  0.27821  1.0000
  S   S26       1.0  0.16799  0.74971  0.27117  1.0000
  Fe  Fe16      1.0  0.07081  0.67115  0.33224  1.0000
  S   S27       1.0  0.06170  0.66313  0.38748  1.0000
  S   S28       1.0  0.08918  0.67669  0.23810  1.0000
  S   S29       1.0  0.03702  0.63961  0.29529  1.0000
  H   H121      1.0  0.11187  0.80794  0.15660  1.0000
  C   C96       1.0  0.02581  0.63768  0.44230  1.0000
  C   C97       1.0  0.02610  0.64440  0.40878  1.0000
  H   H122      1.0  0.10781  0.74409  0.19713  1.0000
  H   H123      1.0  0.04698  0.64333  0.45437  1.0000
  H   H124      1.0  0.09132  0.62711  0.37038  1.0000
  H   H125      1.0  0.02848  0.56635  0.41567  1.0000
  H   H126      1.0  0.33739  0.54119  0.45747  1.0000
  H   H127      1.0  0.05828  0.68731  0.18940  1.0000
  H   H128      1.0  0.11907  0.75420  0.23900  1.0000
  C   C98       1.0  0.22498  0.81482  0.18602  1.0000
  C   C99       1.0  0.23630  0.81982  0.21809  1.0000
  C   C100      1.0  0.21872  0.79952  0.24357  1.0000
  C   C101      1.0  0.18971  0.77368  0.23749  1.0000
  C   C102      1.0  0.17879  0.76822  0.20525  1.0000
  C   C103      1.0  0.19612  0.78878  0.17987  1.0000
  H   H129      1.0  0.25835  0.83965  0.22341  1.0000
  H   H130      1.0  0.22762  0.80400  0.26828  1.0000
  H   H131      1.0  0.15703  0.74815  0.19980  1.0000
  H   H132      1.0  0.18706  0.78454  0.15525  1.0000
  C   C104      1.0  0.05901  0.54826  0.37308  1.0000
  H   H133      1.0  0.07986  0.72937  0.22921  1.0000
  C   C105      1.0  0.11936  0.54710  0.28653  1.0000
  C   C106      1.0  0.08829  0.52826  0.27984  1.0000
  C   C107      1.0  0.07060  0.54132  0.27102  1.0000
  C   C108      1.0  0.08377  0.57332  0.26945  1.0000
  C   C109      1.0  0.11463  0.59225  0.27707  1.0000
  C   C110      1.0  0.13243  0.57912  0.28539  1.0000
  C   C111      1.0  0.15841  0.84055  0.16444  1.0000
  H   H134      1.0  0.04658  0.52660  0.26590  1.0000
  H   H135      1.0  0.12496  0.61697  0.27578  1.0000
  H   H136      1.0  0.15646  0.59382  0.29071  1.0000
  H   H137      1.0  0.09743  0.60406  0.34172  1.0000
  C   C112      1.0  0.05093  0.72215  0.48796  1.0000
  H   H138      1.0  0.04692  0.72146  0.40471  1.0000
  H   H139      1.0  0.06410  0.52746  0.19462  1.0000
  N   N9        1.0  0.04587  0.64987  0.00388  1.0000
  H   H140      1.0  0.20558  0.87036  0.17735  1.0000
  H   H141      1.0  0.32074  0.54901  0.42317  1.0000
  H   H142      1.0  0.08572  0.80417  0.24823  1.0000
  C   C113      1.0  0.08718  0.78290  0.24922  1.0000
  H   H143      1.0  0.15080  0.80668  0.25121  1.0000
  H   H144      1.0  0.10192  0.51501  0.35430  1.0000
  S   S30       1.0  0.01740  0.68836  0.23805  1.0000
  C   C114      1.0  0.07947  0.51888  0.18674  1.0000
  C   C115      1.0  0.03827  0.62383  0.02639  1.0000
  C   C116      1.0  0.03933  0.71734  0.42997  1.0000
  H   H145      1.0  0.01160  0.52105  0.38903  1.0000
  C   C117      1.0  0.01274  0.67906  0.19614  1.0000
  C   C118      1.0  0.03666  0.68031  0.17801  1.0000
  H   H146      1.0  0.04940  0.52313  0.13901  1.0000
  H   H147      1.0  0.08467  0.74173  0.44959  1.0000
  H   H148      1.0  0.04299  0.57524  0.32666  1.0000
  C   C119      1.0  0.07099  0.76778  0.19383  1.0000
  S   S31       1.0  0.14236  0.53136  0.29649  1.0000
  H   H149      1.0  0.05552  0.60610  0.41244  1.0000
  H   H150      1.0  0.10882  0.60608  0.38418  1.0000
  H   H151      1.0  0.19955  0.84922  0.23310  1.0000
  H   H152      1.0  0.09621  0.52446  0.20703  1.0000
  S   S32       1.0  0.32329  0.87537  0.10876  1.0000
  C   C120      1.0  0.03813  0.57889  0.35235  1.0000
  S   S33       1.0  0.33165  0.90331  0.18308  1.0000
  C   C121      1.0  0.08238  0.51671  0.36208  1.0000
  C   C122      1.0  0.09089  0.60490  0.36756  1.0000
  C   C123      1.0  0.12579  0.80349  0.20633  1.0000
  C   C124      1.0  0.08424  0.54535  0.36293  1.0000
  H   H153      1.0  0.04922  0.74823  0.20333  1.0000
  C   C125      1.0  0.06798  0.67855  0.02119  1.0000
  N   N10       1.0  0.06037  0.57826  0.37542  1.0000
  C   C126      1.0  0.05261  0.58283  0.40920  1.0000
  H   H154      1.0  0.10570  0.56475  0.35527  1.0000
  H   H155      1.0  0.03886  0.60137  0.35325  1.0000
  H   H156      1.0  0.28534  0.52429  0.38299  1.0000
  H   H157      1.0  0.09300  0.53242  0.16523  1.0000
  C   C127      1.0  0.10108  0.74996  0.22075  1.0000
  C   C128      1.0  0.03296  0.67323  0.14461  1.0000
  H   H158      1.0  0.03117  0.62758  0.05095  1.0000
  N   N11       1.0  0.09667  0.77664  0.21711  1.0000
  H   H159      1.0  0.23624  0.51161  0.35896  1.0000
  C   C129      1.0  0.17986  0.84057  0.21708  1.0000
  H   H160      1.0  0.06443  0.76357  0.25691  1.0000
  H   H161      1.0  0.05896  0.68057  0.04541  1.0000
  C   C130      1.0  0.06055  0.72858  0.45535  1.0000
  C   C131      1.0  0.12998  0.81644  0.17448  1.0000
  H   H162      1.0  0.16148  0.84959  0.13979  1.0000
  H   H163      1.0  0.06686  0.78715  0.18940  1.0000
  C   C132      1.0  0.03181  0.52070  0.38146  1.0000
  C   C133      1.0  0.18330  0.85250  0.18565  1.0000
  H   H164      1.0  0.31752  0.98883  0.30316  1.0000
  H   H165      1.0  0.01424  0.56099  0.35792  1.0000
  H   H166      1.0  0.06747  0.58037  0.42753  1.0000
  H   H167      1.0  0.05818  0.62054  0.02982  1.0000
  H   H168      1.0  0.07248  0.69940  0.00726  1.0000
  C   C134      1.0  0.31508  0.53514  0.44592  1.0000
  C   C135      1.0  0.33330  0.90566  0.49525  1.0000
  H   H169      1.0  0.34230  0.83485  0.01320  1.0000
  H   H170      1.0  0.01879  0.60181  0.01751  1.0000
  H   H171      1.0  0.32982  0.82922  0.06956  1.0000
  C   C136      1.0  0.01798  0.65142  0.99768  1.0000
  Fe  Fe17      1.0  0.33737  0.92264  0.08915  1.0000
  H   H172      1.0  0.33539  0.98834  0.49576  1.0000
  C   C137      1.0  0.05094  0.61225  0.92509  1.0000
  Fe  Fe18      1.0  0.30831  0.87883  0.64516  1.0000
  H   H173      1.0  0.32645  0.89182  0.75212  1.0000
  S   S34       1.0  0.25852  0.84487  0.65921  1.0000
  H   H174      1.0  0.11482  0.68175  0.91571  1.0000
  C   C138      1.0  0.08449  0.66857  0.95724  1.0000
  H   H175      1.0  0.05335  0.67664  0.70541  1.0000
  H   H176      1.0  0.24966  0.60861  0.73948  1.0000
  S   S35       1.0  0.32424  0.88368  0.59269  1.0000
  S   S36       1.0  0.32369  0.92937  0.64871  1.0000
  Fe  Fe19      1.0  0.11197  0.64240  0.81572  1.0000
  S   S37       1.0  0.12847  0.69030  0.83346  1.0000
  S   S38       1.0  0.12069  0.61008  0.84577  1.0000
  Fe  Fe20      1.0  0.07868  0.64988  0.75816  1.0000
  S   S39       1.0  0.09262  0.69873  0.77118  1.0000
  S   S40       1.0  0.04866  0.61762  0.71867  1.0000
  Fe  Fe21      1.0  0.13950  0.70488  0.78046  1.0000
  S   S41       1.0  0.18948  0.74186  0.76953  1.0000
  Fe  Fe22      1.0  0.08068  0.67998  0.82294  1.0000
  S   S42       1.0  0.05368  0.69083  0.85983  1.0000
  S   S43       1.0  0.12565  0.65696  0.76387  1.0000
  S   S44       1.0  0.06384  0.63125  0.80881  1.0000
  H   H177      1.0  0.06109  0.54320  0.72421  1.0000
  C   C139      1.0  0.30503  0.93095  0.80383  1.0000
  H   H178      1.0  0.28921  0.88410  0.71712  1.0000
  H   H179      1.0  0.07212  0.51402  0.82414  1.0000
  H   H180      1.0  0.33123  0.99744  0.65961  1.0000
  C   C140      1.0  0.03251  0.71104  0.55523  1.0000
  H   H181      1.0  0.01823  0.62329  0.85954  1.0000
  H   H182      1.0  0.25160  0.87758  0.71537  1.0000
  H   H183      1.0  0.14363  0.52694  0.83848  1.0000
  H   H184      1.0  0.09824  0.69106  0.96791  1.0000
  C   C141      1.0  0.23985  0.81512  0.68897  1.0000
  C   C142      1.0  0.25587  0.80695  0.71074  1.0000
  C   C143      1.0  0.24001  0.78427  0.73490  1.0000
  C   C144      1.0  0.20795  0.76912  0.73739  1.0000
  C   C145      1.0  0.19194  0.77696  0.71527  1.0000
  C   C146      1.0  0.20781  0.79987  0.69138  1.0000
  H   H185      1.0  0.28045  0.81825  0.70914  1.0000
  H   H186      1.0  0.25272  0.77848  0.75183  1.0000
  H   H187      1.0  0.16733  0.76565  0.71679  1.0000
  H   H188      1.0  0.19511  0.80586  0.67463  1.0000
  H   H189      1.0  0.02311  0.70425  0.58051  1.0000
  C   C147      1.0  0.03527  0.65917  0.69055  1.0000
  C   C148      1.0  0.14454  0.54595  0.79102  1.0000
  C   C149      1.0  0.14035  0.54351  0.82496  1.0000
  C   C150      1.0  0.13338  0.56357  0.84159  1.0000
  C   C151      1.0  0.12927  0.58519  0.82421  1.0000
  C   C152      1.0  0.13238  0.58684  0.79017  1.0000
  C   C153      1.0  0.14059  0.56766  0.77368  1.0000
  C   C154      1.0  0.05734  0.64526  0.97229  1.0000
  H   H190      1.0  0.13126  0.56238  0.86796  1.0000
  H   H191      1.0  0.12884  0.60307  0.77652  1.0000
  H   H192      1.0  0.14381  0.56956  0.74742  1.0000
  H   H193      1.0  0.03766  0.59070  0.91219  1.0000
  H   H194      1.0  0.06862  0.73110  0.50632  1.0000
  C   C155      1.0  0.24644  0.89349  0.77450  1.0000
  C   C156      1.0  0.09440  0.66354  0.92714  1.0000
  C   C157      1.0  0.04049  0.61719  0.95483  1.0000
  C   C158      1.0  0.04728  0.52791  0.70466  1.0000
  H   H195      1.0  0.27846  0.84923  0.76330  1.0000
  H   H196      1.0  0.06758  0.54179  0.84651  1.0000
  H   H197      1.0  0.20597  0.58561  0.83302  1.0000
  C   C159      1.0  0.01628  0.51844  0.65612  1.0000
  H   H198      1.0  0.23943  0.83923  0.76110  1.0000
  H   H199      1.0  0.28654  0.93393  0.81220  1.0000
  H   H200      1.0  0.33241  0.92676  0.50119  1.0000
  C   C160      1.0  0.05531  0.51731  0.83851  1.0000
  C   C161      1.0  0.01105  0.67330  0.90914  1.0000
  C   C162      1.0  0.33362  0.95048  0.81779  1.0000
  C   C163      1.0  0.27402  0.89172  0.72786  1.0000
  S   S45       1.0  0.33750  0.96201  0.55739  1.0000
  H   H201      1.0  0.25985  0.85209  0.79923  1.0000
  H   H202      1.0  0.22449  0.87756  0.76197  1.0000
  C   C164      1.0  0.26190  0.85582  0.77228  1.0000
  H   H203      1.0  0.23050  0.57419  0.78752  1.0000
  C   C165      1.0  0.02304  0.66316  0.88428  1.0000
  H   H204      1.0  0.19799  0.62895  0.83066  1.0000
  C   C166      1.0  0.02875  0.62873  0.69213  1.0000
  H   H205      1.0  0.01608  0.65624  0.52738  1.0000
  N   N12       1.0  0.27133  0.88804  0.76397  1.0000
  H   H206      1.0  0.03717  0.56082  0.68369  1.0000
  H   H207      1.0  0.24192  0.88947  0.80123  1.0000
  H   H208      1.0  0.32225  0.88924  0.51586  1.0000
  N   N13       1.0  0.21430  0.67199  0.77908  1.0000
  C   C167      1.0  0.19595  0.67413  0.80618  1.0000
  C   C168      1.0  0.24385  0.70129  0.77822  1.0000
  C   C169      1.0  0.19772  0.66886  0.74804  1.0000
  C   C170      1.0  0.21975  0.64589  0.78260  1.0000
  C   C171      1.0  0.23500  0.63934  0.75752  1.0000
  C   C172      1.0  0.21001  0.62616  0.81038  1.0000
  C   C173      1.0  0.23895  0.61386  0.75941  1.0000
  C   C174      1.0  0.21450  0.60102  0.81218  1.0000
  C   C175      1.0  0.22844  0.59458  0.78656  1.0000
  H   H209      1.0  0.19163  0.69350  0.80260  1.0000
  H   H210      1.0  0.17319  0.65292  0.80789  1.0000
  H   H211      1.0  0.20769  0.67819  0.83021  1.0000
  H   H212      1.0  0.25727  0.70430  0.80088  1.0000
  H   H213      1.0  0.24038  0.72141  0.77608  1.0000
  H   H214      1.0  0.25811  0.70249  0.75701  1.0000
  H   H215      1.0  0.21145  0.67107  0.72601  1.0000
  H   H216      1.0  0.17635  0.64608  0.74667  1.0000
  H   H217      1.0  0.19149  0.68705  0.74557  1.0000
  H   H218      1.0  0.24345  0.65353  0.73590  1.0000
  H   H219      1.0  0.28314  0.91610  0.72063  1.0000
  H   H220      1.0  0.08048  0.52578  0.89874  1.0000
  C   C176      1.0  0.07783  0.63537  0.91125  1.0000
  H   H221      1.0  0.05104  0.70543  0.55361  1.0000
  H   H222      1.0  0.32199  0.98988  0.74846  1.0000
  C   C177      1.0  0.32751  0.90777  0.77050  1.0000
  C   C178      1.0  0.30114  0.90902  0.77953  1.0000
  H   H223      1.0  0.25190  0.91729  0.76852  1.0000
  H   H224      1.0  0.08556  0.63169  0.88785  1.0000
  C   C179      1.0  0.01859  0.66710  0.66925  1.0000
  H   H225      1.0  0.02090  0.65558  0.75751  1.0000
  H   H226      1.0  0.02219  0.53800  0.85997  1.0000
  H   H227      1.0  0.04247  0.73633  0.55328  1.0000
  H   H228      1.0  0.33135  0.99416  0.61626  1.0000
  H   H229      1.0  0.02085  0.69770  0.91329  1.0000
  H   H230      1.0  0.02289  0.67083  0.98105  1.0000
  Fe  Fe23      1.0  0.34331  0.93451  0.59812  1.0000
  H   H231      1.0  0.01866  0.59909  0.96361  1.0000
  S   S46       1.0  0.15642  0.52336  0.77021  1.0000
  H   H232      1.0  0.33634  0.96776  0.83551  1.0000
  C   C180      1.0  0.03385  0.53784  0.68168  1.0000
  H   H233      1.0  0.33955  0.96303  0.71099  1.0000
  H   H234      1.0  0.02371  0.69067  0.66791  1.0000
  H   H235      1.0  0.01937  0.65756  0.80104  1.0000
  H   H236      1.0  0.03675  0.51352  0.82127  1.0000
  C   C181      1.0  0.01218  0.52170  0.87975  1.0000
  C   C182      1.0  0.01945  0.70393  0.49600  1.0000
  S   S47       1.0  0.38832  0.43925  0.46778  1.0000
  Fe  Fe24      1.0  0.36712  0.46840  0.45962  1.0000
  H   H237      1.0  0.61755  0.05307  0.27048  1.0000
  H   H238      1.0  0.64742  0.01211  0.20722  1.0000
  S   S48       1.0  0.61807  0.09511  0.43483  1.0000
  C   C183      1.0  0.63836  0.45702  0.16304  1.0000
  Fe  Fe25      1.0  0.40700  0.32454  0.24518  1.0000
  S   S49       1.0  0.40059  0.29037  0.20612  1.0000
  S   S50       1.0  0.66130  0.06027  0.39576  1.0000
  Fe  Fe26      1.0  0.47515  0.36303  0.23328  1.0000
  S   S51       1.0  0.47351  0.33182  0.19320  1.0000
  S   S52       1.0  0.51928  0.40213  0.25366  1.0000
  Fe  Fe27      1.0  0.43144  0.33253  0.17622  1.0000
  S   S53       1.0  0.41926  0.33484  0.12265  1.0000
  Fe  Fe28      1.0  0.44280  0.29284  0.22718  1.0000
  S   S54       1.0  0.45304  0.25368  0.23488  1.0000
  S   S55       1.0  0.43533  0.36641  0.21436  1.0000
  S   S56       1.0  0.44695  0.32432  0.26821  1.0000
  Fe  Fe29      1.0  0.44173  0.08517  0.41954  1.0000
  S   S57       1.0  0.46451  0.06672  0.38729  1.0000
  S   S58       1.0  0.44018  0.07294  0.47378  1.0000
  Fe  Fe30      1.0  0.43427  0.12085  0.36155  1.0000
  S   S59       1.0  0.45569  0.10359  0.32559  1.0000
  S   S60       1.0  0.41495  0.15179  0.34718  1.0000
  Fe  Fe31      1.0  0.42823  0.05807  0.35077  1.0000
  C   C184      1.0  0.64475  0.41301  0.12824  1.0000
  Fe  Fe32      1.0  0.49006  0.11372  0.36549  1.0000
  S   S61       1.0  0.53977  0.13652  0.35152  1.0000
  S   S62       1.0  0.40357  0.07382  0.38405  1.0000
  S   S63       1.0  0.47048  0.13372  0.40030  1.0000
  C   C185      1.0  0.42725  0.18127  0.31696  1.0000
  C   C186      1.0  0.45030  0.18713  0.29441  1.0000
  C   C187      1.0  0.45788  0.20937  0.26961  1.0000
  C   C188      1.0  0.44306  0.22657  0.26736  1.0000
  C   C189      1.0  0.42053  0.22125  0.29040  1.0000
  C   C190      1.0  0.41254  0.19858  0.31481  1.0000
  H   H239      1.0  0.46216  0.17437  0.29588  1.0000
  H   H240      1.0  0.47549  0.21340  0.25209  1.0000
  H   H241      1.0  0.40880  0.23413  0.28899  1.0000
  H   H242      1.0  0.39467  0.19430  0.33207  1.0000
  C   C191      1.0  0.59709  0.10758  0.41175  1.0000
  C   C192      1.0  0.56706  0.09808  0.42105  1.0000
  C   C193      1.0  0.54946  0.10715  0.40291  1.0000
  C   C194      1.0  0.56186  0.12593  0.37544  1.0000
  C   C195      1.0  0.59212  0.13597  0.36650  1.0000
  C   C196      1.0  0.60968  0.12664  0.38448  1.0000
  H   H243      1.0  0.55736  0.08373  0.44240  1.0000
  H   H244      1.0  0.52646  0.09993  0.41051  1.0000
  H   H245      1.0  0.60196  0.15095  0.34558  1.0000
  H   H246      1.0  0.63301  0.13449  0.37750  1.0000
  C   C197      1.0  0.58434  0.48401  0.18952  1.0000
  C   C198      1.0  0.58962  0.48402  0.22312  1.0000
  C   C199      1.0  0.56947  0.45877  0.24248  1.0000
  C   C200      1.0  0.54379  0.43348  0.22848  1.0000
  C   C201      1.0  0.53850  0.43345  0.19487  1.0000
  C   C202      1.0  0.55882  0.45859  0.17545  1.0000
  H   H247      1.0  0.47390  0.01930  0.22951  1.0000
  H   H248      1.0  0.57368  0.45897  0.26846  1.0000
  H   H249      1.0  0.51885  0.41402  0.18382  1.0000
  H   H250      1.0  0.55477  0.45830  0.14942  1.0000
  H   H251      1.0  0.37730  0.37412  0.48481  1.0000
  H   H252      1.0  0.63172  0.04830  0.07811  1.0000
  H   H253      1.0  0.42955  0.49884  0.48924  1.0000
  C   C203      1.0  0.39187  0.37587  0.05523  1.0000
  H   H254      1.0  0.41101  0.42859  0.11583  1.0000
  H   H255      1.0  0.63752  0.07759  0.02739  1.0000
  H   H256      1.0  0.46465  0.47174  0.37229  1.0000
  H   H257      1.0  0.63463  0.47338  0.17637  1.0000
  S   S64       1.0  0.34847  0.44935  0.40976  1.0000
  H   H258      1.0  0.58515  0.01917  0.28485  1.0000
  H   H259      1.0  0.38323  0.31442  0.35872  1.0000
  H   H260      1.0  0.41789  0.05475  0.27775  1.0000
  H   H261      1.0  0.48815  0.05826  0.00870  1.0000
  H   H262      1.0  0.34896  0.09605  0.20923  1.0000
  C   C204      1.0  0.51910  0.32543  0.26544  1.0000
  H   H263      1.0  0.56140  0.38201  0.28224  1.0000
  H   H264      1.0  0.38289  0.37089  0.03056  1.0000
  C   C205      1.0  0.51568  0.05977  0.31993  1.0000
  C   C206      1.0  0.39416  0.02798  0.23515  1.0000
  C   C207      1.0  0.39928  0.35570  0.07131  1.0000
  C   C208      1.0  0.41076  0.36148  0.10351  1.0000
  C   C209      1.0  0.41505  0.38802  0.11938  1.0000
  H   H265      1.0  0.53131  0.31657  0.25046  1.0000
  Fe  Fe33      1.0  0.66288  0.10260  0.41546  1.0000
  H   H266      1.0  0.42422  0.39307  0.14395  1.0000
  S   S65       1.0  0.36570  0.31798  0.27285  1.0000
  C   C210      1.0  0.38970  0.38815  0.35474  1.0000
  H   H267      1.0  0.39599  0.33535  0.05872  1.0000
  C   C211      1.0  0.37492  0.34546  0.30379  1.0000
  C   C212      1.0  0.40538  0.36715  0.31020  1.0000
  C   C213      1.0  0.41274  0.38833  0.33571  1.0000
  H   H268      1.0  0.39534  0.04455  0.02889  1.0000
  H   H269      1.0  0.42337  0.36744  0.29576  1.0000
  H   H270      1.0  0.43642  0.40484  0.34084  1.0000
  C   C214      1.0  0.54649  0.07073  0.31314  1.0000
  C   C215      1.0  0.60934  0.09444  0.29723  1.0000
  C   C216      1.0  0.37952  0.31702  0.44261  1.0000
  C   C217      1.0  0.37625  0.32216  0.40906  1.0000
  H   H271      1.0  0.36618  0.33570  0.40179  1.0000
  C   C218      1.0  0.41177  0.03990  0.49463  1.0000
  C   C219      1.0  0.61601  0.40635  0.13904  1.0000
  H   H272      1.0  0.35511  0.40316  0.16396  1.0000
  H   H273      1.0  0.41783  0.10059  0.24905  1.0000
  S   S66       1.0  0.40044  0.41430  0.38731  1.0000
  H   H274      1.0  0.53411  0.23953  0.35697  1.0000
  C   C220      1.0  0.36128  0.06672  0.29955  1.0000
  C   C221      1.0  0.64501  0.01748  0.30210  1.0000
  H   H275      1.0  0.59045  0.42329  0.16468  1.0000
  Fe  Fe34      1.0  0.37040  0.42473  0.99916  1.0000
  H   H276      1.0  0.43125  0.49332  0.05368  1.0000
  C   C222      1.0  0.47657  0.48051  0.06923  1.0000
  H   H277      1.0  0.38099  0.37170  0.44187  1.0000
  C   C223      1.0  0.44816  0.50048  0.39066  1.0000
  H   H278      1.0  0.60921  0.50347  0.23421  1.0000
  H   H279      1.0  0.34448  0.30551  0.16737  1.0000
  C   C224      1.0  0.47055  0.49513  0.37811  1.0000
  H   H280      1.0  0.38664  0.12848  0.20649  1.0000
  H   H281      1.0  0.52305  0.35039  0.34359  1.0000
  Fe  Fe35      1.0  0.36641  0.41757  0.41982  1.0000
  N   N14       1.0  0.36858  0.32978  0.46841  1.0000
  H   H282      1.0  0.37984  0.14724  0.25806  1.0000
  C   C225      1.0  0.55858  0.05069  0.31288  1.0000
  C   C226      1.0  0.64660  0.01342  0.23360  1.0000
  C   C227      1.0  0.59348  0.04356  0.27844  1.0000
  H   H283      1.0  0.34868  0.03373  0.33861  1.0000
  C   C228      1.0  0.35854  0.32759  0.18042  1.0000
  C   C229      1.0  0.38605  0.31015  0.38417  1.0000
  H   H284      1.0  0.38435  0.38748  0.19475  1.0000
  C   C230      1.0  0.38135  0.02395  0.48426  1.0000
  H   H285      1.0  0.36547  0.32152  0.20372  1.0000
  C   C231      1.0  0.40767  0.40823  0.10327  1.0000
  C   C232      1.0  0.65476  0.02986  0.48629  1.0000
  H   H286      1.0  0.60012  0.09971  0.27502  1.0000
  H   H287      1.0  0.59610  0.38418  0.13381  1.0000
  C   C233      1.0  0.35937  0.07177  0.26564  1.0000
  C   C234      1.0  0.39590  0.40222  0.07117  1.0000
  H   H288      1.0  0.41519  0.11943  0.28510  1.0000
  H   H289      1.0  0.51314  0.36368  0.30737  1.0000
  C   C235      1.0  0.35912  0.36680  0.34803  1.0000
  C   C236      1.0  0.53410  0.25889  0.34535  1.0000
  H   H290      1.0  0.48457  0.27768  0.31254  1.0000
  H   H291      1.0  0.58040  0.04396  0.25676  1.0000
  H   H292      1.0  0.56039  0.09516  0.30884  1.0000
  C   C237      1.0  0.39361  0.29938  0.44967  1.0000
  C   C238      1.0  0.50666  0.25640  0.33563  1.0000
  C   C239      1.0  0.38665  0.02353  0.01492  1.0000
  H   H293      1.0  0.59507  0.03207  0.34220  1.0000
  C   C240      1.0  0.49177  0.47347  0.09320  1.0000
  H   H294      1.0  0.48540  0.23512  0.33983  1.0000
  C   C241      1.0  0.53388  0.30928  0.31449  1.0000
  H   H295      1.0  0.61018  0.10941  0.31765  1.0000
  C   C242      1.0  0.52170  0.49490  0.10174  1.0000
  H   H296      1.0  0.57470  0.37237  0.31824  1.0000
  H   H297      1.0  0.41003  0.37382  0.46847  1.0000
  H   H298      1.0  0.42404  0.13901  0.24696  1.0000
  H   H299      1.0  0.63361  0.10155  0.29198  1.0000
  C   C243      1.0  0.40986  0.11604  0.25851  1.0000
  S   S67       1.0  0.38606  0.42797  0.05230  1.0000
  C   C244      1.0  0.66562  0.04145  0.24988  1.0000
  H   H300      1.0  0.40692  0.28340  0.37243  1.0000
  H   H301      1.0  0.40088  0.04781  0.21974  1.0000
  H   H302      1.0  0.48984  0.32493  0.32014  1.0000
  H   H303      1.0  0.39745  0.29454  0.47439  1.0000
  H   H304      1.0  0.38128  0.09073  0.20252  1.0000
  H   H305      1.0  0.41384  0.27391  0.43040  1.0000
  C   C245      1.0  0.60531  0.05669  0.33562  1.0000
  H   H306      1.0  0.63013  0.06566  0.33197  1.0000
  C   C246      1.0  0.66798  0.46466  0.15238  1.0000
  C   C247      1.0  0.65423  0.06570  0.06993  1.0000
  C   C248      1.0  0.46265  0.49215  0.00172  1.0000
  H   H307      1.0  0.51938  0.34466  0.25172  1.0000
  C   C249      1.0  0.50646  0.28105  0.32021  1.0000
  C   C250      1.0  0.53795  0.01926  0.32001  1.0000
  H   H308      1.0  0.58276  0.28788  0.34746  1.0000
  H   H309      1.0  0.45327  0.46320  0.06376  1.0000
  C   C251      1.0  0.40329  0.28742  0.42453  1.0000
  C   C252      1.0  0.51393  0.34383  0.31828  1.0000
  C   C253      1.0  0.38495  0.36375  0.46574  1.0000
  H   H310      1.0  0.65260  0.04229  0.46591  1.0000
  H   H311      1.0  0.58352  0.33150  0.32135  1.0000
  H   H312      1.0  0.49489  0.30690  0.26658  1.0000
  H   H313      1.0  0.37488  0.03089  0.46203  1.0000
  C   C254      1.0  0.40377  0.03194  0.26792  1.0000
  H   H314      1.0  0.42522  0.48142  0.39461  1.0000
  N   N15       1.0  0.53287  0.33511  0.29845  1.0000
  H   H315      1.0  0.50715  0.07565  0.32058  1.0000
  H   H316      1.0  0.64709  0.39585  0.11461  1.0000
  N   N16       1.0  0.59110  0.06138  0.30610  1.0000
  C   C255      1.0  0.56153  0.31112  0.32480  1.0000
  H   H317      1.0  0.57837  0.35862  0.27834  1.0000
  H   H318      1.0  0.60295  0.06881  0.35728  1.0000
  C   C256      1.0  0.56329  0.36313  0.29427  1.0000
  C   C257      1.0  0.49606  0.02883  0.32680  1.0000
  H   H319      1.0  0.44546  0.46906  0.01107  1.0000
  C   C258      1.0  0.37318  0.10452  0.21596  1.0000
  C   C259      1.0  0.61283  0.42833  0.15643  1.0000
  C   C260      1.0  0.56146  0.28616  0.33993  1.0000
  C   C261      1.0  0.39946  0.29273  0.39187  1.0000
  H   H320      1.0  0.48021  0.45124  0.10525  1.0000
  N   N17       1.0  0.37688  0.10321  0.25191  1.0000
  H   H321      1.0  0.37499  0.08561  0.31598  1.0000
  H   H322      1.0  0.54200  0.03315  0.47160  1.0000
  C   C262      1.0  0.35175  0.34533  0.32262  1.0000
  H   H323      1.0  0.37949  0.34144  0.16572  1.0000
  C   C263      1.0  0.34614  0.03713  0.31285  1.0000
  C   C264      1.0  0.65756  0.08218  0.04138  1.0000
  H   H324      1.0  0.53346  0.48951  0.12046  1.0000
  H   H325      1.0  0.47232  0.02073  0.33259  1.0000
  H   H326      1.0  0.37072  0.12511  0.29451  1.0000
  C   C265      1.0  0.36694  0.12326  0.26760  1.0000
  C   C266      1.0  0.66501  0.04370  0.28419  1.0000
  H   H327      1.0  0.64424  0.01879  0.32847  1.0000
  C   C267      1.0  0.49102  0.50927  0.05278  1.0000
  C   C268      1.0  0.67048  0.44171  0.13471  1.0000
  C   C269      1.0  0.36256  0.37154  0.20742  1.0000
  H   H328      1.0  0.36898  0.36430  0.23042  1.0000
  H   H329      1.0  0.43807  0.01182  0.45278  1.0000
  H   H330      1.0  0.35116  0.38439  0.21527  1.0000
  H   H331      1.0  0.67722  0.05709  0.10897  1.0000
  S   S68       1.0  0.39817  0.42115  0.95885  1.0000
  C   C270      1.0  0.38668  0.01181  0.63811  1.0000
  C   C271      1.0  0.38452  0.05122  0.60678  1.0000
  Fe  Fe36      1.0  0.65695  0.12378  0.89297  1.0000
  S   S69       1.0  0.62858  0.14697  0.89663  1.0000
  S   S70       1.0  0.63741  0.07541  0.87578  1.0000
  Fe  Fe37      1.0  0.39507  0.33377  0.73912  1.0000
  S   S71       1.0  0.38905  0.30117  0.69827  1.0000
  C   C272      1.0  0.43826  0.40944  0.84961  1.0000
  Fe  Fe38      1.0  0.46378  0.36393  0.73908  1.0000
  S   S72       1.0  0.46348  0.33428  0.69804  1.0000
  S   S73       1.0  0.50487  0.39966  0.76696  1.0000
  Fe  Fe39      1.0  0.42808  0.34288  0.67457  1.0000
  S   S74       1.0  0.43387  0.35964  0.62159  1.0000
  Fe  Fe40      1.0  0.42472  0.29533  0.72564  1.0000
  S   S75       1.0  0.42406  0.24957  0.73060  1.0000
  S   S76       1.0  0.43183  0.37556  0.71397  1.0000
  S   S77       1.0  0.42731  0.32481  0.76818  1.0000
  Fe  Fe41      1.0  0.41307  0.07489  0.90682  1.0000
  S   S78       1.0  0.41536  0.04565  0.86692  1.0000
  S   S79       1.0  0.40633  0.06178  0.96114  1.0000
  Fe  Fe42      1.0  0.42847  0.12890  0.85856  1.0000
  S   S80       1.0  0.43294  0.10344  0.81587  1.0000
  S   S81       1.0  0.43207  0.17613  0.85499  1.0000
  Fe  Fe43      1.0  0.39072  0.06288  0.83584  1.0000
  H   H332      1.0  0.37335  0.06768  0.66497  1.0000
  Fe  Fe44      1.0  0.45758  0.08872  0.85073  1.0000
  S   S82       1.0  0.49553  0.08036  0.83530  1.0000
  S   S83       1.0  0.38455  0.08876  0.87703  1.0000
  S   S84       1.0  0.45697  0.11756  0.89224  1.0000
  C   C273      1.0  0.42990  0.19621  0.81999  1.0000
  C   C274      1.0  0.42953  0.18611  0.78797  1.0000
  C   C275      1.0  0.42789  0.20280  0.76105  1.0000
  C   C276      1.0  0.42671  0.22987  0.76563  1.0000
  C   C277      1.0  0.42723  0.24006  0.79761  1.0000
  C   C278      1.0  0.42889  0.22339  0.82456  1.0000
  H   H333      1.0  0.43086  0.16563  0.78387  1.0000
  H   H334      1.0  0.42756  0.19470  0.73645  1.0000
  H   H335      1.0  0.42565  0.26039  0.80158  1.0000
  H   H336      1.0  0.42921  0.23149  0.84916  1.0000
  C   C279      1.0  0.59081  0.12752  0.88137  1.0000
  C   C280      1.0  0.57225  0.14060  0.88512  1.0000
  C   C281      1.0  0.54251  0.12598  0.87199  1.0000
  C   C282      1.0  0.53136  0.09832  0.85486  1.0000
  C   C283      1.0  0.54976  0.08514  0.85153  1.0000
  C   C284      1.0  0.57932  0.09967  0.86462  1.0000
  H   H337      1.0  0.58104  0.16226  0.89789  1.0000
  H   H338      1.0  0.52858  0.13651  0.87436  1.0000
  H   H339      1.0  0.54127  0.06376  0.83831  1.0000
  H   H340      1.0  0.59329  0.08951  0.86116  1.0000
  C   C285      1.0  0.58574  0.46899  0.70541  1.0000
  C   C286      1.0  0.56101  0.44362  0.69036  1.0000
  C   C287      1.0  0.53584  0.42248  0.70898  1.0000
  C   C288      1.0  0.53571  0.42620  0.74288  1.0000
  C   C289      1.0  0.56065  0.45130  0.75801  1.0000
  C   C290      1.0  0.58540  0.47296  0.73926  1.0000
  H   H341      1.0  0.40460  0.40457  0.53161  1.0000
  H   H342      1.0  0.51670  0.40320  0.69709  1.0000
  H   H343      1.0  0.56084  0.45402  0.78429  1.0000
  C   C291      1.0  0.49612  0.09395  0.95494  1.0000
  C   C292      1.0  0.34560  0.36499  0.84958  1.0000
  Fe  Fe45      1.0  0.39479  0.45923  0.93474  1.0000
  S   S85       1.0  0.35264  0.03316  0.80096  1.0000
  C   C293      1.0  0.48676  0.47608  0.85505  1.0000
  C   C294      1.0  0.51743  0.05912  0.95456  1.0000
  H   H344      1.0  0.62266  0.17842  0.76998  1.0000
  H   H345      1.0  0.48124  0.05466  0.90433  1.0000
  H   H346      1.0  0.61051  0.01694  0.50565  1.0000
  C   C295      1.0  0.57434  0.05196  0.51084  1.0000
  H   H347      1.0  0.47848  0.30187  0.75955  1.0000
  H   H348      1.0  0.38355  0.13116  0.81384  1.0000
  H   H349      1.0  0.36162  0.11332  0.77777  1.0000
  S   S86       1.0  0.43883  0.49473  0.91127  1.0000
  S   S87       1.0  0.35751  0.34020  0.75943  1.0000
  C   C296      1.0  0.36032  0.32656  0.85665  1.0000
  N   N18       1.0  0.44492  0.43224  0.82328  1.0000
  H   H350      1.0  0.62368  0.15875  0.82411  1.0000
  H   H351      1.0  0.42496  0.45428  0.85131  1.0000
  H   H352      1.0  0.56695  0.49466  0.64490  1.0000
  C   C297      1.0  0.41725  0.38525  0.57181  1.0000
  C   C298      1.0  0.40747  0.36653  0.59991  1.0000
  C   C299      1.0  0.37677  0.35258  0.60899  1.0000
  C   C300      1.0  0.43816  0.41569  0.79149  1.0000
  H   H353      1.0  0.58244  0.13435  0.78902  1.0000
  H   H354      1.0  0.67351  0.45474  0.63550  1.0000
  S   S88       1.0  0.35253  0.42790  0.90597  1.0000
  H   H355      1.0  0.63688  0.09513  0.75542  1.0000
  C   C301      1.0  0.42373  0.44427  0.82668  1.0000
  H   H356      1.0  0.51251  0.46038  0.63116  1.0000
  H   H357      1.0  0.35780  0.22923  0.76642  1.0000
  C   C302      1.0  0.42765  0.09164  0.57582  1.0000
  C   C303      1.0  0.38153  0.05096  0.66633  1.0000
  C   C304      1.0  0.41600  0.07353  0.60392  1.0000
  C   C305      1.0  0.36543  0.01585  0.77274  1.0000
  C   C306      1.0  0.55864  0.08872  0.77067  1.0000
  H   H358      1.0  0.44097  0.39622  0.56463  1.0000
  N   N19       1.0  0.48967  0.06174  0.95613  1.0000
  H   H359      1.0  0.37016  0.30993  0.81226  1.0000
  H   H360      1.0  0.41393  0.39686  0.78976  1.0000
  C   C307      1.0  0.35318  0.20745  0.77673  1.0000
  Fe  Fe46      1.0  0.66213  0.07014  0.91842  1.0000
  H   H361      1.0  0.67241  0.14630  0.74571  1.0000
  S   S89       1.0  0.61710  0.49491  0.68152  1.0000
  C   C308      1.0  0.34805  0.17610  0.82391  1.0000
  S   S90       1.0  0.63160  0.02755  0.94735  1.0000
  C   C309      1.0  0.52587  0.48182  0.61797  1.0000
  H   H362      1.0  0.42865  0.01173  0.75462  1.0000
  H   H363      1.0  0.55155  0.10817  0.94878  1.0000
  C   C310      1.0  0.41974  0.03059  0.52365  1.0000
  C   C311      1.0  0.54090  0.02672  0.95543  1.0000
  C   C312      1.0  0.51504  0.02984  0.95663  1.0000
  H   H364      1.0  0.60452  0.49235  0.75107  1.0000
  H   H365      1.0  0.43957  0.41911  0.87443  1.0000
  H   H366      1.0  0.45456  0.40079  0.84879  1.0000
  C   C313      1.0  0.47299  0.04794  0.98706  1.0000
  C   C314      1.0  0.35128  0.34628  0.87015  1.0000
  H   H367      1.0  0.43200  0.07668  0.62307  1.0000
  N   N20       1.0  0.51155  0.32345  0.79831  1.0000
  C   C315      1.0  0.49024  0.32890  0.81815  1.0000
  C   C316      1.0  0.50216  0.32128  0.76351  1.0000
  C   C317      1.0  0.51138  0.29563  0.81028  1.0000
  C   C318      1.0  0.50420  0.26997  0.78984  1.0000
  C   C319      1.0  0.51826  0.29348  0.84355  1.0000
  C   C320      1.0  0.50339  0.24374  0.80232  1.0000
  C   C321      1.0  0.51690  0.26693  0.85584  1.0000
  C   C322      1.0  0.50926  0.24203  0.83531  1.0000
  H   H368      1.0  0.49749  0.33439  0.84409  1.0000
  H   H369      1.0  0.48848  0.34865  0.80869  1.0000
  H   H370      1.0  0.46690  0.30839  0.81789  1.0000
  H   H371      1.0  0.50254  0.34251  0.75530  1.0000
  H   H372      1.0  0.51784  0.31841  0.74681  1.0000
  H   H373      1.0  0.49816  0.26908  0.76434  1.0000
  H   H374      1.0  0.52423  0.31215  0.86048  1.0000
  H   H375      1.0  0.49695  0.22408  0.78657  1.0000
  H   H376      1.0  0.52128  0.26538  0.88155  1.0000
  H   H377      1.0  0.50725  0.22108  0.84509  1.0000
  N   N21       1.0  0.64235  0.14995  0.78053  1.0000
  H   H378      1.0  0.37173  0.03684  0.68884  1.0000
  H   H379      1.0  0.64151  0.01157  0.69711  1.0000
  S   S91       1.0  0.36957  0.46523  0.97651  1.0000
  C   C323      1.0  0.61459  0.12035  0.77251  1.0000
  C   C324      1.0  0.61568  0.09467  0.75973  1.0000
  C   C325      1.0  0.58520  0.11635  0.77812  1.0000
  C   C326      1.0  0.58897  0.06703  0.75261  1.0000
  H   H380      1.0  0.35654  0.22253  0.82644  1.0000
  C   C327      1.0  0.56978  0.05255  0.95211  1.0000
  C   C328      1.0  0.35599  0.35658  0.58965  1.0000
  C   C329      1.0  0.36567  0.37506  0.56141  1.0000
  H   H381      1.0  0.47476  0.09506  0.95659  1.0000
  H   H382      1.0  0.66312  0.19781  0.76722  1.0000
  H   H383      1.0  0.41770  0.10141  0.52758  1.0000
  H   H384      1.0  0.39951  0.42582  0.82331  1.0000
  H   H385      1.0  0.58979  0.05009  0.95108  1.0000
  H   H386      1.0  0.54367  0.37183  0.79190  1.0000
  H   H387      1.0  0.65550  0.46526  0.66636  1.0000
  C   C330      1.0  0.39661  0.38991  0.55294  1.0000
  C   C331      1.0  0.36556  0.04796  0.57958  1.0000
  C   C332      1.0  0.40842  0.08805  0.54979  1.0000
  C   C333      1.0  0.56052  0.06413  0.75787  1.0000
  H   H388      1.0  0.55950  0.34714  0.78731  1.0000
  H   H389      1.0  0.51085  0.10778  0.97571  1.0000
  C   C334      1.0  0.51683  0.50018  0.85871  1.0000
  H   H390      1.0  0.36117  0.29673  0.50620  1.0000
  H   H391      1.0  0.59048  0.04765  0.74345  1.0000
  H   H392      1.0  0.49408  0.45243  0.77869  1.0000
  H   H393      1.0  0.56117  0.44038  0.66419  1.0000
  C   C335      1.0  0.47690  0.45780  0.82626  1.0000
  H   H394      1.0  0.54576  0.49452  0.78598  1.0000
  H   H395      1.0  0.47124  0.47169  0.87514  1.0000
  C   C336      1.0  0.49912  0.46524  0.80130  1.0000
  C   C337      1.0  0.54267  0.35056  0.80139  1.0000
  H   H396      1.0  0.59553  0.10159  0.94724  1.0000
  N   N22       1.0  0.37296  0.03164  0.63637  1.0000
  H   H397      1.0  0.55058  0.35537  0.82722  1.0000
  H   H398      1.0  0.64138  0.13615  0.83037  1.0000
  H   H399      1.0  0.66423  0.17680  0.82397  1.0000
  C   C338      1.0  0.65582  0.04107  0.73988  1.0000
  H   H400      1.0  0.50718  0.10531  0.93147  1.0000
  H   H401      1.0  0.36288  0.06286  0.53080  1.0000
  C   C339      1.0  0.54729  0.08499  0.95104  1.0000
  H   H402      1.0  0.36458  0.31194  0.87252  1.0000
  C   C340      1.0  0.64347  0.02046  0.98508  1.0000
  H   H403      1.0  0.41480  0.38921  0.84730  1.0000
  H   H404      1.0  0.36024  0.13730  0.86315  1.0000
  H   H405      1.0  0.57159  0.01714  0.58221  1.0000
  H   H406      1.0  0.44844  0.04689  0.92839  1.0000
  H   H407      1.0  0.35581  0.09107  0.81362  1.0000
  C   C341      1.0  0.64202  0.17536  0.76256  1.0000
  C   C342      1.0  0.64293  0.15573  0.81613  1.0000
  H   H408      1.0  0.39785  0.33213  0.50819  1.0000
  H   H409      1.0  0.41196  0.02524  0.64010  1.0000
  H   H410      1.0  0.67409  0.13383  0.78675  1.0000
  C   C343      1.0  0.36049  0.11395  0.80485  1.0000
  C   C344      1.0  0.67435  0.03361  0.99329  1.0000
  C   C345      1.0  0.67127  0.15086  0.77217  1.0000
  H   H411      1.0  0.42883  0.46251  0.80827  1.0000
  C   C346      1.0  0.57296  0.08157  0.95001  1.0000
  H   H412      1.0  0.44319  0.04288  0.53192  1.0000
  C   C347      1.0  0.37748  0.06629  0.55168  1.0000
  H   H413      1.0  0.44207  0.43126  0.77043  1.0000
  H   H414      1.0  0.45221  0.40464  0.78803  1.0000
  H   H415      1.0  0.48155  0.49019  0.99051  1.0000
  H   H416      1.0  0.53986  0.04265  0.75256  1.0000
  H   H417      1.0  0.45185  0.10810  0.57377  1.0000
  Fe  Fe47      1.0  0.35358  0.39028  0.93417  1.0000
  C   C348      1.0  0.37320  0.32200  0.50222  1.0000
  H   H418      1.0  0.64019  0.17105  0.73568  1.0000
  H   H419      1.0  0.41120  0.03816  0.79201  1.0000
  H   H420      1.0  0.65436  0.05929  0.72764  1.0000
  C   C349      1.0  0.38860  0.02501  0.98052  1.0000
  H   H421      1.0  0.53645  0.08615  0.77570  1.0000
  H   H422      1.0  0.36886  0.33804  0.63044  1.0000
  C   C350      1.0  0.39554  0.02212  0.77416  1.0000
  C   C351      1.0  0.63094  0.01557  0.50892  1.0000
  C   C352      1.0  0.52915  0.48946  0.80520  1.0000
  H   H423      1.0  0.40657  0.06413  0.67049  1.0000
  C   C353      1.0  0.64854  0.01402  0.72245  1.0000
  H   H424      1.0  0.45323  0.05157  0.99024  1.0000
  C   C354      1.0  0.58224  0.04712  0.54198  1.0000
  C   C355      1.0  0.36359  0.32549  0.82263  1.0000
  H   H425      1.0  0.48838  0.47512  0.58772  1.0000
  C   C356      1.0  0.51235  0.49014  0.59345  1.0000
  C   C357      1.0  0.66742  0.02119  0.78815  1.0000
  S   S92       1.0  0.34533  0.34576  0.91249  1.0000
  H   H426      1.0  0.57313  0.03345  0.83796  1.0000
  C   C358      1.0  0.46943  0.04512  0.92809  1.0000
  C   C359      1.0  0.56343  0.01970  0.55869  1.0000
  C   C360      1.0  0.35675  0.34335  0.80206  1.0000
  H   H427      1.0  0.60354  0.06445  0.55288  1.0000
  C   C361      1.0  0.34785  0.36315  0.81556  1.0000
  C   C362      1.0  0.66538  0.04489  0.77279  1.0000
  H   H428      1.0  0.45098  0.49731  0.98174  1.0000
  H   H429      1.0  0.61204  0.02201  0.81738  1.0000
  C   C363      1.0  0.53805  0.50675  0.83391  1.0000
  H   H430      1.0  0.46157  0.02020  0.92830  1.0000
  C   C364      1.0  0.35258  0.20364  0.81053  1.0000
  H   H431      1.0  0.34878  0.17517  0.85026  1.0000
  C   C365      1.0  0.56707  0.01599  0.81929  1.0000
  H   H432      1.0  0.36385  0.33117  0.52083  1.0000
  S   S93       1.0  0.67514  0.07993  0.79312  1.0000
  H   H433      1.0  0.46329  0.02267  0.98801  1.0000
  H   H434      1.0  0.67486  0.02379  0.81338  1.0000
  H   H435      1.0  0.35079  0.18733  0.72983  1.0000
  C   C366      1.0  0.34919  0.18373  0.75611  1.0000
  C   C367      1.0  0.55656  0.50111  0.62561  1.0000
  C   C368      1.0  0.54764  0.02934  0.49612  1.0000
  H   H436      1.0  0.58923  0.07310  0.49781  1.0000
  C   C369      1.0  0.34421  0.15593  0.76918  1.0000
  C   C370      1.0  0.36160  0.96759  0.01394  1.0000
  H   H437      1.0  0.35103  0.87504  0.45621  1.0000
  S   S94       1.0  0.56181  0.66986  0.44522  1.0000
  C   C371      1.0  0.40587  0.96671  0.47139  1.0000
  C   C372      1.0  0.37528  0.99842  0.22245  1.0000
  S   S95       1.0  0.63320  0.71942  0.46365  1.0000
  S   S96       1.0  0.58929  0.62685  0.04407  1.0000
  H   H438      1.0  0.66463  0.82304  0.04307  1.0000
  H   H439      1.0  0.52723  0.58891  0.33014  1.0000
  Fe  Fe48      1.0  0.60818  0.67884  0.42923  1.0000
  S   S97       1.0  0.61527  0.67582  0.37422  1.0000
  H   H440      1.0  0.66204  0.68016  0.20137  1.0000
  S   S98       1.0  0.60874  0.64525  0.46444  1.0000
  Fe  Fe49      1.0  0.59167  0.89112  0.12570  1.0000
  S   S99       1.0  0.59045  0.91946  0.08410  1.0000
  S   S100      1.0  0.58880  0.84427  0.11925  1.0000
  Fe  Fe50      1.0  0.60021  0.94067  0.17734  1.0000
  S   S101      1.0  0.60001  0.97229  0.13887  1.0000
  S   S102      1.0  0.60150  0.95151  0.23207  1.0000
  Fe  Fe51      1.0  0.56103  0.92991  0.11663  1.0000
  S   S103      1.0  0.52364  0.93577  0.09392  1.0000
  Fe  Fe52      1.0  0.62931  0.95947  0.10979  1.0000
  H   H441      1.0  0.53974  0.72620  0.00279  1.0000
  S   S104      1.0  0.55883  0.89842  0.15676  1.0000
  S   S105      1.0  0.63285  0.93079  0.14987  1.0000
  S   S106      1.0  0.37746  0.94624  0.12295  1.0000
  Fe  Fe53      1.0  0.36154  0.89994  0.14468  1.0000
  S   S107      1.0  0.39359  0.88309  0.15915  1.0000
  Fe  Fe54      1.0  0.64909  0.55754  0.18689  1.0000
  S   S108      1.0  0.64481  0.59626  0.20840  1.0000
  C   C373      1.0  0.62112  0.00019  0.00690  1.0000
  C   C374      1.0  0.46026  0.87689  0.04259  1.0000
  C   C375      1.0  0.49152  0.96622  0.24233  1.0000
  H   H442      1.0  0.35631  0.88089  0.04702  1.0000
  H   H443      1.0  0.39543  0.89940  0.03580  1.0000
  C   C376      1.0  0.66830  0.84273  0.02871  1.0000
  C   C377      1.0  0.40649  0.85536  0.05811  1.0000
  C   C378      1.0  0.62658  0.98722  0.25146  1.0000
  C   C379      1.0  0.36670  0.97280  0.24235  1.0000
  Fe  Fe55      1.0  0.59037  0.66159  0.00884  1.0000
  H   H444      1.0  0.45532  0.53327  0.06323  1.0000
  C   C380      1.0  0.38011  0.95557  0.40884  1.0000
  H   H445      1.0  0.61189  0.97787  0.05372  1.0000
  C   C381      1.0  0.43069  0.90002  0.14269  1.0000
  C   C382      1.0  0.43995  0.92126  0.11709  1.0000
  C   C383      1.0  0.46874  0.93241  0.10271  1.0000
  C   C384      1.0  0.48879  0.92309  0.11439  1.0000
  C   C385      1.0  0.48017  0.90304  0.14105  1.0000
  C   C386      1.0  0.45106  0.89133  0.15498  1.0000
  H   H446      1.0  0.42490  0.92887  0.10804  1.0000
  H   H447      1.0  0.47543  0.94811  0.08224  1.0000
  H   H448      1.0  0.49555  0.89584  0.15031  1.0000
  H   H449      1.0  0.44415  0.87513  0.17499  1.0000
  C   C387      1.0  0.62988  0.65426  0.35477  1.0000
  C   C388      1.0  0.62707  0.65026  0.32057  1.0000
  C   C389      1.0  0.63918  0.63420  0.30401  1.0000
  C   C390      1.0  0.52159  0.53071  0.06217  1.0000
  C   C391      1.0  0.64438  0.64138  0.37231  1.0000
  H   H450      1.0  0.61569  0.65988  0.30677  1.0000
  H   H451      1.0  0.63677  0.63113  0.27782  1.0000
  C   C392      1.0  0.61848  0.63911  0.07332  1.0000
  C   C393      1.0  0.61805  0.61741  0.09501  1.0000
  C   C394      1.0  0.64083  0.62623  0.11881  1.0000
  H   H452      1.0  0.55327  0.55779  0.33669  1.0000
  H   H453      1.0  0.60000  0.59370  0.09348  1.0000
  C   C395      1.0  0.50839  0.55036  0.38086  1.0000
  C   C396      1.0  0.59542  0.78924  0.03168  1.0000
  C   C397      1.0  0.59333  0.81574  0.02618  1.0000
  C   C398      1.0  0.59108  0.83271  0.05251  1.0000
  C   C399      1.0  0.59129  0.82367  0.08486  1.0000
  C   C400      1.0  0.59287  0.79689  0.09032  1.0000
  C   C401      1.0  0.59482  0.77974  0.06399  1.0000
  C   C402      1.0  0.36564  0.83896  0.01835  1.0000
  H   H454      1.0  0.58915  0.85273  0.04780  1.0000
  H   H455      1.0  0.59282  0.78948  0.11519  1.0000
  H   H456      1.0  0.59662  0.75961  0.06878  1.0000
  C   C403      1.0  0.42906  0.53940  0.47409  1.0000
  C   C404      1.0  0.44692  0.57129  0.46925  1.0000
  H   H457      1.0  0.38055  0.85465  0.99879  1.0000
  C   C405      1.0  0.55240  0.59196  0.40782  1.0000
  C   C406      1.0  0.62816  0.93903  0.40132  1.0000
  C   C407      1.0  0.63604  0.95757  0.42906  1.0000
  N   N23       1.0  0.44938  0.97142  0.21628  1.0000
  C   C408      1.0  0.41856  0.98939  0.44719  1.0000
  Fe  Fe56      1.0  0.58688  0.70775  0.48283  1.0000
  H   H458      1.0  0.49228  0.61130  0.47112  1.0000
  H   H459      1.0  0.50434  0.68810  0.04077  1.0000
  H   H460      1.0  0.48474  0.66195  0.00837  1.0000
  S   S109      1.0  0.67290  0.60445  0.30130  1.0000
  N   N24       1.0  0.67034  0.91911  0.04035  1.0000
  C   C409      1.0  0.62585  0.98947  0.28579  1.0000
  S   S110      1.0  0.60084  0.77033  0.99751  1.0000
  H   H461      1.0  0.53040  0.97276  0.15872  1.0000
  C   C410      1.0  0.47061  0.74300  0.01422  1.0000
  C   C411      1.0  0.37646  0.97674  0.27504  1.0000
  H   H462      1.0  0.59722  0.99011  0.00072  1.0000
  C   C412      1.0  0.62942  0.99297  0.03683  1.0000
  C   C413      1.0  0.56112  0.56853  0.36125  1.0000
  H   H463      1.0  0.48130  0.96384  0.26611  1.0000
  C   C414      1.0  0.49284  0.97275  0.18350  1.0000
  H   H464      1.0  0.42158  0.92214  0.21536  1.0000
  H   H465      1.0  0.55285  0.57550  0.42566  1.0000
  H   H466      1.0  0.38853  0.88994  0.47322  1.0000
  H   H467      1.0  0.46394  0.67231  0.03618  1.0000
  H   H468      1.0  0.65222  0.59894  0.01708  1.0000
  H   H469      1.0  0.58419  0.58905  0.35758  1.0000
  H   H470      1.0  0.56447  0.55267  0.37737  1.0000
  H   H471      1.0  0.36932  0.95685  0.29052  1.0000
  C   C415      1.0  0.48499  0.55486  0.39386  1.0000
  C   C416      1.0  0.49302  0.54636  0.01139  1.0000
  C   C417      1.0  0.64194  0.66979  0.07533  1.0000
  H   H472      1.0  0.37011  0.95169  0.38455  1.0000
  C   C418      1.0  0.50027  0.51960  0.37312  1.0000
  C   C419      1.0  0.66422  0.65686  0.12102  1.0000
  H   H473      1.0  0.50118  0.56576  0.02909  1.0000
  C   C420      1.0  0.51964  0.97132  0.18215  1.0000
  H   H474      1.0  0.35818  0.84072  0.10068  1.0000
  H   H475      1.0  0.43397  0.99987  0.23892  1.0000
  H   H476      1.0  0.55269  0.96539  0.20924  1.0000
  Fe  Fe57      1.0  0.34444  0.94800  0.15809  1.0000
  S   S111      1.0  0.60972  0.51480  0.16424  1.0000
  H   H477      1.0  0.37169  0.99443  0.05797  1.0000
  S   S112      1.0  0.38960  0.52000  0.46532  1.0000
  H   H478      1.0  0.38494  0.89239  0.07808  1.0000
  H   H479      1.0  0.34889  0.80787  0.07493  1.0000
  H   H480      1.0  0.44485  0.83362  0.11107  1.0000
  C   C421      1.0  0.61746  0.90769  0.40462  1.0000
  C   C422      1.0  0.47151  0.76663  0.03312  1.0000
  C   C423      1.0  0.43156  0.87359  0.03716  1.0000
  H   H481      1.0  0.53454  0.55335  0.05146  1.0000
  H   H482      1.0  0.52798  0.96089  0.26257  1.0000
  H   H483      1.0  0.58125  0.85513  0.48645  1.0000
  C   C424      1.0  0.53653  0.52342  0.08629  1.0000
  H   H484      1.0  0.40243  0.94134  0.23056  1.0000
  C   C425      1.0  0.65477  0.62241  0.32134  1.0000
  H   H485      1.0  0.63973  0.96065  0.48046  1.0000
  C   C426      1.0  0.51193  0.74586  0.04667  1.0000
  C   C427      1.0  0.37323  0.99508  0.03153  1.0000
  C   C428      1.0  0.37972  0.93752  0.46487  1.0000
  H   H486      1.0  0.64026  0.60924  0.13538  1.0000
  H   H487      1.0  0.62395  0.90218  0.02510  1.0000
  C   C429      1.0  0.47790  0.97023  0.21378  1.0000
  S   S113      1.0  0.34436  0.93102  0.03376  1.0000
  C   C430      1.0  0.42477  0.94213  0.23017  1.0000
  H   H488      1.0  0.65192  0.93062  0.99820  1.0000
  C   C431      1.0  0.40562  0.98388  0.41610  1.0000
  C   C432      1.0  0.43825  0.97608  0.18434  1.0000
  H   H489      1.0  0.45601  0.77496  0.02787  1.0000
  C   C433      1.0  0.39465  0.00631  0.28797  1.0000
  C   C434      1.0  0.44080  0.84401  0.08986  1.0000
  C   C435      1.0  0.53224  0.96713  0.21059  1.0000
  H   H490      1.0  0.61051  0.96933  0.29984  1.0000
  C   C436      1.0  0.36498  0.88497  0.47866  1.0000
  H   H491      1.0  0.66162  0.72690  0.24328  1.0000
  S   S114      1.0  0.53185  0.58826  0.49351  1.0000
  H   H492      1.0  0.48950  0.57743  0.40098  1.0000
  C   C437      1.0  0.37845  0.88244  0.05311  1.0000
  H   H493      1.0  0.63269  0.86524  0.48044  1.0000
  Fe  Fe58      1.0  0.56399  0.63827  0.48228  1.0000
  S   S115      1.0  0.67045  0.99490  0.08170  1.0000
  N   N25       1.0  0.37623  0.85198  0.05156  1.0000
  C   C438      1.0  0.45436  0.99711  0.23810  1.0000
  C   C439      1.0  0.62313  0.91316  0.46442  1.0000
  H   H494      1.0  0.52869  0.77957  0.08544  1.0000
  C   C440      1.0  0.41208  0.84083  0.08493  1.0000
  H   H495      1.0  0.43626  0.58401  0.46091  1.0000
  H   H496      1.0  0.57611  0.61165  0.40506  1.0000
  C   C441      1.0  0.51243  0.76925  0.06553  1.0000
  C   C442      1.0  0.49244  0.57031  0.48566  1.0000
  H   H497      1.0  0.56148  0.61933  0.34843  1.0000
  C   C443      1.0  0.48577  0.68136  0.02253  1.0000
  S   S116      1.0  0.55730  0.67860  0.01247  1.0000
  H   H498      1.0  0.66389  0.86537  0.06996  1.0000
  C   C444      1.0  0.36728  0.93265  0.43277  1.0000
  H   H499      1.0  0.36502  0.81667  0.01562  1.0000
  H   H500      1.0  0.64236  0.68666  0.05867  1.0000
  H   H501      1.0  0.41695  0.97719  0.18713  1.0000
  C   C445      1.0  0.49091  0.73188  0.02049  1.0000
  H   H502      1.0  0.52548  0.61002  0.36478  1.0000
  H   H503      1.0  0.42953  0.93835  0.25574  1.0000
  H   H504      1.0  0.42933  0.88597  0.01679  1.0000
  H   H505      1.0  0.48406  0.97530  0.16037  1.0000
  C   C446      1.0  0.66345  0.91520  0.07595  1.0000
  C   C447      1.0  0.51824  0.96462  0.24064  1.0000
  C   C448      1.0  0.44303  0.52319  0.48490  1.0000
  C   C449      1.0  0.53826  0.59966  0.35386  1.0000
  S   S117      1.0  0.36191  0.99428  0.18209  1.0000
  C   C450      1.0  0.61494  0.89485  0.43565  1.0000
  H   H506      1.0  0.39495  0.82760  0.10307  1.0000
  H   H507      1.0  0.51638  0.51372  0.36328  1.0000
  H   H508      1.0  0.43246  0.95667  0.16728  1.0000
  C   C451      1.0  0.46481  0.86198  0.06877  1.0000
  H   H509      1.0  0.66278  0.93522  0.08639  1.0000
  H   H510      1.0  0.55980  0.54002  0.09320  1.0000
  H   H511      1.0  0.66871  0.61652  0.36935  1.0000
  C   C452      1.0  0.65681  0.62565  0.35565  1.0000
  N   N26       1.0  0.49102  0.70722  0.00085  1.0000
  H   H512      1.0  0.66490  0.90251  0.48960  1.0000
  H   H513      1.0  0.45895  0.99358  0.26384  1.0000
  C   C453      1.0  0.49238  0.77972  0.05870  1.0000
  H   H514      1.0  0.53901  0.60140  0.41932  1.0000
  H   H515      1.0  0.64676  0.64421  0.39859  1.0000
  H   H516      1.0  0.49321  0.79813  0.07323  1.0000
  N   N27       1.0  0.53952  0.57693  0.37592  1.0000
  H   H517      1.0  0.63049  0.94902  0.37722  1.0000
  H   H518      1.0  0.64711  0.67275  0.24232  1.0000
  N   N28       1.0  0.47419  0.51610  0.02764  1.0000
  H   H519      1.0  0.64460  0.98206  0.42651  1.0000
  C   C454      1.0  0.35234  0.83148  0.07521  1.0000
  S   S118      1.0  0.40569  0.01039  0.32919  1.0000
  C   C455      1.0  0.66482  0.67867  0.09925  1.0000
  C   C456      1.0  0.47864  0.58674  0.47486  1.0000
  C   C457      1.0  0.63338  0.94492  0.46018  1.0000
  H   H520      1.0  0.64424  0.94204  0.03628  1.0000
  H   H521      1.0  0.64077  0.89456  0.08097  1.0000
  C   C458      1.0  0.67111  0.89277  0.02534  1.0000
  H   H522      1.0  0.41515  0.00174  0.39768  1.0000
  H   H523      1.0  0.60678  0.87049  0.43698  1.0000
  H   H524      1.0  0.48742  0.86564  0.07363  1.0000
  H   H525      1.0  0.52846  0.73907  0.05258  1.0000
  C   C459      1.0  0.66806  0.67995  0.22757  1.0000
  H   H526      1.0  0.61134  0.89332  0.38294  1.0000
  C   C460      1.0  0.44777  0.51610  0.04307  1.0000
  H   H527      1.0  0.45530  0.99799  0.17254  1.0000
  C   C461      1.0  0.66017  0.00537  0.04484  1.0000
  C   C462      1.0  0.50718  0.00858  0.32686  1.0000
  H   H528      1.0  0.67420  0.66176  0.23006  1.0000
  H   H529      1.0  0.66986  0.51999  0.15583  1.0000
  H   H530      1.0  0.43777  0.53425  0.40810  1.0000
  H   H531      1.0  0.34726  0.91121  0.42606  1.0000
  C   C463      1.0  0.66782  0.86735  0.04386  1.0000
  C   C464      1.0  0.45532  0.53028  0.39830  1.0000
  C   C465      1.0  0.64663  0.92357  0.02421  1.0000
  C   C466      1.0  0.47455  0.53857  0.49070  1.0000
  H   H532      1.0  0.54570  0.00286  0.32083  1.0000
  H   H533      1.0  0.51314  0.54779  0.99881  1.0000
  H   H534      1.0  0.47946  0.89194  0.02719  1.0000
  H   H535      1.0  0.66905  0.59346  0.07139  1.0000
  H   H536      1.0  0.49197  0.98460  0.33282  1.0000
  C   C467      1.0  0.67219  0.61853  0.02732  1.0000
  H   H537      1.0  0.35181  0.94999  0.23290  1.0000
  H   H538      1.0  0.41657  0.97297  0.49515  1.0000
  H   H539      1.0  0.43471  0.52153  0.02500  1.0000
  N   N29       1.0  0.36522  0.91308  0.48995  1.0000
  H   H540      1.0  0.64263  0.65721  0.99912  1.0000
  H   H541      1.0  0.59387  0.82344  0.00135  1.0000
  H   H542      1.0  0.55321  0.54892  0.51908  1.0000
  Fe  Fe59      1.0  0.54436  0.66025  0.96143  1.0000
  S   S119      1.0  0.57877  0.70432  0.93756  1.0000
  H   H543      1.0  0.44398  0.68415  0.98519  1.0000
  H   H544      1.0  0.36996  0.90264  0.54019  1.0000
  H   H545      1.0  0.63010  0.91052  0.54829  1.0000
  H   H546      1.0  0.63770  0.78190  0.60981  1.0000
  C   C468      1.0  0.58141  0.98698  0.78364  1.0000
  C   C469      1.0  0.57043  0.57574  0.78183  1.0000
  Fe  Fe60      1.0  0.61041  0.68518  0.93996  1.0000
  S   S120      1.0  0.64285  0.68974  0.89877  1.0000
  N   N30       1.0  0.67696  0.64997  0.97746  1.0000
  S   S121      1.0  0.57443  0.63982  0.95954  1.0000
  Fe  Fe61      1.0  0.60338  0.88884  0.61260  1.0000
  S   S122      1.0  0.56698  0.89668  0.59091  1.0000
  S   S123      1.0  0.62196  0.85988  0.58938  1.0000
  Fe  Fe62      1.0  0.61867  0.93771  0.66761  1.0000
  S   S124      1.0  0.58418  0.94903  0.64877  1.0000
  S   S125      1.0  0.64280  0.95617  0.71673  1.0000
  Fe  Fe63      1.0  0.55334  0.89834  0.64293  1.0000
  S   S126      1.0  0.50742  0.88216  0.66634  1.0000
  Fe  Fe64      1.0  0.60092  0.94668  0.59883  1.0000
  S   S127      1.0  0.60183  0.97981  0.56157  1.0000
  S   S128      1.0  0.58687  0.88646  0.66449  1.0000
  S   S129      1.0  0.63840  0.93952  0.61755  1.0000
  S   S130      1.0  0.38876  0.94384  0.61584  1.0000
  Fe  Fe65      1.0  0.36913  0.89302  0.61372  1.0000
  S   S131      1.0  0.39907  0.87941  0.58610  1.0000
  Fe  Fe66      1.0  0.64660  0.54210  0.70327  1.0000
  S   S132      1.0  0.62692  0.56887  0.72453  1.0000
  C   C470      1.0  0.36388  0.96907  0.97952  1.0000
  C   C471      1.0  0.55301  0.60173  0.74585  1.0000
  H   H547      1.0  0.61542  0.66878  0.57285  1.0000
  C   C472      1.0  0.65005  0.77037  0.61920  1.0000
  Fe  Fe67      1.0  0.62942  0.68411  0.50017  1.0000
  H   H548      1.0  0.53807  0.64501  0.87952  1.0000
  H   H549      1.0  0.59059  0.67643  0.85830  1.0000
  H   H550      1.0  0.46807  0.67579  0.96082  1.0000
  H   H551      1.0  0.35524  0.86650  0.49758  1.0000
  C   C473      1.0  0.53586  0.99617  0.54450  1.0000
  H   H552      1.0  0.47984  0.55058  0.99235  1.0000
  H   H553      1.0  0.66877  0.51423  0.63565  1.0000
  C   C474      1.0  0.40542  0.00710  0.75295  1.0000
  C   C475      1.0  0.42944  0.88077  0.60849  1.0000
  C   C476      1.0  0.43270  0.88716  0.64203  1.0000
  C   C477      1.0  0.45679  0.88763  0.65949  1.0000
  C   C478      1.0  0.47823  0.88253  0.64338  1.0000
  C   C479      1.0  0.47548  0.87694  0.60966  1.0000
  C   C480      1.0  0.45091  0.87571  0.59234  1.0000
  H   H554      1.0  0.41627  0.89109  0.65468  1.0000
  H   H555      1.0  0.45867  0.89174  0.68560  1.0000
  H   H556      1.0  0.49165  0.87249  0.59721  1.0000
  H   H557      1.0  0.44831  0.87045  0.56646  1.0000
  C   C481      1.0  0.64276  0.65980  0.87553  1.0000
  C   C482      1.0  0.62282  0.62869  0.88233  1.0000
  C   C483      1.0  0.62393  0.60579  0.86348  1.0000
  H   H558      1.0  0.52599  0.98372  0.61050  1.0000
  Fe  Fe68      1.0  0.59400  0.72202  0.98905  1.0000
  H   H559      1.0  0.60652  0.62223  0.90205  1.0000
  H   H560      1.0  0.60852  0.58183  0.86907  1.0000
  C   C484      1.0  0.66438  0.64472  0.83041  1.0000
  H   H561      1.0  0.62292  0.57031  0.56882  1.0000
  H   H562      1.0  0.49903  0.54660  0.90619  1.0000
  C   C485      1.0  0.65910  0.67178  0.57018  1.0000
  H   H563      1.0  0.43349  0.58236  0.95620  1.0000
  H   H564      1.0  0.56021  0.59464  0.72327  1.0000
  C   C486      1.0  0.48475  0.55427  0.91746  1.0000
  C   C487      1.0  0.53416  0.59956  0.81586  1.0000
  C   C488      1.0  0.57542  0.80848  0.55690  1.0000
  C   C489      1.0  0.60649  0.82620  0.56440  1.0000
  C   C490      1.0  0.62657  0.81754  0.55098  1.0000
  C   C491      1.0  0.61589  0.79141  0.53067  1.0000
  H   H565      1.0  0.64246  0.87691  0.52182  1.0000
  H   H566      1.0  0.55958  0.81473  0.56694  1.0000
  H   H567      1.0  0.65068  0.83156  0.55586  1.0000
  H   H568      1.0  0.63181  0.78557  0.52004  1.0000
  H   H569      1.0  0.52172  0.70219  0.96827  1.0000
  H   H570      1.0  0.38129  0.96471  0.81824  1.0000
  C   C492      1.0  0.49735  0.58522  0.92638  1.0000
  C   C493      1.0  0.47893  0.59553  0.94020  1.0000
  C   C494      1.0  0.53751  0.00018  0.80674  1.0000
  C   C495      1.0  0.43544  0.54334  0.93749  1.0000
  C   C496      1.0  0.58476  0.77345  0.52341  1.0000
  C   C497      1.0  0.56597  0.58685  0.56997  1.0000
  C   C498      1.0  0.38103  0.92172  0.52215  1.0000
  H   H571      1.0  0.61118  0.61791  0.74117  1.0000
  H   H572      1.0  0.50909  0.94290  0.60725  1.0000
  C   C499      1.0  0.35598  0.92750  0.78452  1.0000
  H   H573      1.0  0.54182  0.57621  0.56182  1.0000
  H   H574      1.0  0.55392  0.97968  0.70593  1.0000
  Fe  Fe69      1.0  0.66067  0.60785  0.69369  1.0000
  H   H575      1.0  0.56688  0.59262  0.59640  1.0000
  S   S133      1.0  0.58469  0.67457  0.52103  1.0000
  C   C500      1.0  0.65126  0.99061  0.73761  1.0000
  H   H576      1.0  0.59955  0.98318  0.77588  1.0000
  N   N31       1.0  0.51577  0.96645  0.56101  1.0000
  H   H577      1.0  0.52113  0.60122  0.92165  1.0000
  S   S134      1.0  0.63673  0.63163  0.67330  1.0000
  S   S135      1.0  0.49406  0.63459  0.95007  1.0000
  C   C501      1.0  0.35900  0.99984  0.50349  1.0000
  H   H578      1.0  0.50204  0.59577  0.85284  1.0000
  H   H579      1.0  0.66889  0.78652  0.63559  1.0000
  H   H580      1.0  0.37862  0.99822  0.93645  1.0000
  C   C502      1.0  0.58429  0.64512  0.81905  1.0000
  H   H581      1.0  0.61778  0.71742  0.58996  1.0000
  H   H582      1.0  0.62187  0.62970  0.78231  1.0000
  H   H583      1.0  0.50666  0.96641  0.77327  1.0000
  C   C503      1.0  0.38530  0.98569  0.73020  1.0000
  H   H584      1.0  0.59047  0.58075  0.51387  1.0000
  H   H585      1.0  0.38080  0.99717  0.61588  1.0000
  H   H586      1.0  0.41146  0.52732  0.94154  1.0000
  H   H587      1.0  0.60421  0.64781  0.62882  1.0000
  H   H588      1.0  0.49312  0.00914  0.95917  1.0000
  H   H589      1.0  0.64050  0.72440  0.55447  1.0000
  H   H590      1.0  0.54663  0.55775  0.78753  1.0000
  C   C504      1.0  0.57688  0.55952  0.52869  1.0000
  H   H591      1.0  0.62879  0.61857  0.98637  1.0000
  C   C505      1.0  0.56472  0.78244  0.53638  1.0000
  C   C506      1.0  0.37728  0.99755  0.96288  1.0000
  H   H592      1.0  0.54063  0.76895  0.53071  1.0000
  C   C507      1.0  0.56412  0.61706  0.80286  1.0000
  C   C508      1.0  0.54522  0.63730  0.85829  1.0000
  C   C509      1.0  0.45380  0.53326  0.92301  1.0000
  C   C510      1.0  0.62532  0.65277  0.61711  1.0000
  H   H593      1.0  0.60771  0.65976  0.81158  1.0000
  H   H594      1.0  0.66310  0.60375  0.96156  1.0000
  C   C511      1.0  0.48399  0.96052  0.56239  1.0000
  H   H595      1.0  0.51791  0.52326  0.55771  1.0000
  H   H596      1.0  0.57791  0.56685  0.76110  1.0000
  H   H597      1.0  0.40508  0.92712  0.52021  1.0000
  C   C512      1.0  0.64599  0.64693  0.63369  1.0000
  C   C513      1.0  0.44792  0.57452  0.94568  1.0000
  Fe  Fe70      1.0  0.66382  0.58614  0.76245  1.0000
  N   N32       1.0  0.54273  0.94668  0.74447  1.0000
  C   C514      1.0  0.56740  0.94024  0.73589  1.0000
  C   C515      1.0  0.51601  0.91717  0.75507  1.0000
  C   C516      1.0  0.53454  0.95727  0.71431  1.0000
  C   C517      1.0  0.55143  0.97025  0.77040  1.0000
  H   H598      1.0  0.52060  0.00550  0.81574  1.0000
  C   C518      1.0  0.52977  0.97777  0.78252  1.0000
  H   H599      1.0  0.59760  0.54242  0.61597  1.0000
  S   S136      1.0  0.62879  0.70640  0.98952  1.0000
  H   H600      1.0  0.55985  0.92162  0.71723  1.0000
  H   H601      1.0  0.52706  0.74029  0.96991  1.0000
  H   H602      1.0  0.50988  0.89864  0.73656  1.0000
  H   H603      1.0  0.49516  0.91874  0.75841  1.0000
  H   H604      1.0  0.52087  0.90922  0.77854  1.0000
  H   H605      1.0  0.52869  0.94058  0.69389  1.0000
  H   H606      1.0  0.51437  0.96004  0.71784  1.0000
  C   C519      1.0  0.65974  0.99752  0.53941  1.0000
  H   H607      1.0  0.50226  0.91876  0.55440  1.0000
  H   H608      1.0  0.60890  0.64986  0.75623  1.0000
  H   H609      1.0  0.61496  0.59143  0.59919  1.0000
  H   H610      1.0  0.62213  0.74627  0.56132  1.0000
  S   S137      1.0  0.39840  0.96621  0.70551  1.0000
  N   N33       1.0  0.57876  0.56651  0.56421  1.0000
  C   C520      1.0  0.61163  0.58403  0.57311  1.0000
  H   H611      1.0  0.47091  0.71233  0.95647  1.0000
  Fe  Fe71      1.0  0.36802  0.93466  0.66592  1.0000
  H   H612      1.0  0.66277  0.72555  0.62318  1.0000
  C   C521      1.0  0.63163  0.66465  0.58528  1.0000
  C   C522      1.0  0.66066  0.99437  0.77055  1.0000
  C   C523      1.0  0.63319  0.99908  0.53527  1.0000
  C   C524      1.0  0.64458  0.61362  0.83729  1.0000
  H   H613      1.0  0.62436  0.60543  0.55832  1.0000
  C   C525      1.0  0.46736  0.69448  0.97478  1.0000
  H   H614      1.0  0.50685  0.93919  0.51709  1.0000
  C   C526      1.0  0.52497  0.60958  0.84318  1.0000
  C   C527      1.0  0.36688  0.99093  0.53283  1.0000
  H   H615      1.0  0.47348  0.95718  0.53779  1.0000
  H   H616      1.0  0.55351  0.62360  0.74022  1.0000
  C   C528      1.0  0.52109  0.71947  0.98475  1.0000
  C   C529      1.0  0.35903  0.94882  0.80811  1.0000
  H   H617      1.0  0.63673  0.64731  0.95630  1.0000
  H   H618      1.0  0.58487  0.57782  0.80331  1.0000
  C   C530      1.0  0.57476  0.65500  0.84623  1.0000
  C   C531      1.0  0.52518  0.96509  0.59516  1.0000
  C   C532      1.0  0.60513  0.62685  0.76313  1.0000
  C   C533      1.0  0.57402  0.52867  0.60856  1.0000
  C   C534      1.0  0.63442  0.73598  0.57361  1.0000
  H   H619      1.0  0.46867  0.93921  0.57637  1.0000
  S   S138      1.0  0.35198  0.88413  0.66577  1.0000
  H   H620      1.0  0.37834  0.99633  0.65973  1.0000
  H   H621      1.0  0.66180  0.98527  0.56005  1.0000
  H   H622      1.0  0.52891  0.58381  0.75043  1.0000
  N   N34       1.0  0.66149  0.75947  0.59187  1.0000
  H   H623      1.0  0.51761  0.57787  0.80509  1.0000
  H   H624      1.0  0.53976  0.94570  0.53983  1.0000
  C   C535      1.0  0.66353  0.66761  0.84952  1.0000
  N   N35       1.0  0.62139  0.89923  0.49686  1.0000
  H   H625      1.0  0.40413  0.99938  0.56472  1.0000
  N   N36       1.0  0.57325  0.60579  0.77397  1.0000
  H   H626      1.0  0.38048  0.94160  0.53318  1.0000
  S   S139      1.0  0.64453  0.58373  0.81396  1.0000
  C   C536      1.0  0.52954  0.51769  0.57631  1.0000
  C   C537      1.0  0.63141  0.92162  0.52430  1.0000
  H   H627      1.0  0.50858  0.98476  0.49978  1.0000
  H   H628      1.0  0.58539  0.54350  0.52340  1.0000
  C   C538      1.0  0.52866  0.00181  0.51256  1.0000
  H   H629      1.0  0.58744  0.96071  0.72509  1.0000
  H   H630      1.0  0.61673  0.93210  0.52656  1.0000
  C   C539      1.0  0.56103  0.53768  0.58306  1.0000
  H   H631      1.0  0.57523  0.93260  0.75751  1.0000
  C   C540      1.0  0.51607  0.94143  0.54224  1.0000
  S   S140      1.0  0.66843  0.68924  0.53134  1.0000
  H   H632      1.0  0.57869  0.60878  0.55607  1.0000
  C   C541      1.0  0.67319  0.65327  0.61844  1.0000
  C   C542      1.0  0.64493  0.64292  0.97985  1.0000
  C   C543      1.0  0.64118  0.88539  0.49706  1.0000
  H   H633      1.0  0.48319  0.97989  0.57450  1.0000
  H   H634      1.0  0.58717  0.86513  0.52867  1.0000
  H   H635      1.0  0.63367  0.75101  0.63498  1.0000
  H   H636      1.0  0.37600  0.92694  0.77628  1.0000
  C   C544      1.0  0.35529  0.97981  0.72817  1.0000
  C   C545      1.0  0.34537  0.99496  0.74942  1.0000
  C   C546      1.0  0.39754  0.00598  0.54242  1.0000
  H   H637      1.0  0.45396  0.73399  0.99476  1.0000
  H   H638      1.0  0.65561  0.94017  0.52136  1.0000
  C   C547      1.0  0.58950  0.87485  0.50364  1.0000
  H   H639      1.0  0.53868  0.00421  0.95711  1.0000
  H   H640      1.0  0.66284  0.97643  0.78253  1.0000
  H   H641      1.0  0.48506  0.52574  0.49912  1.0000
  H   H642      1.0  0.35494  0.94800  0.96561  1.0000
  H   H643      1.0  0.54788  0.96675  0.59596  1.0000
  S   S141      1.0  0.67740  0.57944  0.66854  1.0000
  H   H644      1.0  0.56153  0.52507  0.83703  1.0000
  C   C548      1.0  0.67552  0.89214  0.99109  1.0000
  H   H645      1.0  0.67114  0.63041  0.92907  1.0000
  S   S142      1.0  0.56997  0.74086  0.49685  1.0000
  C   C549      1.0  0.67562  0.86721  0.97618  1.0000
  H   H646      1.0  0.67093  0.82269  0.98330  1.0000
  H   H647      1.0  0.57370  0.88405  0.50199  1.0000
  H   H648      1.0  0.52369  0.51364  0.88107  1.0000
  C   C550      1.0  0.58896  0.00948  0.80768  1.0000
  C   C551      1.0  0.67180  0.84246  0.99495  1.0000
  H   H649      1.0  0.98060  0.29437  0.36480  1.0000
  C   C552      1.0  0.70918  0.09210  0.07614  1.0000
  S   S143      1.0  0.73581  0.10337  0.38754  1.0000
  S   S144      1.0  0.70959  0.04331  0.45987  1.0000
  N   N37       1.0  0.69449  0.49540  0.15957  1.0000
  C   C553      1.0  0.74747  0.12063  0.00102  1.0000
  H   H650      1.0  0.92466  0.33491  0.37512  1.0000
  Fe  Fe72      1.0  0.73245  0.14287  0.40896  1.0000
  S   S145      1.0  0.77694  0.18934  0.41505  1.0000
  H   H651      1.0  0.91224  0.41935  0.07154  1.0000
  C   C554      1.0  0.88196  0.23354  0.39993  1.0000
  S   S146      1.0  0.92388  0.30174  0.04859  1.0000
  H   H652      1.0  0.98871  0.32204  0.39634  1.0000
  Fe  Fe73      1.0  0.93748  0.38333  0.02871  1.0000
  S   S147      1.0  0.90359  0.35232  0.06611  1.0000
  H   H653      1.0  0.82804  0.17589  0.48050  1.0000
  Fe  Fe74      1.0  0.94088  0.34305  0.08206  1.0000
  S   S148      1.0  0.95112  0.34533  0.13695  1.0000
  Fe  Fe75      1.0  0.88955  0.31370  0.02929  1.0000
  H   H654      1.0  0.76132  0.18359  0.48522  1.0000
  S   S149      1.0  0.97538  0.37621  0.04642  1.0000
  C   C555      1.0  0.95864  0.48793  0.15968  1.0000
  C   C556      1.0  0.79599  0.21173  0.45040  1.0000
  C   C557      1.0  0.78368  0.20357  0.48191  1.0000
  S   S150      1.0  0.95008  0.43154  0.01323  1.0000
  S   S151      1.0  0.90042  0.50964  0.08449  1.0000
  C   C558      1.0  0.84168  0.25589  0.47396  1.0000
  C   C559      1.0  0.82481  0.23832  0.44663  1.0000
  H   H655      1.0  0.95711  0.49028  0.99952  1.0000
  H   H656      1.0  0.82300  0.41628  0.42861  1.0000
  H   H657      1.0  0.86411  0.27577  0.47058  1.0000
  H   H658      1.0  0.83434  0.24517  0.42236  1.0000
  C   C560      1.0  0.91414  0.48793  0.06452  1.0000
  C   C561      1.0  0.90728  0.45928  0.07732  1.0000
  C   C562      1.0  0.91797  0.44157  0.06179  1.0000
  Fe  Fe76      1.0  0.69383  0.09169  0.35774  1.0000
  C   C563      1.0  0.99773  0.43644  0.12014  1.0000
  C   C564      1.0  0.93218  0.49902  0.03644  1.0000
  Fe  Fe77      1.0  0.95580  0.33622  0.01171  1.0000
  C   C565      1.0  0.80849  0.32139  0.48625  1.0000
  S   S152      1.0  0.83890  0.28056  0.01651  1.0000
  H   H659      1.0  0.82303  0.36826  0.43677  1.0000
  C   C566      1.0  0.92740  0.28404  0.39001  1.0000
  C   C567      1.0  0.71339  0.10926  0.04700  1.0000
  C   C568      1.0  0.93950  0.30399  0.33299  1.0000
  H   H660      1.0  0.79209  0.15221  0.04401  1.0000
  C   C569      1.0  0.93346  0.28569  0.42417  1.0000
  S   S153      1.0  0.70181  0.11494  0.45019  1.0000
  C   C570      1.0  0.98778  0.36159  0.15544  1.0000
  C   C571      1.0  0.97839  0.48979  0.18440  1.0000
  H   H661      1.0  0.97019  0.35982  0.20387  1.0000
  H   H662      1.0  0.00931  0.47141  0.38712  1.0000
  H   H663      1.0  0.91660  0.30117  0.32842  1.0000
  H   H664      1.0  0.70073  0.48210  0.20771  1.0000
  C   C572      1.0  0.68663  0.10376  0.03014  1.0000
  C   C573      1.0  0.00108  0.37684  0.45090  1.0000
  H   H665      1.0  0.76170  0.10428  0.45634  1.0000
  H   H666      1.0  0.76850  0.14369  0.07940  1.0000
  C   C574      1.0  0.86080  0.34781  0.46793  1.0000
  C   C575      1.0  0.68270  0.02581  0.02309  1.0000
  H   H667      1.0  0.68805  0.11569  0.00772  1.0000
  C   C576      1.0  0.78072  0.12446  0.46894  1.0000
  H   H668      1.0  0.99837  0.40564  0.41377  1.0000
  H   H669      1.0  0.98111  0.47020  0.18940  1.0000
  S   S154      1.0  0.69302  0.13375  0.37553  1.0000
  H   H670      1.0  0.80834  0.29944  0.49051  1.0000
  C   C577      1.0  0.90085  0.25723  0.37849  1.0000
  C   C578      1.0  0.74695  0.16209  0.03005  1.0000
  H   H671      1.0  0.96408  0.35812  0.36297  1.0000
  H   H672      1.0  0.98307  0.41222  0.11438  1.0000
  C   C579      1.0  0.88886  0.23580  0.43319  1.0000
  H   H673      1.0  0.70653  0.03559  0.02931  1.0000
  N   N38       1.0  0.94800  0.30965  0.36818  1.0000
  H   H674      1.0  0.87397  0.21752  0.44965  1.0000
  H   H675      1.0  0.69200  0.44541  0.12549  1.0000
  C   C580      1.0  0.99046  0.36630  0.18954  1.0000
  H   H676      1.0  0.72372  0.49829  0.11963  1.0000
  H   H677      1.0  0.95460  0.34415  0.40382  1.0000
  C   C581      1.0  0.91448  0.26187  0.44532  1.0000
  C   C582      1.0  0.69778  0.50016  0.19553  1.0000
  H   H678      1.0  0.88397  0.36845  0.47069  1.0000
  C   C583      1.0  0.76953  0.13514  0.05457  1.0000
  Fe  Fe78      1.0  0.70273  0.07516  0.42701  1.0000
  C   C584      1.0  0.93586  0.45263  0.03355  1.0000
  H   H679      1.0  0.94619  0.46699  0.14538  1.0000
  H   H680      1.0  0.95587  0.32364  0.31745  1.0000
  C   C585      1.0  0.97955  0.31527  0.37117  1.0000
  H   H681      1.0  0.98431  0.37769  0.46647  1.0000
  H   H682      1.0  0.80212  0.12763  0.45786  1.0000
  H   H683      1.0  0.77042  0.17982  0.02235  1.0000
  H   H684      1.0  0.76964  0.11320  0.05695  1.0000
  H   H685      1.0  0.89328  0.45053  0.09901  1.0000
  C   C586      1.0  0.99515  0.45847  0.10220  1.0000
  H   H686      1.0  0.85350  0.34724  0.44220  1.0000
  H   H687      1.0  0.93966  0.28326  0.32385  1.0000
  C   C587      1.0  0.94779  0.33788  0.37789  1.0000
  H   H688      1.0  0.95297  0.30549  0.43498  1.0000
  C   C588      1.0  0.94316  0.48152  0.02119  1.0000
  H   H689      1.0  0.73139  0.16241  0.01109  1.0000
  N   N39       1.0  0.74389  0.13135  0.03366  1.0000
  S   S155      1.0  0.68795  0.08021  0.30306  1.0000
  C   C589      1.0  0.72396  0.50008  0.14680  1.0000
  H   H690      1.0  0.91970  0.26386  0.47130  1.0000
  C   C590      1.0  0.68082  0.02737  0.48962  1.0000
  H   H691      1.0  0.89404  0.25398  0.35310  1.0000
  H   H692      1.0  0.97861  0.45140  0.08246  1.0000
  H   H693      1.0  0.86152  0.21345  0.39080  1.0000
  H   H694      1.0  0.72799  0.09422  0.09051  1.0000
  H   H695      1.0  0.86306  0.32711  0.47129  1.0000
  H   H696      1.0  0.99580  0.33438  0.35500  1.0000
  N   N40       1.0  0.83921  0.34853  0.49187  1.0000
  H   H697      1.0  0.72983  0.48350  0.15770  1.0000
  H   H698      1.0  0.74206  0.16997  0.05353  1.0000
  H   H699      1.0  0.77820  0.14453  0.46254  1.0000
  S   S156      1.0  0.99898  0.33390  0.49349  1.0000
  H   H700      1.0  0.68089  0.06159  0.23576  1.0000
  H   H701      1.0  0.80032  0.32032  0.46078  1.0000
  H   H702      1.0  0.74375  0.09692  0.00232  1.0000
  C   C591      1.0  0.67996  0.07074  0.08732  1.0000
  H   H703      1.0  0.67772  0.49985  0.20681  1.0000
  C   C592      1.0  0.00921  0.39281  0.42113  1.0000
  C   C593      1.0  0.82947  0.38398  0.45716  1.0000
  H   H704      1.0  0.83806  0.45419  0.47355  1.0000
  H   H705      1.0  0.93899  0.51023  0.13392  1.0000
  C   C594      1.0  0.82933  0.41138  0.45223  1.0000
  C   C595      1.0  0.83820  0.37721  0.48767  1.0000
  C   C596      1.0  0.83772  0.43274  0.47750  1.0000
  H   H706      1.0  0.85277  0.44347  0.52742  1.0000
  C   C597      1.0  0.00609  0.47951  0.91362  1.0000
  S   S157      1.0  0.70451  0.08283  0.88947  1.0000
  H   H707      1.0  0.99941  0.44033  0.58805  1.0000
  S   S158      1.0  0.69943  0.14145  0.86241  1.0000
  C   C598      1.0  0.74994  0.11419  0.51688  1.0000
  C   C599      1.0  0.84594  0.42664  0.50786  1.0000
  Fe  Fe79      1.0  0.71989  0.13148  0.90652  1.0000
  S   S159      1.0  0.76924  0.16080  0.92522  1.0000
  H   H708      1.0  0.89711  0.44426  0.60988  1.0000
  Fe  Fe80      1.0  0.96511  0.34024  0.52300  1.0000
  S   S160      1.0  0.94032  0.30950  0.56582  1.0000
  S   S161      1.0  0.92087  0.34603  0.99075  1.0000
  Fe  Fe81      1.0  0.93481  0.37836  0.53165  1.0000
  S   S162      1.0  0.90801  0.35070  0.57486  1.0000
  H   H709      1.0  0.79080  0.21452  0.53351  1.0000
  Fe  Fe82      1.0  0.95194  0.35382  0.59158  1.0000
  S   S163      1.0  0.96778  0.37204  0.64360  1.0000
  Fe  Fe83      1.0  0.89904  0.30941  0.54466  1.0000
  S   S164      1.0  0.85057  0.26773  0.54107  1.0000
  S   S165      1.0  0.97911  0.38421  0.54973  1.0000
  H   H710      1.0  0.74589  0.10732  0.54302  1.0000
  C   C600      1.0  0.78777  0.19386  0.95108  1.0000
  C   C601      1.0  0.77349  0.20991  0.96164  1.0000
  C   C602      1.0  0.85147  0.19626  0.55844  1.0000
  H   H711      1.0  0.80471  0.09561  0.50331  1.0000
  H   H712      1.0  0.85033  0.32384  0.52737  1.0000
  C   C603      1.0  0.81796  0.20427  0.96132  1.0000
  H   H713      1.0  0.75033  0.20232  0.95406  1.0000
  N   N41       1.0  0.99397  0.46741  0.62564  1.0000
  H   H714      1.0  0.69166  0.04917  0.97641  1.0000
  H   H715      1.0  0.79012  0.12587  0.57132  1.0000
  C   C604      1.0  0.90916  0.47865  0.57250  1.0000
  C   C605      1.0  0.90546  0.45107  0.58516  1.0000
  C   C606      1.0  0.91246  0.43227  0.56604  1.0000
  C   C607      1.0  0.92306  0.44087  0.53402  1.0000
  C   C608      1.0  0.78624  0.51009  0.62241  1.0000
  C   C609      1.0  0.91978  0.48726  0.54050  1.0000
  H   H716      1.0  0.70962  0.50844  0.70549  1.0000
  H   H717      1.0  0.77854  0.08492  0.53702  1.0000
  C   C610      1.0  0.80483  0.14616  0.52275  1.0000
  H   H718      1.0  0.94294  0.26364  0.89389  1.0000
  H   H719      1.0  0.83013  0.16957  0.60142  1.0000
  H   H720      1.0  0.95077  0.45119  0.64962  1.0000
  C   C611      1.0  0.92656  0.46832  0.52128  1.0000
  C   C612      1.0  0.84934  0.34534  0.52499  1.0000
  C   C613      1.0  0.73271  0.49190  0.61310  1.0000
  S   S166      1.0  0.90018  0.50153  0.59741  1.0000
  H   H721      1.0  0.71335  0.48013  0.59692  1.0000
  H   H722      1.0  0.90946  0.41108  0.57602  1.0000
  H   H723      1.0  0.82924  0.19201  0.95348  1.0000
  C   C614      1.0  0.81980  0.24695  0.99150  1.0000
  C   C615      1.0  0.73027  0.50429  0.64343  1.0000
  C   C616      1.0  0.67789  0.46834  0.65833  1.0000
  H   H724      1.0  0.79138  0.32168  0.50306  1.0000
  H   H725      1.0  0.77061  0.13592  0.99061  1.0000
  H   H726      1.0  0.99440  0.40139  0.70482  1.0000
  C   C617      1.0  0.83382  0.23052  0.98143  1.0000
  H   H727      1.0  0.83352  0.34440  0.54438  1.0000
  C   C618      1.0  0.82781  0.17289  0.50667  1.0000
  H   H728      1.0  0.83130  0.29527  0.93220  1.0000
  H   H729      1.0  0.91634  0.26220  0.86402  1.0000
  H   H730      1.0  0.95113  0.42518  0.61959  1.0000
  H   H731      1.0  0.85312  0.39644  0.53713  1.0000
  H   H732      1.0  0.76217  0.48665  0.57888  1.0000
  C   C619      1.0  0.98654  0.48283  0.59915  1.0000
  H   H733      1.0  0.86759  0.21806  0.51197  1.0000
  C   C620      1.0  0.85081  0.19740  0.52444  1.0000
  C   C621      1.0  0.84611  0.39931  0.51308  1.0000
  N   N42       1.0  0.91008  0.27515  0.91239  1.0000
  C   C622      1.0  0.91874  0.25748  0.89014  1.0000
  C   C623      1.0  0.93283  0.30826  0.90769  1.0000
  C   C624      1.0  0.91228  0.26639  0.94646  1.0000
  C   C625      1.0  0.87876  0.26928  0.90668  1.0000
  C   C626      1.0  0.85701  0.24447  0.88711  1.0000
  C   C627      1.0  0.86852  0.28742  0.92267  1.0000
  C   C628      1.0  0.82715  0.23870  0.88360  1.0000
  C   C629      1.0  0.83874  0.28163  0.91877  1.0000
  C   C630      1.0  0.81808  0.25731  0.89928  1.0000
  S   S167      1.0  0.92336  0.33716  0.50041  1.0000
  C   C631      1.0  0.80039  0.22133  0.50924  1.0000
  S   S168      1.0  0.98288  0.32442  0.97687  1.0000
  H   H734      1.0  0.92984  0.31665  0.88357  1.0000
  H   H735      1.0  0.95670  0.31285  0.90906  1.0000
  H   H736      1.0  0.93165  0.32308  0.92707  1.0000
  H   H737      1.0  0.89496  0.24196  0.95130  1.0000
  H   H738      1.0  0.93514  0.26934  0.95170  1.0000
  H   H739      1.0  0.90872  0.28070  0.96472  1.0000
  H   H740      1.0  0.86219  0.22870  0.87487  1.0000
  H   H741      1.0  0.88306  0.30556  0.93934  1.0000
  H   H742      1.0  0.81058  0.21900  0.86959  1.0000
  H   H743      1.0  0.90485  0.23232  0.89474  1.0000
  H   H744      1.0  0.79468  0.25217  0.89734  1.0000
  H   H745      1.0  0.99822  0.38790  0.97355  1.0000
  H   H746      1.0  0.96877  0.42914  0.65843  1.0000
  C   C632      1.0  0.68349  0.01149  0.51641  1.0000
  C   C633      1.0  0.82967  0.24735  0.50553  1.0000
  H   H747      1.0  0.87269  0.36473  0.53035  1.0000
  C   C634      1.0  0.82954  0.17028  0.57492  1.0000
  H   H748      1.0  0.76435  0.07178  0.49686  1.0000
  H   H749      1.0  0.97333  0.46614  0.95276  1.0000
  H   H750      1.0  0.73068  0.09520  0.50316  1.0000
  H   H751      1.0  0.73111  0.12030  0.98268  1.0000
  H   H752      1.0  0.95910  0.50512  0.93930  1.0000
  S   S169      1.0  0.93174  0.41768  0.50921  1.0000
  H   H753      1.0  0.86876  0.21587  0.57202  1.0000
  N   N43       1.0  0.70082  0.50125  0.65347  1.0000
  H   H754      1.0  0.69167  0.17358  0.77785  1.0000
  H   H755      1.0  0.00881  0.45804  0.83906  1.0000
  H   H756      1.0  0.74795  0.13507  0.51400  1.0000
  H   H757      1.0  0.97496  0.46713  0.57811  1.0000
  H   H758      1.0  0.92260  0.50843  0.53051  1.0000
  C   C635      1.0  0.96491  0.44221  0.63891  1.0000
  H   H759      1.0  0.85682  0.23804  0.98939  1.0000
  C   C636      1.0  0.99902  0.37470  0.66638  1.0000
  Fe  Fe84      1.0  0.68077  0.09173  0.84783  1.0000
  H   H760      1.0  0.93460  0.47502  0.49645  1.0000
  C   C637      1.0  0.80663  0.14549  0.55742  1.0000
  H   H761      1.0  0.00953  0.34831  0.63305  1.0000
  C   C638      1.0  0.00790  0.35499  0.95141  1.0000
  C   C639      1.0  0.78939  0.23618  0.98179  1.0000
  H   H762      1.0  0.97051  0.49042  0.60759  1.0000
  H   H763      1.0  0.00749  0.50299  0.58924  1.0000
  N   N44       1.0  0.77993  0.11981  0.50494  1.0000
  C   C640      1.0  0.78204  0.09190  0.51087  1.0000
  C   C641      1.0  0.98423  0.48170  0.93232  1.0000
  H   H764      1.0  0.68561  0.45794  0.67735  1.0000
  H   H765      1.0  0.68326  0.50024  0.60474  1.0000
  H   H766      1.0  0.77820  0.24855  0.98958  1.0000
  C   C642      1.0  0.00711  0.39082  0.69629  1.0000
  C   C643      1.0  0.76041  0.49512  0.60269  1.0000
  C   C644      1.0  0.97623  0.50366  0.92481  1.0000
  S   S170      1.0  0.67861  0.11750  0.93805  1.0000
  Fe  Fe85      1.0  0.88731  0.59961  0.05428  1.0000
  S   S171      1.0  0.91204  0.59103  0.09494  1.0000
  S   S172      1.0  0.84633  0.60670  0.06215  1.0000
  C   C645      1.0  0.68168  0.61506  0.05837  1.0000
  S   S173      1.0  0.95497  0.58598  0.03784  1.0000
  S   S174      1.0  0.93609  0.60319  0.46813  1.0000
  Fe  Fe86      1.0  0.91038  0.55464  0.06168  1.0000
  Fe  Fe87      1.0  0.95461  0.62316  0.06737  1.0000
  C   C646      1.0  0.99842  0.63666  0.39356  1.0000
  C   C647      1.0  0.97092  0.61750  0.44568  1.0000
  S   S175      1.0  0.93082  0.63506  0.02860  1.0000
  C   C648      1.0  0.72265  0.66775  0.05719  1.0000
  H   H767      1.0  0.70619  0.95342  0.00986  1.0000
  S   S176      1.0  0.72013  0.63217  0.21774  1.0000
  C   C649      1.0  0.97405  0.57705  0.13041  1.0000
  Fe  Fe88      1.0  0.71881  0.59101  0.19413  1.0000
  S   S177      1.0  0.76008  0.58444  0.18676  1.0000
  C   C650      1.0  0.97034  0.54062  0.17146  1.0000
  H   H768      1.0  0.71456  0.69891  0.36569  1.0000
  C   C651      1.0  0.71112  0.70213  0.34014  1.0000
  C   C652      1.0  0.82251  0.60006  0.09712  1.0000
  C   C653      1.0  0.79818  0.60591  0.09480  1.0000
  C   C654      1.0  0.77890  0.60133  0.12182  1.0000
  C   C655      1.0  0.78375  0.59091  0.15173  1.0000
  C   C656      1.0  0.80787  0.58477  0.15399  1.0000
  C   C657      1.0  0.82711  0.58930  0.12696  1.0000
  H   H769      1.0  0.79434  0.61424  0.07193  1.0000
  H   H770      1.0  0.76051  0.60616  0.11952  1.0000
  H   H771      1.0  0.81192  0.57670  0.17692  1.0000
  H   H772      1.0  0.84564  0.58468  0.12927  1.0000
  S   S178      1.0  0.68788  0.58784  0.15324  1.0000
  H   H773      1.0  0.72652  0.69403  0.01534  1.0000
  C   C658      1.0  0.97111  0.62353  0.41196  1.0000
  C   C659      1.0  0.71338  0.67151  0.02611  1.0000
  H   H774      1.0  0.95002  0.61847  0.40007  1.0000
  H   H775      1.0  0.71791  0.52283  0.20201  1.0000
  S   S179      1.0  0.69289  0.66778  0.15071  1.0000
  C   C660      1.0  0.98499  0.67072  0.18053  1.0000
  H   H776      1.0  0.95947  0.65615  0.13520  1.0000
  N   N45       1.0  0.69324  0.71031  0.23830  1.0000
  H   H777      1.0  0.71711  0.72284  0.19190  1.0000
  C   C661      1.0  0.70689  0.63961  0.07322  1.0000
  C   C662      1.0  0.71914  0.68813  0.31588  1.0000
  H   H778      1.0  0.93744  0.52092  0.02625  1.0000
  H   H779      1.0  0.74189  0.68686  0.06929  1.0000
  H   H780      1.0  0.92378  0.54601  0.19323  1.0000
  S   S180      1.0  0.88314  0.56097  0.02233  1.0000
  H   H781      1.0  0.70089  0.96768  0.04771  1.0000
  H   H782      1.0  0.68300  0.70236  0.10082  1.0000
  H   H783      1.0  0.71895  0.94485  0.04732  1.0000
  N   N46       1.0  0.96497  0.56637  0.16457  1.0000
  C   C663      1.0  0.98098  0.66281  0.14712  1.0000
  H   H784      1.0  0.00838  0.65505  0.02052  1.0000
  Fe  Fe89      1.0  0.68660  0.62652  0.17861  1.0000
  C   C664      1.0  0.72058  0.71863  0.21791  1.0000
  H   H785      1.0  0.96016  0.55890  0.11213  1.0000
  H   H786      1.0  0.68486  0.51533  0.11796  1.0000
  H   H787      1.0  0.71852  0.67818  0.26540  1.0000
  C   C665      1.0  0.93206  0.55588  0.16846  1.0000
  H   H788      1.0  0.97435  0.67733  0.47335  1.0000
  C   C666      1.0  0.70040  0.94743  0.03606  1.0000
  C   C667      1.0  0.99839  0.62387  0.46048  1.0000
  H   H789      1.0  0.96645  0.66995  0.19436  1.0000
  C   C668      1.0  0.99085  0.54201  0.19610  1.0000
  H   H790      1.0  0.91753  0.53807  0.15016  1.0000
  C   C669      1.0  0.69728  0.71898  0.33160  1.0000
  C   C670      1.0  0.95467  0.51291  0.15324  1.0000
  H   H791      1.0  0.72609  0.69993  0.21665  1.0000
  Fe  Fe90      1.0  0.92870  0.59567  0.00028  1.0000
  H   H792      1.0  0.72852  0.67374  0.32265  1.0000
  H   H793      1.0  0.74100  0.73965  0.22739  1.0000
  H   H794      1.0  0.99192  0.69027  0.41721  1.0000
  H   H795      1.0  0.74330  0.52347  0.15292  1.0000
  C   C671      1.0  0.69987  0.70842  0.27328  1.0000
  H   H796      1.0  0.00416  0.56218  0.21107  1.0000
  C   C672      1.0  0.99849  0.69278  0.46946  1.0000
  Fe  Fe91      1.0  0.67820  0.59908  0.24632  1.0000
  C   C673      1.0  0.00511  0.66424  0.12917  1.0000
  H   H797      1.0  0.99852  0.61826  0.48594  1.0000
  H   H798      1.0  0.92739  0.57505  0.16497  1.0000
  H   H799      1.0  0.71384  0.63710  0.09760  1.0000
  H   H800      1.0  0.99811  0.64155  0.36782  1.0000
  C   C674      1.0  0.68776  0.64687  0.01018  1.0000
  H   H801      1.0  0.70969  0.54270  0.14778  1.0000
  S   S181      1.0  0.00160  0.65518  0.08740  1.0000
  C   C675      1.0  0.71334  0.69090  0.28299  1.0000
  H   H802      1.0  0.97621  0.58702  0.21271  1.0000
  C   C676      1.0  0.69168  0.72219  0.29871  1.0000
  C   C677      1.0  0.68946  0.51930  0.14468  1.0000
  C   C678      1.0  0.99462  0.51684  0.20241  1.0000
  H   H803      1.0  0.68119  0.91339  0.09013  1.0000
  S   S182      1.0  0.67984  0.55798  0.22659  1.0000
  H   H804      1.0  0.97090  0.59685  0.12462  1.0000
  C   C679      1.0  0.98226  0.59325  0.18654  1.0000
  H   H805      1.0  0.68985  0.72867  0.35072  1.0000
  H   H806      1.0  0.70149  0.75660  0.24051  1.0000
  H   H807      1.0  0.97717  0.61182  0.18119  1.0000
  H   H808      1.0  0.00738  0.60369  0.18356  1.0000
  C   C680      1.0  0.00836  0.69976  0.43704  1.0000
  C   C681      1.0  0.68391  0.73341  0.23169  1.0000
  H   H809      1.0  0.99845  0.58455  0.12610  1.0000
  H   H810      1.0  0.68064  0.73537  0.20499  1.0000
  H   H811      1.0  0.68022  0.73491  0.29403  1.0000
  H   H812      1.0  0.01008  0.51844  0.22163  1.0000
  Fe  Fe92      1.0  0.87270  0.58308  0.57380  1.0000
  S   S183      1.0  0.89778  0.57552  0.61464  1.0000
  S   S184      1.0  0.82622  0.58037  0.57993  1.0000
  C   C682      1.0  0.69341  0.77722  0.54070  1.0000
  S   S185      1.0  0.95104  0.58563  0.56060  1.0000
  H   H813      1.0  0.93830  0.60361  0.74454  1.0000
  Fe  Fe93      1.0  0.90632  0.54671  0.57869  1.0000
  Fe  Fe94      1.0  0.93991  0.61488  0.59282  1.0000
  S   S186      1.0  0.97507  0.65489  0.62265  1.0000
  S   S187      1.0  0.87838  0.55137  0.53881  1.0000
  S   S188      1.0  0.91469  0.62458  0.55383  1.0000
  H   H814      1.0  0.71942  0.68783  0.95967  1.0000
  H   H815      1.0  0.68555  0.73443  0.58721  1.0000
  S   S189      1.0  0.69730  0.62667  0.73236  1.0000
  H   H816      1.0  0.97538  0.69402  0.56347  1.0000
  Fe  Fe95      1.0  0.71170  0.59463  0.70948  1.0000
  S   S190      1.0  0.76086  0.60462  0.70201  1.0000
  H   H817      1.0  0.98962  0.72415  0.53320  1.0000
  H   H818      1.0  0.95534  0.64459  0.74625  1.0000
  H   H819      1.0  0.99957  0.62995  0.98642  1.0000
  C   C683      1.0  0.80922  0.58860  0.61398  1.0000
  C   C684      1.0  0.78013  0.58538  0.61017  1.0000
  C   C685      1.0  0.76535  0.59075  0.63653  1.0000
  C   C686      1.0  0.77917  0.59894  0.66740  1.0000
  C   C687      1.0  0.80838  0.60247  0.67117  1.0000
  C   C688      1.0  0.82336  0.59748  0.64470  1.0000
  H   H820      1.0  0.76906  0.57887  0.58652  1.0000
  H   H821      1.0  0.74346  0.58900  0.63289  1.0000
  H   H822      1.0  0.81951  0.60906  0.69478  1.0000
  H   H823      1.0  0.84571  0.60019  0.64815  1.0000
  C   C689      1.0  0.99547  0.64464  0.64949  1.0000
  H   H824      1.0  0.00036  0.58271  0.67366  1.0000
  C   C690      1.0  0.98620  0.65218  0.92844  1.0000
  H   H825      1.0  0.67912  0.69158  0.84405  1.0000
  C   C691      1.0  0.91061  0.59377  0.83944  1.0000
  C   C692      1.0  0.96551  0.64864  0.82947  1.0000
  N   N47       1.0  0.97617  0.62653  0.77832  1.0000
  H   H826      1.0  0.97691  0.66037  0.94710  1.0000
  C   C693      1.0  0.94725  0.64521  0.85658  1.0000
  H   H827      1.0  0.69395  0.69879  0.97872  1.0000
  Fe  Fe96      1.0  0.92300  0.59257  0.52257  1.0000
  H   H828      1.0  0.99774  0.60228  0.75901  1.0000
  H   H829      1.0  0.70193  0.63200  0.95253  1.0000
  H   H830      1.0  0.98387  0.54071  0.89301  1.0000
  C   C694      1.0  0.98297  0.69977  0.53749  1.0000
  C   C695      1.0  0.95689  0.62432  0.80659  1.0000
  C   C696      1.0  0.71317  0.80018  0.51914  1.0000
  C   C697      1.0  0.78445  0.52173  0.65268  1.0000
  C   C698      1.0  0.72288  0.83088  0.52566  1.0000
  H   H831      1.0  0.97430  0.58607  0.89329  1.0000
  C   C699      1.0  0.98892  0.61422  0.65121  1.0000
  H   H832      1.0  0.68929  0.64886  0.63119  1.0000
  H   H833      1.0  0.70133  0.67172  0.57537  1.0000
  H   H834      1.0  0.97102  0.59676  0.63614  1.0000
  C   C700      1.0  0.99769  0.66132  0.53329  1.0000
  H   H835      1.0  0.96227  0.68507  0.52264  1.0000
  H   H836      1.0  0.80488  0.53413  0.66748  1.0000
  C   C701      1.0  0.92018  0.61769  0.86188  1.0000
  C   C702      1.0  0.00643  0.65520  0.77815  1.0000
  H   H837      1.0  0.91992  0.57796  0.79514  1.0000
  H   H838      1.0  0.71929  0.54270  0.68223  1.0000
  H   H839      1.0  0.90674  0.61482  0.88364  1.0000
  C   C703      1.0  0.99023  0.52367  0.89866  1.0000
  H   H840      1.0  0.70723  0.53784  0.62141  1.0000
  H   H841      1.0  0.98662  0.67033  0.82758  1.0000
  H   H842      1.0  0.99197  0.59927  0.80255  1.0000
  H   H843      1.0  0.88939  0.57247  0.84360  1.0000
  S   S191      1.0  0.94174  0.59295  0.94694  1.0000
  C   C704      1.0  0.69514  0.68126  0.96320  1.0000
  C   C705      1.0  0.97314  0.62057  0.92331  1.0000
  H   H844      1.0  0.96072  0.57787  0.77476  1.0000
  C   C706      1.0  0.92845  0.59708  0.81196  1.0000
  C   C707      1.0  0.75704  0.51918  0.66311  1.0000
  H   H845      1.0  0.68054  0.65116  0.81052  1.0000
  H   H846      1.0  0.95462  0.66373  0.87419  1.0000
  C   C708      1.0  0.98179  0.60035  0.77878  1.0000
  H   H847      1.0  0.97805  0.64712  0.51683  1.0000
  H   H848      1.0  0.73820  0.84861  0.50885  1.0000
  H   H849      1.0  0.70375  0.00974  0.51919  1.0000
  H   H850      1.0  0.72101  0.79401  0.49729  1.0000
  C   C709      1.0  0.96033  0.62548  0.74740  1.0000
  H   H851      1.0  0.69825  0.76147  0.62016  1.0000
  H   H852      1.0  0.80797  0.51356  0.61378  1.0000
  C   C710      1.0  0.98469  0.61042  0.89798  1.0000
  C   C711      1.0  0.70281  0.51762  0.68441  1.0000
  C   C712      1.0  0.69318  0.81592  0.57564  1.0000
  H   H853      1.0  0.68697  0.75382  0.53471  1.0000
  H   H854      1.0  0.97437  0.62753  0.72552  1.0000
  S   S192      1.0  0.68118  0.55553  0.74342  1.0000
  H   H855      1.0  0.72062  0.86267  0.55895  1.0000
  H   H856      1.0  0.68646  0.68276  0.93858  1.0000
  C   C713      1.0  0.71299  0.83873  0.55389  1.0000
  C   C714      1.0  0.68959  0.51388  0.62768  1.0000
  C   C715      1.0  0.67994  0.66615  0.58687  1.0000
  H   H857      1.0  0.75783  0.53002  0.68619  1.0000
  H   H858      1.0  0.98998  0.65309  0.55858  1.0000
  H   H859      1.0  0.68046  0.51515  0.69109  1.0000
  C   C716      1.0  0.00557  0.60631  0.67246  1.0000
  H   H860      1.0  0.00429  0.67599  0.77528  1.0000
  N   N48       1.0  0.00859  0.69448  0.52997  1.0000
  H   H861      1.0  0.67827  0.86683  0.94989  1.0000
  H   H862      1.0  0.68633  0.82370  0.59688  1.0000
  H   H863      1.0  0.67862  0.91081  0.97550  1.0000
  C   C717      1.0  0.68241  0.78430  0.56943  1.0000
  C   C718      1.0  0.00961  0.63152  0.87874  1.0000
  H   H864      1.0  0.00636  0.52758  0.63939  1.0000
  C   C719      1.0  0.67832  0.62807  0.95422  1.0000
  C   C720      1.0  0.67767  0.74463  0.60626  1.0000
