data_image0
_chemical_formula_structural       CSH2SCFeSFeSCHFeS2FeS2FeCFeS3H3SC4HCH2CHC2HC2H4C6H4C6H2C2H3CHC2H2SC2H2CH4CHC2NC2HC7NCH4NH6SHCH2C2H3CHC2H2C3H2CHCH5CHCHC2HC2HC2HCNH4CNHCH8CFeCH2SH2FeS2FeSCFeSFeS3FeSFeS2FeS2CSFeS2FeS2FeSFeS3FeS2FeS2FeSFeS3C6H4C6H4C6H3CHC5H5C6H3C6H4C6H2C6H4C3NCHNCH2C2H2CH2CH2NH4CH2CHCH2C3HSH2CH8CNHC7H2NCHC7H3C2H2NH4C7H8C2HCH4C2H2CH2CSCHCH3CFeC2H2SC2HSCH4CHCH2NCHCH2CH2CNH2SHC2H3CH3CH3C3HCFeH2C2H3NCNCH2NHSC2FeH2CHSHC2HC3H3SCH3CHC4H5SCHNHCH2CH2C2HCSH3CSC2H7C2HCHCH7C3H4C3HCHC2H2CSH4CHCH2C5HCHCHCH4CHCHC3HNC6H3CH3C2H3CH2NH5C2H2C2H2FeH3C2H3CH2NH3C2HCH3CHCHC2H5FeHSHC2HC2HCSH2FeS2FeS2FeSFeS3H2SC2FeHSCH2FeCSC2H2CH2CH4CHFeS2FeS2FeSFeS2FeS2FeS2FeHFeS4C6H4C6H4CH2C6H4CH3C2H2NCNC6H4C6H4C5H3CFeH3CHC2H5CSH4C4H5CHCH3C2NCHCH4CH3FeSH7C2HCHC3HC6H5CH3CHCNC9H7CH6NC9H10CSHCHCH7CHC2HC2HNH2C2HSNC9H14SC3HCFe2H2C4NH5SH2NHCH3SC3HCNCSH2SHCHCH4CHSH2CH2CSCHCH2CH2FeS2HCNCHFeS3HCFeS2FeSFeSFeS3HC6H5CH3C6H4C3H3CHFeH3CHC4H2C2H3C5HCH2SH5FeH2C2H2C2HSHC2HC2FeH3C2HCHCH4CHCHCH3NC8NSFeH4CSH2CH2NCH4CHCHCH2SC2SCH2CHFeHCH3CHCHCNHCSNH2C2H2CHC2HCH2CNC2HC2H5CH3CHC2H2C3H5CH4SHC2HCSH2SHSC2SH4CFeHCHC3HFeS2FeSFeSFeS3CHCH2SHC4SH3C2FeC2HFeCHCH3NH2CH5C4SCH2C6H2CHCHC6H4C4H3CSHSH5CHC2H2S2H5SNH5CFeSFeH4C2H2SCHC3H2CH3NC4HC2H2C3NHC2HC3HC3HC2HCHC3H6C2H4C2FeS2FeS2FeSFeS2CHFeS2FeSFeS2FeSFeS3CH2SH5FeCFeSH2CH2CS2CHFeSHFeS2FeS2FeSFeS3C6H4C6H5C2HCHS2HNHFe2HCHC7H4C6H5CHFeC6H5C2HC6H4C5H6C6HCH2CH2NC2H2C2SNCHCS2CH2CNC4H9FeH2CH2C2H2SCFeHFeC2H3CSH2C2H6NC6HC2H12CNC9H12CHNC6H10CHCH2C3NC9H15C2H2CH2C2HCHCFeH3CH2CHCH4CH2SH3C2S2CHC3H6CH2C2HNCHC2H3C2NC2HC3HC2HC4NC2HFeH3SHCSCH2CH5CNC3H3C3H2FeHC2SCH3CHC2H2CHCHCHC2H2NHCHSCSHCHCHSCH2C3H7NC4HC5HSCH2C2H3NH3C4HCH2SNHSH3CH2NH5CHCHCH3C3SH5CH6SHC2H4SH2CH2CNSHCH2CH2CFeCSHSHC2HFeS2NCHFeSFeHS2H2SHFeCHSH2NH4CHFeSCSC6HCH5CHSH2C2HC4HSH3FeC9HC6H4C5FeH2SHCH3CH4C2SH4CSHCH2C2HSH2CHNCHC2SCH5C3H2C4SC2HCFeHSC4H2NH2C2HC2HCH2CHFeC3H2SH3CHC2HCHSCH3SHC2HSH4CFeHCHSH2NHSCH2CH5C2H6CFeHCHNSH2CHCFeC2HCHNCFeCHCHCHFeNC4H4CHCH2FeH3C2H6SCS2C2H3C2HSFeC2HFeCSCHSH3CS2H2SHCHSCHC3SHC2FeS2FeSHFeSFeS3FeHSCFeH3FeH2C3HSHC2HC4HC3H2CH4C6H4CHC4NH2CHCH3C2FeSC2HCH2SH2S2H2CH2CHNSC5NCHC2H5CHSH3CHC3H2C2HCH2NC2H3SHC4HCHCHCHC2HC2H7SHSH4CSNHCH4FeHSFeH2FeHFeS3HFeCHCHSH3FeS2FeSHS2HFeS2FeSFeS3H4NHFeS2CHFeSH2SC8HCH2CHNSC4SH2C6H4C6H2CH2C3SCH2SH2C5H2C3SH6NC4H3CH3SNCHC2HCHCHC2H2C2FeC2NH3SCHCH4CH2C2HCH3CH2CH2FeSHCSCSH5CH2FeSH2C2HC2H5NHFeCHSCH2C2HFeHSHC4HFeCHCFeCHC3HC2NSC2HSH3SH3CHSCH2CHCH2SC2HCHC2H2SFe2HCH3CHSFeH2CH5C2H4FeHCH3CH3C4FeC2H3C3H2CSC6H2CH2SH3CH4C3SHFeCHNH3C4HCH2FeS2FeCSFe3S2CH2SHFeSH2SHNSHFeC3H3C7H2CFeC3HC2S2HFeH2FeH3CSCNC9H17FeSH2FeHS2H3CHSH2CSCHCSCH2NH4SC2H2CH4CH2CSHCHCFeS2HSHFeSFeS3FeS2FeHSFeHFeHS2H4C3H4CH2S2H4C2SCH2C3SH2CH2SHNCFeCHSH3CSHCHCSCH2C6H4CHCHCHN2CH2C6H4C4HCH4CH2CHCHCNHFe2CHCHC4H2CHCH3FeSH2CH6C2HCFeH6CH3CHC2H4CH5C2HCHFeS2CHFeH2SCHNSFeS2C2FeS3FeSFeS2FeSFeS3CFeCFeHCH3FeS2FeS2FeS2FeSFeS3FeS2FeS2FeSFeS3HCHFeC3HC2HCH2C6H4C6HSH5C7H6SHC2H2CSH2C6H4C3H2C4H2C6H4C6HCH2SH4CH3C6H5CFeSH2C2H2CHCH5NC8H9NC9H15C3H2CSH3CHCH6SC6H2CHC2H2SNCH6CH2CHCHFeC2H2CFeHC2H4S2CNC2HSH4CHCHC2H7SCNHCH2C2H2CH3C2HFeCSHNHCHCNC2H3NH2CH2C2H2C4H2CHCH2SH5CHSHNCHC2HCH2CH2FeCHCHCHCH2CHC2HNHC2H2CH4C3HNCHFeC2SCH2CH3C3H2S2C6HFeCHC3HSC3H2CSHCHSC2FeNH2CH4S2C2H3C2FeHCSC2HC3H2C7HSC2H2CH2CHCHCHCHC2HNH2CH2SH2CHC2H2C2HCNHCH4C2H6SHC2H3FeHCHCH2NCH2C2HC2HCHC3HSHFeSCFeS2FeSFeS3FeS2HSFeSFeHS2FeH2FeHSH3S2FeS2FeS2FeSFeS3CNH2SC2FeS2FeSFeSFeS3H2C4HCH4C2SC7H4SC2HC7H5CSHNHNHCH4C6H3CHC2HC3NH3C6H4C6H4C6H3C2HCSCH4FeS2CSH3CHC3H8NC7H5CH2CHCHCH2SCH2C2HCH4C3HNH2CHSCHC3HFeSHC2HCNC4HCSCH12CHCHCHCH2SHCHC5HCHCHCHSCSCH2FeCSCFeCHSHC4H3C2H2FeHCSCHCFeCHC3SC2H2CHCH2CFeH3CHCHCH5CHSH2CH2C2H2FeH2C2FeC4H2C2H2SCHCH2SH2CH6CHCHCH2CHC2H2SFeHN2HCHCHCH2CHCNH3CHCSH6C3HCHCHNH5NH2C2H2CH2CH3C2HCH2CHCH2CH9C5HCH3FeS2FeS2FeHFeS3FeCSFeHSHCSCHS2C3FeH3C2FeHC3HCHCHC8H4CHC5H3NH2NHCHCHC5H3SH5CHC2SH3CHCH4C2H3C2SCSC2HFeCSH2CH2CHFeSHC2H5CHNH4CSNC3SH2C2HCH2CH4CH3CHFeHC4SHCH2NH2C4H2C5HCHCHCH2CHCFeS2FeS2FeSFeS3FeS2FeS2FeSH2S2CHSHFeS2CHFeSFeS2CH4C2HCNCHSHCH2CH2C2SC6H4C6H4C6H6C2SH2SCHSH3CH2CH3CHC2NC9H15C2HCHCH2C5NCSC4HCFeNC3HNHC2H3CH4CSCH2C4HC2H2NHCH2NC9H15CHC5HFeCHCH3CH2CHSCH2C6HCH4C2HC4HCFeH3CHNHCH3C3HC2HFeHSCHSHSH2SCHFeSC2FeS2FeS2FeSFeS3FeS2FeS2FeSFeS3HFeS2FeS2Fe2S4FeS2FeS2FeSFeS3FeS2HFeHSH5CHCH2C7H4C5HC6SH3C6H4CHC4H2C6H2C6H4C6H4C6H4C6H5CHCHCHCH3C2HC3HSHC2NHCNFeHSHCFeHCH3NHCFeHCNC4HCH13CHCHNC9H17CHCHCH3CHCHCHCHC2SHNC3H10C2HFeHC2H3NC9H10CH4CH2CH2FeC2SHC5H3CH2CH2CH2CHCHCHC3H5C2H2C3H3NH4CHCHCSH2CNHCHC2H2CNC2NHNC2HCHCSCH2CH2NHCH4S2CHC2H3CH2CH2CHFeCH3FeC2H5CHCHCH5CHCHS2HC3HCH4C5H2NCHC2SC2SC7H6C6HCH2CH4SCHCSC3HCH2FeH4CHFeS2FeSH2SCHCFeS2FeSCFe3SHSH2SH4C3H2NCH2FeS2HSHFeSFeS2H3CHCH2CHC2HC6H2SCHNH2FeCH2C6H4CHC2SHCHC2SHCSC4H4C3H2CHC3H4C7H2NH3SHC3SHCHCSC5HCHNH6C3HCH3C2HCFeHCH3CHC2HCHCHCH4CHSHFeSHC2FeHSFeH2CHS2FeS2CS2FeSFeSHSFeS2FeSHFeSFeS2H2CH4CSFeS2FeS2FeSFeS3CHCHCHCH3C6H2NH2CHCHC3H2CHNHCHFeH3C7H4C6H4CSHC3H4C4H3C8H4CHCNH3CHCH2C4HC4HSC2NC4HCH3CH2SHCH7C4HCHC4H8CHCH2CH2CH2CHCH2CHC2H6CHCHC2HCH2C2HC4H3CH3C2HC3H2C5HNHCH3CNHNCSHSCHCH3SCH3SH2FeC2H2C4H3C2H2CHSCH2CHCFeHCH2CHCH3SCFeSFeSHCHSCFeHSHCHS2FeSHFeSHFeS2FeH2SHSHC4FeH2FeSCHC4HFeHFeC10H4C7H4CHSH3S2H2CHCHCSH4CH2C3HFeH4CNC4SH2CSH2C2HCH3CH4CFeCSH3C2H2C3H3NC2FeNS2C2SC2SH2CHSH2CH3C5H3C3H4S2CSH4FeHC3HFe2C2H2CH2CHC3SHC3HFeS2FeS2FeSFeS3H2FeS2FeS2FeSFeS3CH3SCH2CHC2HCHCHSHC2H3CHCH4CH2CHCHC4H4CH2SHCHCH2C3HNC2H3C6H4C6H4C6H3NC9H14SHCH2SC2HCHCH2CHCHNH2CH5CH2CHCH3C4HFeSCH6C2H4CSHCHCHC5H3C3HSC3NC8HCHC3NCH4CH4CH3CSHNHC3HCFeCFeCNC2FeH2CH2SCH2C2H4CH2CH6CH4CNCHSH2C2H3C2HCFeSHSFeS2FeS2HNFeS2FeHCH4C3H2NSHC2HCHFeS2FeHSFeHSCS2HCHCFeHCH3CHC6H7C3SHCHSC3HCHSC2HSNHCH6CH3SH2C7H4C6H4C3H3CFeH2CH2CH6C2H2NH2CH2CHCHSHCH4C2HCH6FeS2CFeSHSCH2CH2CSH2C2SNCHFeS2FeS2FeSFeS4CFeS2FeSCFeSFeS3C6H4C6H4C6H4C7H6CSH2CHC3H3C2HCSHC2FeCNC2H5CHCNHCHC2H2C3FeH5C2H3C3HCHNCH3CH2CHC2HCH3C2HCHCHCHCSH2C3H4C3HCNC8NH11CH5C4HCH3C3H2CFeH4C3H3NC2HC4HCH8C3H2CHC2H7C2N2HC3HFeCHSHC5H2SCH2C2H2CHNSCSH2CH2C3SC3H6CH2CHCSH2C2H3C3H3CHC3HSHCNH2CSH2CH3CHC2HCHCHC2FeCHSHFeCSHS2HFeSH2CH5SFeHCFeS2FeS3C4SHCHCSHCHC6H3C5HCH3FeH4C2HCHCNH2S3CNHS2C2SC2HC4FeH3C2H2SFeH4NC9H15C2FeH2CHNH5C2SCFe2C3HCSC2H5C2HCH2CH2SHFeHC4H2C2HSCHC2H4FeH2C3H2C5NHNH2CNH2C2H4CH3C2H2C2HCHCHCSH2FeSCH2CHCSFeSCFeSFeSFeSHSHFeS2FeS2Fe2S3C6H4C6H3C7H4C6H4CSH3SHC3H3SC3H6NHCHNHC2SH4SHFeCHC2H2CNC2HCHNHCH3C3SCH5CH3C3H4CSH5CH3CFeH2CHCFeHCHCH5CH8CSCHC2HFeCH2NSCHCHCNCFeH3CHC2HCH3
_chemical_formula_sum              "C2880 S768 H3456 Fe384 N192"
_cell_length_a       82.1115
_cell_length_b       82.1229
_cell_length_c       81.8681
_cell_angle_alpha    73.5079
_cell_angle_beta     74.0247
_cell_angle_gamma    73.5391

_space_group_name_H-M_alt    "P 1"
_space_group_IT_number       1

loop_
  _space_group_symop_operation_xyz
  'x, y, z'

loop_
  _atom_site_type_symbol
  _atom_site_label
  _atom_site_symmetry_multiplicity
  _atom_site_fract_x
  _atom_site_fract_y
  _atom_site_fract_z
  _atom_site_occupancy
  C   C1        1.0  0.29927  0.46153  0.01424  1.0000
  S   S1        1.0  0.21663  0.39532  0.01005  1.0000
  H   H1        1.0  0.04549  0.38364  0.12050  1.0000
  H   H2        1.0  0.00206  0.36633  0.20464  1.0000
  S   S2        1.0  0.22229  0.43161  0.01566  1.0000
  C   C2        1.0  0.05334  0.47948  0.22592  1.0000
  Fe  Fe1       1.0  0.23876  0.40562  0.01147  1.0000
  S   S3        1.0  0.26004  0.39045  0.02608  1.0000
  Fe  Fe2       1.0  0.20067  0.42237  0.01184  1.0000
  S   S4        1.0  0.17394  0.43289  0.02664  1.0000
  C   C3        1.0  0.04916  0.41385  0.16642  1.0000
  H   H3        1.0  0.21546  0.46048  0.03517  1.0000
  Fe  Fe3       1.0  0.12076  0.40688  0.11881  1.0000
  S   S5        1.0  0.13012  0.41197  0.13987  1.0000
  S   S6        1.0  0.13856  0.39120  0.09945  1.0000
  Fe  Fe4       1.0  0.08387  0.42678  0.12978  1.0000
  S   S7        1.0  0.08997  0.43406  0.15143  1.0000
  S   S8        1.0  0.05764  0.43829  0.12296  1.0000
  Fe  Fe5       1.0  0.11447  0.43908  0.13243  1.0000
  C   C4        1.0  0.10037  0.48542  0.09328  1.0000
  Fe  Fe6       1.0  0.10491  0.40652  0.15722  1.0000
  S   S9        1.0  0.10055  0.39298  0.18564  1.0000
  S   S10       1.0  0.10693  0.43457  0.11023  1.0000
  S   S11       1.0  0.09687  0.39861  0.13692  1.0000
  H   H4        1.0  0.28256  0.43886  0.03847  1.0000
  H   H5        1.0  0.01021  0.47103  0.17890  1.0000
  H   H6        1.0  0.10330  0.37996  0.06757  1.0000
  S   S12       1.0  0.12524  0.46252  0.12796  1.0000
  C   C5        1.0  0.10280  0.40531  0.19901  1.0000
  C   C6        1.0  0.11045  0.41968  0.19177  1.0000
  C   C7        1.0  0.11274  0.42902  0.20262  1.0000
  C   C8        1.0  0.10724  0.42417  0.22075  1.0000
  H   H7        1.0  0.02999  0.40478  0.15258  1.0000
  C   C9        1.0  0.09706  0.40060  0.21715  1.0000
  H   H8        1.0  0.11496  0.42340  0.17780  1.0000
  H   H9        1.0  0.11900  0.43990  0.19691  1.0000
  C   C10       1.0  0.00520  0.37656  0.17704  1.0000
  H   H10       1.0  0.20846  0.48321  0.03410  1.0000
  C   C11       1.0  0.04682  0.42553  0.11752  1.0000
  C   C12       1.0  0.05184  0.40733  0.12088  1.0000
  H   H11       1.0  0.06306  0.40061  0.12651  1.0000
  C   C13       1.0  0.24638  0.46385  0.00087  1.0000
  C   C14       1.0  0.18207  0.47247  0.03085  1.0000
  H   H12       1.0  0.07295  0.46112  0.21258  1.0000
  H   H13       1.0  0.01964  0.42468  0.18952  1.0000
  H   H14       1.0  0.31687  0.43296  0.04709  1.0000
  H   H15       1.0  0.27315  0.46021  0.04271  1.0000
  C   C15       1.0  0.16479  0.42095  0.04694  1.0000
  C   C16       1.0  0.17164  0.40325  0.05297  1.0000
  C   C17       1.0  0.16355  0.39418  0.06913  1.0000
  C   C18       1.0  0.14889  0.40288  0.07948  1.0000
  C   C19       1.0  0.14228  0.42063  0.07345  1.0000
  C   C20       1.0  0.15005  0.42956  0.05718  1.0000
  H   H16       1.0  0.18300  0.39649  0.04510  1.0000
  H   H17       1.0  0.16873  0.38042  0.07368  1.0000
  H   H18       1.0  0.13102  0.42749  0.08112  1.0000
  H   H19       1.0  0.14466  0.44324  0.05254  1.0000
  C   C21       1.0  0.27798  0.40022  0.01828  1.0000
  C   C22       1.0  0.29402  0.39174  0.02295  1.0000
  C   C23       1.0  0.30867  0.39908  0.01511  1.0000
  C   C24       1.0  0.02467  0.39626  0.16425  1.0000
  C   C25       1.0  0.29104  0.42335  0.99833  1.0000
  C   C26       1.0  0.27654  0.41616  0.00628  1.0000
  H   H20       1.0  0.29517  0.37938  0.03230  1.0000
  H   H21       1.0  0.04983  0.38329  0.20426  1.0000
  C   C27       1.0  0.02678  0.40628  0.11097  1.0000
  C   C28       1.0  0.02374  0.46966  0.14522  1.0000
  H   H22       1.0  0.01039  0.38903  0.14986  1.0000
  H   H23       1.0  0.31047  0.46725  0.00616  1.0000
  H   H24       1.0  0.02735  0.41801  0.06670  1.0000
  C   C29       1.0  0.03222  0.43400  0.11033  1.0000
  H   H25       1.0  0.11079  0.47382  0.09352  1.0000
  C   C30       1.0  0.01323  0.38736  0.16252  1.0000
  C   C31       1.0  0.30315  0.46914  0.03936  1.0000
  H   H26       1.0  0.24938  0.44996  0.00235  1.0000
  H   H27       1.0  0.01818  0.47073  0.08666  1.0000
  S   S13       1.0  0.11126  0.43549  0.23404  1.0000
  C   C32       1.0  0.09105  0.47855  0.13724  1.0000
  C   C33       1.0  0.99480  0.47039  0.07967  1.0000
  H   H28       1.0  0.02858  0.44804  0.10736  1.0000
  H   H29       1.0  0.10433  0.40885  0.04608  1.0000
  C   C34       1.0  0.03099  0.41559  0.19458  1.0000
  H   H30       1.0  0.03949  0.42441  0.16000  1.0000
  H   H31       1.0  0.05840  0.42026  0.16858  1.0000
  H   H32       1.0  0.10598  0.47406  0.22115  1.0000
  H   H33       1.0  0.01119  0.43122  0.10123  1.0000
  C   C35       1.0  0.04182  0.39772  0.11759  1.0000
  H   H34       1.0  0.29900  0.45088  0.00847  1.0000
  C   C36       1.0  0.28486  0.44932  0.04322  1.0000
  C   C37       1.0  0.05478  0.39079  0.19107  1.0000
  N   N1        1.0  0.09367  0.40537  0.07365  1.0000
  C   C38       1.0  0.10456  0.41365  0.05742  1.0000
  C   C39       1.0  0.09348  0.41308  0.08802  1.0000
  H   H35       1.0  0.10427  0.48141  0.19078  1.0000
  C   C40       1.0  0.07568  0.40851  0.07135  1.0000
  C   C41       1.0  0.06583  0.42581  0.06697  1.0000
  C   C42       1.0  0.06727  0.39480  0.07374  1.0000
  C   C43       1.0  0.04867  0.42916  0.06513  1.0000
  C   C44       1.0  0.05011  0.39832  0.07183  1.0000
  C   C45       1.0  0.04084  0.41543  0.06755  1.0000
  C   C46       1.0  0.02029  0.38309  0.19513  1.0000
  N   N2        1.0  0.30090  0.45508  0.03272  1.0000
  C   C47       1.0  0.08385  0.48475  0.09250  1.0000
  H   H36       1.0  0.08533  0.40734  0.10042  1.0000
  H   H37       1.0  0.08830  0.42741  0.08543  1.0000
  H   H38       1.0  0.10676  0.41069  0.09030  1.0000
  H   H39       1.0  0.07120  0.43691  0.06528  1.0000
  N   N3        1.0  0.04072  0.40348  0.18298  1.0000
  H   H40       1.0  0.11585  0.38478  0.07960  1.0000
  H   H41       1.0  0.10021  0.42807  0.05428  1.0000
  H   H42       1.0  0.07348  0.38124  0.07745  1.0000
  H   H43       1.0  0.06406  0.39739  0.19290  1.0000
  H   H44       1.0  0.04366  0.38773  0.07433  1.0000
  H   H45       1.0  0.11840  0.41081  0.05849  1.0000
  S   S14       1.0  0.01390  0.39412  0.10760  1.0000
  H   H46       1.0  0.05684  0.40548  0.15711  1.0000
  C   C48       1.0  0.09913  0.41011  0.22798  1.0000
  H   H47       1.0  0.03937  0.42341  0.19605  1.0000
  H   H48       1.0  0.09104  0.38955  0.22278  1.0000
  C   C49       1.0  0.29140  0.48566  0.03749  1.0000
  C   C50       1.0  0.02224  0.42446  0.10705  1.0000
  H   H49       1.0  0.19325  0.44605  0.06806  1.0000
  H   H50       1.0  0.04123  0.44246  0.06226  1.0000
  H   H51       1.0  0.99863  0.45669  0.07952  1.0000
  C   C51       1.0  0.30716  0.41476  0.00253  1.0000
  H   H52       1.0  0.02956  0.48111  0.14254  1.0000
  C   C52       1.0  0.16735  0.47571  0.07497  1.0000
  C   C53       1.0  0.99382  0.43301  0.14966  1.0000
  H   H53       1.0  0.08794  0.46798  0.13426  1.0000
  H   H54       1.0  0.16829  0.47137  0.03372  1.0000
  C   C54       1.0  0.02873  0.39422  0.18063  1.0000
  C   C55       1.0  0.09810  0.48666  0.21644  1.0000
  C   C56       1.0  0.24852  0.47084  0.01364  1.0000
  H   H55       1.0  0.19640  0.44104  0.04737  1.0000
  H   H56       1.0  0.25280  0.46223  0.02510  1.0000
  C   C57       1.0  0.99811  0.45745  0.15847  1.0000
  H   H57       1.0  0.15001  0.47731  0.23115  1.0000
  C   C58       1.0  0.31564  0.43961  0.03347  1.0000
  H   H58       1.0  0.09536  0.37972  0.09064  1.0000
  H   H59       1.0  0.02605  0.46643  0.13234  1.0000
  H   H60       1.0  0.02597  0.40853  0.20796  1.0000
  H   H61       1.0  0.02237  0.38119  0.20809  1.0000
  H   H62       1.0  0.06237  0.38129  0.18287  1.0000
  C   C59       1.0  0.10232  0.38661  0.07801  1.0000
  H   H63       1.0  0.26426  0.42274  0.00278  1.0000
  C   C60       1.0  0.00866  0.37448  0.19332  1.0000
  H   H64       1.0  0.17492  0.44763  0.05896  1.0000
  C   C61       1.0  0.06265  0.46283  0.22397  1.0000
  C   C62       1.0  0.00333  0.48064  0.16899  1.0000
  H   H65       1.0  0.16678  0.46227  0.08084  1.0000
  C   C63       1.0  0.31648  0.46678  0.04838  1.0000
  C   C64       1.0  0.00005  0.44815  0.14561  1.0000
  H   H66       1.0  0.31403  0.42957  0.02767  1.0000
  C   C65       1.0  0.10840  0.47944  0.13447  1.0000
  C   C66       1.0  0.31816  0.48030  0.05458  1.0000
  H   H67       1.0  0.00625  0.45266  0.13225  1.0000
  C   C67       1.0  0.18821  0.45008  0.05588  1.0000
  N   N4        1.0  0.00502  0.47336  0.15377  1.0000
  H   H68       1.0  0.99572  0.42593  0.13968  1.0000
  H   H69       1.0  0.28140  0.39104  0.98690  1.0000
  H   H70       1.0  0.18979  0.46319  0.02241  1.0000
  H   H71       1.0  0.28702  0.47137  0.01268  1.0000
  C   C68       1.0  0.00582  0.47827  0.08374  1.0000
  N   N5        1.0  0.18840  0.46858  0.04716  1.0000
  H   H72       1.0  0.03135  0.45852  0.15345  1.0000
  C   C69       1.0  0.20674  0.47030  0.04255  1.0000
  H   H73       1.0  0.99714  0.48309  0.12895  1.0000
  H   H74       1.0  0.08145  0.47256  0.09206  1.0000
  H   H75       1.0  0.14182  0.38843  0.22941  1.0000
  H   H76       1.0  0.28564  0.44415  0.05717  1.0000
  H   H77       1.0  0.21170  0.46858  0.05444  1.0000
  H   H78       1.0  0.99611  0.36990  0.17574  1.0000
  H   H79       1.0  0.28977  0.43551  0.98867  1.0000
  H   H80       1.0  0.32112  0.39244  0.01844  1.0000
  C   C70       1.0  0.17753  0.48101  0.05806  1.0000
  Fe  Fe7       1.0  0.22833  0.44022  0.98656  1.0000
  C   C71       1.0  0.24005  0.47476  0.98640  1.0000
  H   H81       1.0  0.18289  0.48575  0.02283  1.0000
  H   H82       1.0  0.14995  0.48346  0.09792  1.0000
  S   S15       1.0  0.32499  0.42396  0.99107  1.0000
  H   H83       1.0  0.06593  0.43538  0.23514  1.0000
  H   H84       1.0  0.25417  0.06021  0.38389  1.0000
  Fe  Fe8       1.0  0.19962  0.05273  0.36341  1.0000
  S   S16       1.0  0.21584  0.06630  0.37074  1.0000
  S   S17       1.0  0.18441  0.06620  0.34245  1.0000
  Fe  Fe9       1.0  0.21156  0.01797  0.38686  1.0000
  S   S18       1.0  0.22879  0.02833  0.39628  1.0000
  C   C72       1.0  0.30747  0.05072  0.43664  1.0000
  Fe  Fe10      1.0  0.20666  0.05169  0.39787  1.0000
  S   S19       1.0  0.19873  0.06342  0.42141  1.0000
  Fe  Fe11      1.0  0.23664  0.04205  0.36860  1.0000
  S   S20       1.0  0.26487  0.04127  0.35620  1.0000
  S   S21       1.0  0.18851  0.04014  0.39086  1.0000
  S   S22       1.0  0.22135  0.02953  0.35880  1.0000
  Fe  Fe12      1.0  0.08903  0.44377  0.29446  1.0000
  S   S23       1.0  0.11546  0.43091  0.28143  1.0000
  Fe  Fe13      1.0  0.07219  0.41647  0.29193  1.0000
  S   S24       1.0  0.09693  0.40097  0.27873  1.0000
  S   S25       1.0  0.04622  0.40985  0.29924  1.0000
  Fe  Fe14      1.0  0.10836  0.40596  0.29832  1.0000
  S   S26       1.0  0.12653  0.38522  0.31348  1.0000
  S   S27       1.0  0.08306  0.41922  0.31292  1.0000
  C   C73       1.0  0.02405  0.39058  0.27299  1.0000
  S   S28       1.0  0.10051  0.17727  0.47486  1.0000
  Fe  Fe15      1.0  0.07319  0.29841  0.41132  1.0000
  S   S29       1.0  0.08646  0.32045  0.39800  1.0000
  S   S30       1.0  0.04416  0.30351  0.41974  1.0000
  Fe  Fe16      1.0  0.10617  0.27050  0.40509  1.0000
  S   S31       1.0  0.12225  0.29028  0.39067  1.0000
  S   S32       1.0  0.11838  0.24177  0.40879  1.0000
  Fe  Fe17      1.0  0.10743  0.30403  0.41228  1.0000
  S   S33       1.0  0.12182  0.31592  0.42383  1.0000
  Fe  Fe18      1.0  0.09980  0.30475  0.37777  1.0000
  S   S34       1.0  0.09916  0.31611  0.34934  1.0000
  S   S35       1.0  0.09280  0.28332  0.42764  1.0000
  S   S36       1.0  0.08522  0.28353  0.39027  1.0000
  Fe  Fe19      1.0  0.08027  0.13144  0.40820  1.0000
  S   S37       1.0  0.08825  0.14821  0.42044  1.0000
  S   S38       1.0  0.05735  0.11973  0.42307  1.0000
  Fe  Fe20      1.0  0.10834  0.13667  0.37570  1.0000
  S   S39       1.0  0.11855  0.15454  0.38457  1.0000
  S   S40       1.0  0.12050  0.13014  0.34958  1.0000
  Fe  Fe21      1.0  0.11560  0.13494  0.40992  1.0000
  S   S41       1.0  0.13645  0.12689  0.42531  1.0000
  Fe  Fe22      1.0  0.09051  0.16647  0.39421  1.0000
  S   S42       1.0  0.07765  0.19486  0.39297  1.0000
  S   S43       1.0  0.10736  0.11609  0.40048  1.0000
  S   S44       1.0  0.08041  0.15065  0.38254  1.0000
  C   C74       1.0  0.03000  0.11147  0.38546  1.0000
  C   C75       1.0  0.02140  0.11133  0.40281  1.0000
  C   C76       1.0  0.03000  0.11331  0.41456  1.0000
  C   C77       1.0  0.04689  0.11621  0.40875  1.0000
  C   C78       1.0  0.05529  0.11670  0.39135  1.0000
  C   C79       1.0  0.04693  0.11415  0.37979  1.0000
  H   H85       1.0  0.27681  0.02177  0.39131  1.0000
  H   H86       1.0  0.02349  0.11275  0.42806  1.0000
  H   H87       1.0  0.06830  0.11891  0.38684  1.0000
  H   H88       1.0  0.05342  0.11462  0.36634  1.0000
  C   C80       1.0  0.10698  0.22880  0.40441  1.0000
  C   C81       1.0  0.11521  0.21167  0.40291  1.0000
  C   C82       1.0  0.10634  0.20117  0.39933  1.0000
  C   C83       1.0  0.08910  0.20766  0.39754  1.0000
  C   C84       1.0  0.08079  0.22471  0.39932  1.0000
  C   C85       1.0  0.08970  0.23524  0.40270  1.0000
  H   H89       1.0  0.12856  0.20656  0.40432  1.0000
  H   H90       1.0  0.11294  0.18816  0.39773  1.0000
  H   H91       1.0  0.06752  0.22999  0.39787  1.0000
  H   H92       1.0  0.08317  0.24834  0.40397  1.0000
  C   C86       1.0  0.03111  0.30065  0.37034  1.0000
  C   C87       1.0  0.04537  0.30721  0.36935  1.0000
  C   C88       1.0  0.04854  0.30927  0.38449  1.0000
  C   C89       1.0  0.03787  0.30423  0.40072  1.0000
  C   C90       1.0  0.02317  0.29841  0.40162  1.0000
  C   C91       1.0  0.01970  0.29675  0.38639  1.0000
  H   H93       1.0  0.05410  0.31049  0.35694  1.0000
  H   H94       1.0  0.05957  0.31441  0.38358  1.0000
  H   H95       1.0  0.01484  0.29459  0.41412  1.0000
  C   C92       1.0  0.06239  0.34688  0.29846  1.0000
  H   H96       1.0  0.02537  0.32970  0.26988  1.0000
  C   C93       1.0  0.10811  0.33795  0.46511  1.0000
  C   C94       1.0  0.11513  0.33434  0.44857  1.0000
  C   C95       1.0  0.11209  0.32014  0.44460  1.0000
  C   C96       1.0  0.10226  0.30922  0.45745  1.0000
  C   C97       1.0  0.09856  0.32699  0.47806  1.0000
  H   H97       1.0  0.18412  0.03006  0.43973  1.0000
  H   H98       1.0  0.12277  0.34276  0.43871  1.0000
  H   H99       1.0  0.10012  0.29806  0.45452  1.0000
  H   H100      1.0  0.05498  0.36130  0.37476  1.0000
  H   H101      1.0  0.04565  0.29554  0.45629  1.0000
  C   C98       1.0  0.10184  0.05708  0.35299  1.0000
  C   C99       1.0  0.13509  0.13959  0.45324  1.0000
  C   C100      1.0  0.13080  0.14316  0.43702  1.0000
  C   C101      1.0  0.11958  0.15888  0.43136  1.0000
  C   C102      1.0  0.11106  0.17014  0.44260  1.0000
  C   C103      1.0  0.05125  0.39610  0.25411  1.0000
  H   H102      1.0  0.29353  0.01244  0.36384  1.0000
  H   H103      1.0  0.11682  0.16200  0.41857  1.0000
  H   H104      1.0  0.20807  0.99595  0.36348  1.0000
  C   C104      1.0  0.11901  0.36597  0.32349  1.0000
  C   C105      1.0  0.12105  0.35721  0.34045  1.0000
  C   C106      1.0  0.11496  0.34187  0.34858  1.0000
  C   C107      1.0  0.10731  0.33500  0.33954  1.0000
  C   C108      1.0  0.10570  0.34353  0.32243  1.0000
  C   C109      1.0  0.11124  0.35915  0.31452  1.0000
  H   H105      1.0  0.12716  0.36239  0.34739  1.0000
  H   H106      1.0  0.11635  0.33529  0.36177  1.0000
  H   H107      1.0  0.09989  0.33815  0.31539  1.0000
  H   H108      1.0  0.10970  0.36580  0.30142  1.0000
  C   C110      1.0  0.05947  0.21858  0.35021  1.0000
  C   C111      1.0  0.05470  0.40177  0.26719  1.0000
  C   C112      1.0  0.04267  0.40205  0.28305  1.0000
  C   C113      1.0  0.02741  0.39636  0.28597  1.0000
  C   C114      1.0  0.13784  0.34992  0.27527  1.0000
  C   C115      1.0  0.23511  0.08184  0.47343  1.0000
  H   H109      1.0  0.06640  0.40636  0.26480  1.0000
  H   H110      1.0  0.01805  0.39662  0.29817  1.0000
  C   C116      1.0  0.16744  0.08444  0.34526  1.0000
  C   C117      1.0  0.16275  0.09637  0.33041  1.0000
  C   C118      1.0  0.14870  0.11063  0.33198  1.0000
  C   C119      1.0  0.13905  0.11300  0.34843  1.0000
  C   C120      1.0  0.14373  0.10110  0.36339  1.0000
  C   C121      1.0  0.15795  0.08680  0.36181  1.0000
  H   H111      1.0  0.16996  0.09450  0.31760  1.0000
  H   H112      1.0  0.14514  0.11970  0.32037  1.0000
  H   H113      1.0  0.13622  0.10264  0.37612  1.0000
  H   H114      1.0  0.16123  0.07729  0.37329  1.0000
  C   C122      1.0  0.30384  0.05560  0.36584  1.0000
  C   C123      1.0  0.29407  0.04950  0.35820  1.0000
  C   C124      1.0  0.27618  0.05100  0.36477  1.0000
  N   N6        1.0  0.05492  0.23564  0.35518  1.0000
  C   C125      1.0  0.18388  0.10231  0.44650  1.0000
  H   H115      1.0  0.30046  0.04339  0.34730  1.0000
  N   N7        1.0  0.29824  0.99941  0.38970  1.0000
  C   C126      1.0  0.20897  0.09113  0.46102  1.0000
  H   H116      1.0  0.17846  0.11225  0.35622  1.0000
  H   H117      1.0  0.20623  0.11759  0.34886  1.0000
  C   C127      1.0  0.23106  0.04559  0.42605  1.0000
  C   C128      1.0  0.21379  0.05104  0.43421  1.0000
  H   H118      1.0  0.04852  0.21012  0.41624  1.0000
  H   H119      1.0  0.18388  0.07298  0.47144  1.0000
  C   C129      1.0  0.17439  0.12240  0.36404  1.0000
  H   H120      1.0  0.23544  0.05082  0.41233  1.0000
  H   H121      1.0  0.16458  0.36192  0.23739  1.0000
  C   C130      1.0  0.12577  0.25209  0.45054  1.0000
  H   H122      1.0  0.27811  0.02720  0.44031  1.0000
  H   H123      1.0  0.00696  0.37275  0.32409  1.0000
  N   N8        1.0  0.31568  0.05946  0.46035  1.0000
  H   H124      1.0  0.02140  0.46342  0.29798  1.0000
  H   H125      1.0  0.04137  0.46867  0.28445  1.0000
  H   H126      1.0  0.00074  0.26876  0.40983  1.0000
  H   H127      1.0  0.09464  0.40640  0.24192  1.0000
  C   C131      1.0  0.14159  0.27118  0.46336  1.0000
  H   H128      1.0  0.11898  0.23862  0.47718  1.0000
  H   H129      1.0  0.11472  0.10986  0.48146  1.0000
  C   C132      1.0  0.08265  0.10131  0.48356  1.0000
  H   H130      1.0  0.31362  0.01361  0.36721  1.0000
  C   C133      1.0  0.29269  0.04254  0.46669  1.0000
  H   H131      1.0  0.05883  0.32060  0.44002  1.0000
  H   H132      1.0  0.14762  0.28427  0.43561  1.0000
  C   C134      1.0  0.28849  0.01492  0.39688  1.0000
  C   C135      1.0  0.04146  0.34744  0.28237  1.0000
  C   C136      1.0  0.09545  0.48158  0.29886  1.0000
  H   H133      1.0  0.12928  0.32701  0.29185  1.0000
  S   S45       1.0  0.02028  0.10751  0.37078  1.0000
  H   H134      1.0  0.15584  0.39337  0.26592  1.0000
  H   H135      1.0  0.16972  0.10831  0.44815  1.0000
  C   C137      1.0  0.00992  0.07288  0.44278  1.0000
  H   H136      1.0  0.01068  0.18748  0.36305  1.0000
  H   H137      1.0  0.00366  0.46313  0.26052  1.0000
  H   H138      1.0  0.01495  0.44465  0.27425  1.0000
  H   H139      1.0  0.06031  0.39629  0.24168  1.0000
  H   H140      1.0  0.09742  0.46688  0.25046  1.0000
  H   H141      1.0  0.04316  0.43877  0.26114  1.0000
  H   H142      1.0  0.18566  0.09032  0.44180  1.0000
  H   H143      1.0  0.10014  0.21416  0.47085  1.0000
  C   C138      1.0  0.14157  0.39224  0.24151  1.0000
  N   N9        1.0  0.04341  0.20317  0.44433  1.0000
  H   H144      1.0  0.04003  0.23014  0.44518  1.0000
  C   C139      1.0  0.12702  0.33807  0.28106  1.0000
  C   C140      1.0  0.14758  0.38364  0.27010  1.0000
  C   C141      1.0  0.07384  0.24609  0.44770  1.0000
  C   C142      1.0  0.20845  0.10348  0.39196  1.0000
  C   C143      1.0  0.02050  0.32253  0.28329  1.0000
  C   C144      1.0  0.05868  0.44833  0.23669  1.0000
  C   C145      1.0  0.01721  0.15559  0.43308  1.0000
  H   H145      1.0  0.13440  0.39014  0.27623  1.0000
  H   H146      1.0  0.07319  0.25231  0.43424  1.0000
  N   N10       1.0  0.09671  0.09022  0.34634  1.0000
  C   C146      1.0  0.10455  0.10145  0.33005  1.0000
  H   H147      1.0  0.20093  0.10151  0.40516  1.0000
  C   C147      1.0  0.09479  0.09805  0.36119  1.0000
  C   C148      1.0  0.10809  0.07252  0.34922  1.0000
  C   C149      1.0  0.12597  0.07031  0.34882  1.0000
  C   C150      1.0  0.00951  0.45894  0.27225  1.0000
  C   C151      1.0  0.13702  0.05381  0.35152  1.0000
  C   C152      1.0  0.07903  0.09043  0.34478  1.0000
  C   C153      1.0  0.01424  0.16281  0.40336  1.0000
  H   H148      1.0  0.10765  0.09530  0.31874  1.0000
  H   H149      1.0  0.09579  0.11451  0.32693  1.0000
  H   H150      1.0  0.11668  0.10426  0.33097  1.0000
  C   C154      1.0  0.22655  0.09825  0.38961  1.0000
  C   C155      1.0  0.23742  0.07825  0.44461  1.0000
  H   H151      1.0  0.10756  0.09838  0.36314  1.0000
  H   H152      1.0  0.08720  0.11179  0.35909  1.0000
  N   N11       1.0  0.18098  0.11589  0.38045  1.0000
  H   H153      1.0  0.13159  0.08135  0.34647  1.0000
  H   H154      1.0  0.02621  0.06932  0.40066  1.0000
  H   H155      1.0  0.07148  0.08385  0.35721  1.0000
  H   H156      1.0  0.12256  0.10825  0.45954  1.0000
  C   C156      1.0  0.04456  0.24841  0.34282  1.0000
  C   C157      1.0  0.07027  0.24175  0.35516  1.0000
  C   C158      1.0  0.06856  0.25918  0.35611  1.0000
  C   C159      1.0  0.08695  0.23045  0.35547  1.0000
  C   C160      1.0  0.08274  0.26510  0.35662  1.0000
  C   C161      1.0  0.10099  0.23642  0.35635  1.0000
  C   C162      1.0  0.09890  0.25372  0.35687  1.0000
  H   H157      1.0  0.03785  0.26067  0.34725  1.0000
  H   H158      1.0  0.05290  0.25178  0.32967  1.0000
  H   H159      1.0  0.05619  0.26837  0.35682  1.0000
  H   H160      1.0  0.08937  0.21678  0.35567  1.0000
  H   H161      1.0  0.08109  0.27855  0.35715  1.0000
  H   H162      1.0  0.11346  0.22746  0.35714  1.0000
  H   H163      1.0  0.10973  0.25824  0.35785  1.0000
  H   H164      1.0  0.04002  0.24606  0.37754  1.0000
  C   C163      1.0  0.11317  0.47369  0.29631  1.0000
  C   C164      1.0  0.04749  0.30403  0.46334  1.0000
  H   H165      1.0  0.17362  0.25974  0.46900  1.0000
  C   C165      1.0  0.05834  0.18789  0.44345  1.0000
  H   H166      1.0  0.12829  0.39976  0.24611  1.0000
  H   H167      1.0  0.10158  0.18179  0.43854  1.0000
  H   H168      1.0  0.23255  0.09237  0.40077  1.0000
  H   H169      1.0  0.25098  0.09606  0.37104  1.0000
  C   C166      1.0  0.20019  0.11067  0.37755  1.0000
  C   C167      1.0  0.24515  0.07648  0.45836  1.0000
  H   H170      1.0  0.06865  0.21892  0.33734  1.0000
  H   H171      1.0  0.00902  0.31820  0.28265  1.0000
  C   C168      1.0  0.22010  0.03280  0.46174  1.0000
  H   H172      1.0  0.99609  0.06753  0.40337  1.0000
  H   H173      1.0  0.09823  0.13544  0.45562  1.0000
  C   C169      1.0  0.00685  0.26256  0.43499  1.0000
  S   S46       1.0  0.07593  0.44207  0.27463  1.0000
  C   C170      1.0  0.23695  0.10023  0.37288  1.0000
  H   H174      1.0  0.13005  0.14824  0.47695  1.0000
  C   C171      1.0  0.21962  0.08549  0.44581  1.0000
  H   H175      1.0  0.15070  0.05256  0.35097  1.0000
  H   H176      1.0  0.03394  0.24330  0.34135  1.0000
  H   H177      1.0  0.31110  0.99353  0.36465  1.0000
  C   C172      1.0  0.28290  0.03421  0.46159  1.0000
  Fe  Fe23      1.0  0.10170  0.42713  0.26302  1.0000
  C   C173      1.0  0.29568  0.06376  0.37973  1.0000
  C   C174      1.0  0.26796  0.05908  0.37876  1.0000
  H   H178      1.0  0.06530  0.20775  0.36010  1.0000
  H   H179      1.0  0.17892  0.13430  0.35589  1.0000
  S   S47       1.0  0.07974  0.46962  0.30202  1.0000
  C   C175      1.0  0.18672  0.01607  0.44115  1.0000
  C   C176      1.0  0.05487  0.31819  0.45412  1.0000
  H   H180      1.0  0.29952  0.04221  0.41806  1.0000
  S   S48       1.0  0.25117  0.00973  0.46469  1.0000
  C   C177      1.0  0.22931  0.10732  0.35846  1.0000
  H   H181      1.0  0.21266  0.01237  0.44343  1.0000
  H   H182      1.0  0.23748  0.10852  0.34546  1.0000
  H   H183      1.0  0.04773  0.21485  0.34932  1.0000
  H   H184      1.0  0.18064  0.14126  0.38328  1.0000
  C   C178      1.0  0.04385  0.23372  0.37294  1.0000
  H   H185      1.0  0.05078  0.22355  0.38244  1.0000
  C   C179      1.0  0.21121  0.11250  0.36064  1.0000
  H   H186      1.0  0.17710  0.12555  0.40356  1.0000
  H   H187      1.0  0.11030  0.34916  0.46794  1.0000
  N   N12       1.0  0.15053  0.28026  0.47030  1.0000
  C   C180      1.0  0.03801  0.33332  0.31299  1.0000
  H   H188      1.0  0.03178  0.22976  0.37351  1.0000
  C   C181      1.0  0.17451  0.12999  0.39018  1.0000
  H   H189      1.0  0.06347  0.35934  0.27138  1.0000
  H   H190      1.0  0.05986  0.39375  0.34913  1.0000
  C   C182      1.0  0.12546  0.48373  0.29321  1.0000
  H   H191      1.0  0.16016  0.13490  0.39182  1.0000
  H   H192      1.0  0.01946  0.14890  0.40268  1.0000
  C   C183      1.0  0.03162  0.35140  0.36176  1.0000
  N   N13       1.0  0.05370  0.37046  0.34750  1.0000
  H   H193      1.0  0.15992  0.12610  0.36664  1.0000
  H   H194      1.0  0.05462  0.17666  0.44149  1.0000
  S   S49       1.0  0.21141  0.98985  0.39933  1.0000
  H   H195      1.0  0.02821  0.16209  0.43003  1.0000
  C   C184      1.0  0.08780  0.23249  0.45160  1.0000
  C   C185      1.0  0.21726  0.08884  0.47488  1.0000
  H   H196      1.0  0.17385  0.37646  0.24303  1.0000
  H   H197      1.0  0.01089  0.15482  0.44708  1.0000
  H   H198      1.0  0.07114  0.10395  0.34164  1.0000
  C   C186      1.0  0.00584  0.32791  0.45315  1.0000
  H   H199      1.0  0.08815  0.09057  0.37362  1.0000
  H   H200      1.0  0.11741  0.45985  0.29697  1.0000
  H   H201      1.0  0.04288  0.39771  0.33788  1.0000
  C   C187      1.0  0.13057  0.03896  0.35493  1.0000
  H   H202      1.0  0.03941  0.17238  0.47015  1.0000
  H   H203      1.0  0.17887  0.08944  0.38456  1.0000
  H   H204      1.0  0.15896  0.10394  0.39243  1.0000
  C   C188      1.0  0.17335  0.10077  0.39084  1.0000
  C   C189      1.0  0.27769  0.06562  0.38612  1.0000
  C   C190      1.0  0.20836  0.04500  0.45216  1.0000
  H   H205      1.0  0.17579  0.09632  0.40427  1.0000
  C   C191      1.0  0.02857  0.37220  0.33454  1.0000
  Fe  Fe24      1.0  0.00506  0.28495  0.35879  1.0000
  H   H206      1.0  0.01240  0.22583  0.45270  1.0000
  H   H207      1.0  0.03745  0.35162  0.27001  1.0000
  C   C192      1.0  0.15862  0.29375  0.45676  1.0000
  C   C193      1.0  0.06306  0.36005  0.36164  1.0000
  H   H208      1.0  0.03866  0.39049  0.36121  1.0000
  H   H209      1.0  0.32263  0.00114  0.39366  1.0000
  H   H210      1.0  0.03518  0.07275  0.42574  1.0000
  N   N14       1.0  0.00493  0.16474  0.42129  1.0000
  C   C194      1.0  0.01338  0.21316  0.46141  1.0000
  N   N15       1.0  0.14692  0.37690  0.25533  1.0000
  C   C195      1.0  0.11303  0.10396  0.47153  1.0000
  H   H211      1.0  0.01600  0.31083  0.31783  1.0000
  H   H212      1.0  0.31138  0.08063  0.47283  1.0000
  N   N16       1.0  0.18997  0.09827  0.46300  1.0000
  H   H213      1.0  0.00839  0.29216  0.38711  1.0000
  S   S50       1.0  0.99849  0.27530  0.33911  1.0000
  C   C196      1.0  0.00813  0.35359  0.34812  1.0000
  C   C197      1.0  0.29770  0.04219  0.43170  1.0000
  Fe  Fe25      1.0  0.99332  0.25230  0.36079  1.0000
  H   H214      1.0  0.27134  0.07187  0.39693  1.0000
  H   H215      1.0  0.07516  0.36433  0.36043  1.0000
  C   C198      1.0  0.04853  0.38888  0.34903  1.0000
  H   H216      1.0  0.08323  0.11149  0.44717  1.0000
  S   S51       1.0  0.30791  0.07130  0.38943  1.0000
  H   H217      1.0  0.10590  0.10952  0.44139  1.0000
  C   C199      1.0  0.00030  0.26014  0.45296  1.0000
  C   C200      1.0  0.03810  0.36451  0.34797  1.0000
  H   H218      1.0  0.03773  0.34500  0.37272  1.0000
  C   C201      1.0  0.09567  0.31253  0.47430  1.0000
  C   C202      1.0  0.03576  0.39077  0.25694  1.0000
  C   C203      1.0  0.13509  0.36469  0.26139  1.0000
  H   H219      1.0  0.13425  0.26758  0.42526  1.0000
  H   H220      1.0  0.31651  0.99908  0.45505  1.0000
  H   H221      1.0  0.05375  0.21458  0.45879  1.0000
  S   S52       1.0  0.02775  0.29722  0.35154  1.0000
  C   C204      1.0  0.01390  0.36673  0.33460  1.0000
  H   H222      1.0  0.07810  0.37384  0.33006  1.0000
  H   H223      1.0  0.06727  0.34598  0.36119  1.0000
  H   H224      1.0  0.09948  0.35667  0.25329  1.0000
  C   C205      1.0  0.06631  0.36930  0.33076  1.0000
  H   H225      1.0  0.07963  0.08416  0.33417  1.0000
  C   C206      1.0  0.13395  0.26493  0.43909  1.0000
  C   C207      1.0  0.06144  0.24362  0.47852  1.0000
  C   C208      1.0  0.05285  0.32571  0.48129  1.0000
  C   C209      1.0  0.30536  0.05098  0.45442  1.0000
  H   H226      1.0  0.25553  0.02791  0.42865  1.0000
  H   H227      1.0  0.06103  0.37748  0.31925  1.0000
  H   H228      1.0  0.03180  0.19811  0.42621  1.0000
  H   H229      1.0  0.29664  0.08369  0.45891  1.0000
  H   H230      1.0  0.13921  0.02618  0.35701  1.0000
  S   S53       1.0  0.00281  0.26076  0.37944  1.0000
  C   C210      1.0  0.16464  0.36760  0.24822  1.0000
  H   H231      1.0  0.02063  0.26174  0.42981  1.0000
  N   N17       1.0  0.09494  0.10951  0.46870  1.0000
  H   H232      1.0  0.24522  0.07369  0.43305  1.0000
  C   C211      1.0  0.24255  0.03284  0.43539  1.0000
  H   H233      1.0  0.03236  0.38260  0.32390  1.0000
  H   H234      1.0  0.23574  0.99001  0.41970  1.0000
  C   C212      1.0  0.18482  0.11461  0.46944  1.0000
  H   H235      1.0  0.10185  0.47574  0.26576  1.0000
  H   H236      1.0  0.11806  0.37723  0.24265  1.0000
  C   C213      1.0  0.12099  0.36668  0.25352  1.0000
  C   C214      1.0  0.99952  0.19747  0.40820  1.0000
  H   H237      1.0  0.29661  0.02462  0.39397  1.0000
  C   C215      1.0  0.12526  0.24868  0.46832  1.0000
  S   S54       1.0  0.00577  0.22426  0.35954  1.0000
  H   H238      1.0  0.07053  0.35564  0.32919  1.0000
  H   H239      1.0  0.08840  0.05737  0.35392  1.0000
  H   H240      1.0  0.21448  0.08616  0.43479  1.0000
  C   C216      1.0  0.11301  0.04058  0.35572  1.0000
  S   S55       1.0  0.01466  0.25519  0.46697  1.0000
  C   C217      1.0  0.06673  0.09943  0.48141  1.0000
  C   C218      1.0  0.02858  0.19980  0.45897  1.0000
  H   H241      1.0  0.06270  0.10437  0.46909  1.0000
  H   H242      1.0  0.01430  0.07494  0.45318  1.0000
  H   H243      1.0  0.06352  0.33988  0.45587  1.0000
  H   H244      1.0  0.31656  0.05698  0.42621  1.0000
  H   H245      1.0  0.10805  0.02895  0.35849  1.0000
  H   H246      1.0  0.27315  0.02806  0.47121  1.0000
  H   H247      1.0  0.08904  0.13269  0.47849  1.0000
  C   C219      1.0  0.18075  0.08534  0.47585  1.0000
  C   C220      1.0  0.00725  0.32342  0.31308  1.0000
  H   H248      1.0  0.01238  0.33581  0.37223  1.0000
  C   C221      1.0  0.01699  0.06966  0.41300  1.0000
  H   H249      1.0  0.14380  0.12753  0.45770  1.0000
  C   C222      1.0  0.08891  0.22462  0.46891  1.0000
  H   H250      1.0  0.31768  0.05422  0.36077  1.0000
  H   H251      1.0  0.01729  0.32311  0.44331  1.0000
  H   H252      1.0  0.26811  0.00510  0.37832  1.0000
  H   H253      1.0  0.00530  0.19583  0.39505  1.0000
  H   H254      1.0  0.15290  0.37329  0.28062  1.0000
  H   H255      1.0  0.09792  0.22796  0.44114  1.0000
  H   H256      1.0  0.23920  0.99776  0.43665  1.0000
  C   C223      1.0  0.30432  0.00497  0.37057  1.0000
  C   C224      1.0  0.04021  0.48173  0.24073  1.0000
  C   C225      1.0  0.03756  0.20827  0.42760  1.0000
  H   H257      1.0  0.13916  0.47759  0.29147  1.0000
  H   H258      1.0  0.99547  0.32009  0.31179  1.0000
  H   H259      1.0  0.14872  0.30396  0.45024  1.0000
  H   H260      1.0  0.09739  0.09073  0.45384  1.0000
  C   C226      1.0  0.03604  0.46717  0.25412  1.0000
  C   C227      1.0  0.02860  0.18345  0.47101  1.0000
  C   C228      1.0  0.28555  0.03387  0.44416  1.0000
  H   H261      1.0  0.10477  0.33138  0.27785  1.0000
  C   C229      1.0  0.05739  0.32909  0.46306  1.0000
  H   H262      1.0  0.03072  0.31065  0.28659  1.0000
  C   C230      1.0  0.99918  0.21049  0.47512  1.0000
  C   C231      1.0  0.06063  0.25159  0.46113  1.0000
  H   H263      1.0  0.99872  0.46085  0.28374  1.0000
  H   H264      1.0  0.00902  0.29734  0.47552  1.0000
  C   C232      1.0  0.14171  0.27441  0.44530  1.0000
  S   S56       1.0  0.03061  0.38497  0.24031  1.0000
  H   H265      1.0  0.00834  0.10916  0.40728  1.0000
  H   H266      1.0  0.06385  0.18374  0.45539  1.0000
  H   H267      1.0  0.02768  0.22076  0.42633  1.0000
  H   H268      1.0  0.16890  0.28797  0.44661  1.0000
  C   C233      1.0  0.03171  0.33802  0.29737  1.0000
  H   H269      1.0  0.04960  0.26195  0.45799  1.0000
  C   C234      1.0  0.12690  0.15107  0.46435  1.0000
  H   H270      1.0  0.06149  0.22011  0.43558  1.0000
  H   H271      1.0  0.02554  0.16911  0.39863  1.0000
  C   C235      1.0  0.23706  0.02635  0.45323  1.0000
  C   C236      1.0  0.09534  0.10505  0.45216  1.0000
  C   C237      1.0  0.11414  0.16579  0.45940  1.0000
  C   C238      1.0  0.11017  0.35482  0.25950  1.0000
  C   C239      1.0  0.05648  0.35188  0.28299  1.0000
  H   H272      1.0  0.05787  0.33342  0.32546  1.0000
  C   C240      1.0  0.03098  0.46190  0.28559  1.0000
  H   H273      1.0  0.07409  0.35029  0.29883  1.0000
  C   C241      1.0  0.11316  0.34057  0.27326  1.0000
  H   H274      1.0  0.19264  0.12418  0.46105  1.0000
  C   C242      1.0  0.31397  0.99183  0.39725  1.0000
  H   H275      1.0  0.19493  0.04891  0.45846  1.0000
  H   H276      1.0  0.03144  0.32635  0.32509  1.0000
  H   H277      1.0  0.30198  0.00326  0.48289  1.0000
  H   H278      1.0  0.11517  0.47783  0.24435  1.0000
  C   C243      1.0  0.01690  0.34604  0.36171  1.0000
  H   H279      1.0  0.14832  0.34744  0.28188  1.0000
  C   C244      1.0  0.08931  0.12863  0.46652  1.0000
  H   H280      1.0  0.01237  0.38594  0.27547  1.0000
  C   C245      1.0  0.04557  0.45042  0.25151  1.0000
  C   C246      1.0  0.99821  0.18314  0.42280  1.0000
  C   C247      1.0  0.04990  0.21761  0.44604  1.0000
  H   H281      1.0  0.06923  0.19090  0.43227  1.0000
  N   N18       1.0  0.01591  0.33338  0.29632  1.0000
  C   C248      1.0  0.02200  0.07162  0.42713  1.0000
  C   C249      1.0  0.05322  0.33753  0.31340  1.0000
  C   C250      1.0  0.10159  0.47814  0.25176  1.0000
  C   C251      1.0  0.99993  0.06880  0.41452  1.0000
  C   C252      1.0  0.30399  0.07386  0.46835  1.0000
  C   C253      1.0  0.17380  0.00843  0.44061  1.0000
  H   H282      1.0  0.16117  0.01643  0.43879  1.0000
  H   H283      1.0  0.28394  0.01123  0.41126  1.0000
  H   H284      1.0  0.00540  0.16834  0.39401  1.0000
  C   C254      1.0  0.20316  0.00583  0.44307  1.0000
  H   H285      1.0  0.17205  0.27373  0.48307  1.0000
  H   H286      1.0  0.07604  0.13351  0.46370  1.0000
  H   H287      1.0  0.00810  0.35720  0.27775  1.0000
  C   C255      1.0  0.04279  0.30060  0.48153  1.0000
  C   C256      1.0  0.16444  0.26735  0.47842  1.0000
  H   H288      1.0  0.11702  0.08953  0.47555  1.0000
  H   H289      1.0  0.21573  0.02769  0.47552  1.0000
  H   H290      1.0  0.03693  0.44773  0.28720  1.0000
  C   C257      1.0  0.13306  0.25802  0.47468  1.0000
  H   H291      1.0  0.19077  0.11161  0.43612  1.0000
  H   H292      1.0  0.16484  0.30066  0.46241  1.0000
  N   N19       1.0  0.02269  0.46893  0.27029  1.0000
  H   H293      1.0  0.01250  0.29367  0.45397  1.0000
  H   H294      1.0  0.25889  0.07067  0.45745  1.0000
  H   H295      1.0  0.11990  0.24478  0.44551  1.0000
  H   H296      1.0  0.17014  0.35675  0.25829  1.0000
  H   H297      1.0  0.02291  0.14187  0.43188  1.0000
  C   C258      1.0  0.27162  0.99224  0.38642  1.0000
  C   C259      1.0  0.00247  0.29851  0.46490  1.0000
  H   H298      1.0  0.17084  0.12097  0.46985  1.0000
  H   H299      1.0  0.00277  0.33102  0.32341  1.0000
  C   C260      1.0  0.99241  0.07202  0.44481  1.0000
  C   C261      1.0  0.00306  0.34945  0.29075  1.0000
  H   H300      1.0  0.01126  0.32814  0.46413  1.0000
  H   H301      1.0  0.32301  0.07744  0.43606  1.0000
  Fe  Fe26      1.0  0.00165  0.39309  0.24346  1.0000
  H   H302      1.0  0.00245  0.32943  0.42258  1.0000
  H   H303      1.0  0.06733  0.48356  0.25565  1.0000
  H   H304      1.0  0.99817  0.06341  0.47850  1.0000
  C   C262      1.0  0.99733  0.19350  0.36216  1.0000
  C   C263      1.0  0.17722  0.99050  0.44223  1.0000
  H   H305      1.0  0.29028  0.04235  0.48035  1.0000
  H   H306      1.0  0.29426  0.06920  0.48001  1.0000
  H   H307      1.0  0.99973  0.34159  0.44755  1.0000
  C   C264      1.0  0.99559  0.26645  0.42361  1.0000
  H   H308      1.0  0.99908  0.35804  0.30018  1.0000
  H   H309      1.0  0.16639  0.09031  0.47832  1.0000
  N   N20       1.0  0.99310  0.31660  0.45891  1.0000
  H   H310      1.0  0.99467  0.14216  0.42490  1.0000
  H   H311      1.0  0.99352  0.28944  0.47005  1.0000
  H   H312      1.0  0.31069  0.98809  0.41173  1.0000
  C   C265      1.0  0.32480  0.04654  0.47359  1.0000
  C   C266      1.0  0.07579  0.23007  0.48295  1.0000
  H   H313      1.0  0.12789  0.29937  0.47803  1.0000
  C   C267      1.0  0.01428  0.18089  0.48466  1.0000
  H   H314      1.0  0.15029  0.40153  0.23759  1.0000
  H   H315      1.0  0.99680  0.34928  0.34813  1.0000
  H   H316      1.0  0.18631  0.11237  0.48306  1.0000
  C   C268      1.0  0.20733  0.98762  0.44408  1.0000
  H   H317      1.0  0.22518  0.98765  0.46686  1.0000
  C   C269      1.0  0.28676  0.98718  0.39351  1.0000
  H   H318      1.0  0.08828  0.30401  0.48428  1.0000
  C   C270      1.0  0.13808  0.28909  0.48376  1.0000
  C   C271      1.0  0.99283  0.21465  0.41012  1.0000
  H   H319      1.0  0.99356  0.22532  0.39871  1.0000
  H   H320      1.0  0.24109  0.08005  0.48431  1.0000
  H   H321      1.0  0.18650  0.00276  0.48547  1.0000
  H   H322      1.0  0.01451  0.16830  0.49368  1.0000
  H   H323      1.0  0.18183  0.00839  0.51434  1.0000
  Fe  Fe27      1.0  0.24399  0.01381  0.49185  1.0000
  H   H324      1.0  0.13097  0.48005  0.65564  1.0000
  S   S57       1.0  0.26987  0.05008  0.51123  1.0000
  H   H325      1.0  0.05311  0.43138  0.58143  1.0000
  C   C272      1.0  0.00836  0.42251  0.70206  1.0000
  C   C273      1.0  0.05872  0.08617  0.51206  1.0000
  H   H326      1.0  0.06116  0.37464  0.70526  1.0000
  C   C274      1.0  0.29939  0.04708  0.52229  1.0000
  C   C275      1.0  0.29157  0.02153  0.55223  1.0000
  H   H327      1.0  0.02786  0.33869  0.58424  1.0000
  C   C276      1.0  0.06632  0.44395  0.69426  1.0000
  S   S58       1.0  0.99628  0.45390  0.60142  1.0000
  H   H328      1.0  0.02613  0.40296  0.64581  1.0000
  H   H329      1.0  0.06937  0.32634  0.72306  1.0000
  Fe  Fe28      1.0  0.10547  0.37889  0.65486  1.0000
  S   S59       1.0  0.08137  0.39375  0.66972  1.0000
  S   S60       1.0  0.12939  0.36410  0.66530  1.0000
  Fe  Fe29      1.0  0.09036  0.38526  0.62308  1.0000
  S   S61       1.0  0.06527  0.40123  0.63520  1.0000
  S   S62       1.0  0.09133  0.38230  0.59610  1.0000
  Fe  Fe30      1.0  0.08132  0.41334  0.64432  1.0000
  S   S63       1.0  0.07126  0.44160  0.64558  1.0000
  Fe  Fe31      1.0  0.06743  0.38042  0.65936  1.0000
  S   S64       1.0  0.04307  0.37118  0.67395  1.0000
  S   S65       1.0  0.10652  0.39945  0.62988  1.0000
  S   S66       1.0  0.09150  0.36351  0.64687  1.0000
  H   H330      1.0  0.14736  0.99892  0.54491  1.0000
  H   H331      1.0  0.05077  0.28460  0.53041  1.0000
  S   S67       1.0  0.01269  0.26598  0.51026  1.0000
  C   C277      1.0  0.13528  0.36658  0.71834  1.0000
  C   C278      1.0  0.06074  0.43891  0.71225  1.0000
  Fe  Fe32      1.0  0.00839  0.24223  0.53084  1.0000
  H   H332      1.0  0.01734  0.30049  0.51206  1.0000
  S   S68       1.0  0.01714  0.35774  0.61425  1.0000
  C   C279      1.0  0.07381  0.08856  0.51478  1.0000
  H   H333      1.0  0.02772  0.44982  0.61889  1.0000
  H   H334      1.0  0.06539  0.42569  0.71915  1.0000
  Fe  Fe33      1.0  0.25159  0.03304  0.51428  1.0000
  C   C280      1.0  0.99215  0.16843  0.56780  1.0000
  S   S69       1.0  0.18546  0.03971  0.52356  1.0000
  C   C281      1.0  0.28398  0.04135  0.52582  1.0000
  C   C282      1.0  0.09334  0.34317  0.72223  1.0000
  H   H335      1.0  0.13225  0.43527  0.70640  1.0000
  H   H336      1.0  0.07608  0.08516  0.52791  1.0000
  C   C283      1.0  0.02687  0.44149  0.68297  1.0000
  H   H337      1.0  0.06510  0.46427  0.67155  1.0000
  H   H338      1.0  0.15982  0.34862  0.71277  1.0000
  C   C284      1.0  0.28020  0.02837  0.54067  1.0000
  H   H339      1.0  0.11547  0.48497  0.69129  1.0000
  H   H340      1.0  0.16160  0.01376  0.53849  1.0000
  H   H341      1.0  0.06858  0.47816  0.64043  1.0000
  H   H342      1.0  0.09656  0.09839  0.50399  1.0000
  C   C285      1.0  0.99606  0.19792  0.56141  1.0000
  H   H343      1.0  0.05574  0.33437  0.48735  1.0000
  Fe  Fe34      1.0  0.09257  0.13622  0.53302  1.0000
  S   S70       1.0  0.08508  0.16519  0.52463  1.0000
  S   S71       1.0  0.07070  0.12225  0.54392  1.0000
  Fe  Fe35      1.0  0.13125  0.13511  0.52093  1.0000
  S   S72       1.0  0.12681  0.16427  0.51141  1.0000
  S   S73       1.0  0.15963  0.12123  0.51644  1.0000
  Fe  Fe36      1.0  0.10681  0.16531  0.53615  1.0000
  S   S74       1.0  0.10077  0.18548  0.55203  1.0000
  Fe  Fe37      1.0  0.10564  0.16157  0.50083  1.0000
  S   S75       1.0  0.11273  0.13635  0.54686  1.0000
  S   S76       1.0  0.11153  0.13235  0.50813  1.0000
  Fe  Fe38      1.0  0.10769  0.30169  0.55599  1.0000
  S   S77       1.0  0.08215  0.31455  0.54831  1.0000
  S   S78       1.0  0.11592  0.30764  0.57748  1.0000
  Fe  Fe39      1.0  0.11542  0.27427  0.53459  1.0000
  S   S79       1.0  0.09025  0.28468  0.52568  1.0000
  S   S80       1.0  0.13391  0.25137  0.52460  1.0000
  Fe  Fe40      1.0  0.09612  0.31068  0.52157  1.0000
  H   H344      1.0  0.02069  0.15214  0.54497  1.0000
  Fe  Fe41      1.0  0.07859  0.28744  0.55316  1.0000
  S   S81       1.0  0.05250  0.28285  0.56848  1.0000
  S   S82       1.0  0.12235  0.30024  0.52855  1.0000
  S   S83       1.0  0.10317  0.27458  0.56264  1.0000
  S   S84       1.0  0.03061  0.22775  0.54375  1.0000
  C   C286      1.0  0.04606  0.26680  0.56315  1.0000
  C   C287      1.0  0.02908  0.26985  0.56090  1.0000
  C   C288      1.0  0.02423  0.25786  0.55497  1.0000
  C   C289      1.0  0.03608  0.24237  0.55220  1.0000
  C   C290      1.0  0.05273  0.23894  0.55532  1.0000
  C   C291      1.0  0.05794  0.25141  0.56021  1.0000
  H   H345      1.0  0.01982  0.28176  0.56319  1.0000
  H   H346      1.0  0.01126  0.26058  0.55275  1.0000
  H   H347      1.0  0.06162  0.22674  0.55361  1.0000
  H   H348      1.0  0.07104  0.24906  0.56196  1.0000
  C   C292      1.0  0.10964  0.20399  0.54263  1.0000
  C   C293      1.0  0.12536  0.20356  0.53032  1.0000
  C   C294      1.0  0.13269  0.21831  0.52434  1.0000
  C   C295      1.0  0.12413  0.23353  0.53044  1.0000
  C   C296      1.0  0.10807  0.23414  0.54206  1.0000
  C   C297      1.0  0.10101  0.21936  0.54825  1.0000
  H   H349      1.0  0.13222  0.19168  0.52600  1.0000
  H   H350      1.0  0.14516  0.21777  0.51534  1.0000
  H   H351      1.0  0.10139  0.24579  0.54683  1.0000
  H   H352      1.0  0.08897  0.21972  0.55778  1.0000
  C   C298      1.0  0.05764  0.12632  0.52878  1.0000
  H   H353      1.0  0.03900  0.11224  0.54676  1.0000
  H   H354      1.0  0.14110  0.40003  0.67368  1.0000
  C   C299      1.0  0.17806  0.06214  0.52307  1.0000
  C   C300      1.0  0.18964  0.07235  0.52160  1.0000
  C   C301      1.0  0.18367  0.09042  0.52008  1.0000
  C   C302      1.0  0.16611  0.09837  0.52008  1.0000
  C   C303      1.0  0.15445  0.08811  0.52189  1.0000
  C   C304      1.0  0.16043  0.07002  0.52339  1.0000
  H   H355      1.0  0.20323  0.06637  0.52143  1.0000
  H   H356      1.0  0.19270  0.09830  0.51880  1.0000
  H   H357      1.0  0.14090  0.09415  0.52194  1.0000
  H   H358      1.0  0.15142  0.06215  0.52458  1.0000
  C   C305      1.0  0.02573  0.18444  0.53436  1.0000
  H   H359      1.0  0.15499  0.00436  0.56092  1.0000
  H   H360      1.0  0.04283  0.09089  0.49358  1.0000
  H   H361      1.0  0.04325  0.27859  0.51520  1.0000
  C   C306      1.0  0.03732  0.13163  0.50434  1.0000
  C   C307      1.0  0.02771  0.15582  0.55277  1.0000
  H   H362      1.0  0.07348  0.14160  0.50812  1.0000
  H   H363      1.0  0.01889  0.41082  0.70013  1.0000
  N   N21       1.0  0.02208  0.17467  0.55276  1.0000
  C   C308      1.0  0.99959  0.19433  0.48666  1.0000
  N   N22       1.0  0.04181  0.30633  0.51041  1.0000
  C   C309      1.0  0.09774  0.36139  0.59128  1.0000
  C   C310      1.0  0.10480  0.34665  0.60289  1.0000
  C   C311      1.0  0.11032  0.33030  0.59846  1.0000
  C   C312      1.0  0.10868  0.32846  0.58248  1.0000
  C   C313      1.0  0.10138  0.34313  0.57096  1.0000
  C   C314      1.0  0.09599  0.35953  0.57533  1.0000
  H   H364      1.0  0.10641  0.34792  0.61510  1.0000
  H   H365      1.0  0.11607  0.31905  0.60740  1.0000
  H   H366      1.0  0.10012  0.34191  0.55857  1.0000
  H   H367      1.0  0.09059  0.37087  0.56625  1.0000
  C   C315      1.0  0.03555  0.36663  0.65801  1.0000
  C   C316      1.0  0.04675  0.36516  0.64195  1.0000
  C   C317      1.0  0.04089  0.36249  0.62866  1.0000
  C   C318      1.0  0.02375  0.36120  0.63134  1.0000
  C   C319      1.0  0.01248  0.36236  0.64751  1.0000
  C   C320      1.0  0.01835  0.36523  0.66083  1.0000
  H   H368      1.0  0.05999  0.36622  0.63952  1.0000
  H   H369      1.0  0.04969  0.36164  0.61620  1.0000
  H   H370      1.0  0.99933  0.36105  0.64980  1.0000
  H   H371      1.0  0.00952  0.36664  0.67313  1.0000
  C   C321      1.0  0.11233  0.47424  0.62811  1.0000
  C   C322      1.0  0.11737  0.45638  0.62844  1.0000
  C   C323      1.0  0.10489  0.44616  0.63407  1.0000
  C   C324      1.0  0.08725  0.45395  0.63859  1.0000
  C   C325      1.0  0.08221  0.47192  0.63763  1.0000
  H   H372      1.0  0.30271  0.01760  0.50493  1.0000
  H   H373      1.0  0.13095  0.45041  0.62451  1.0000
  H   H374      1.0  0.10891  0.43234  0.63467  1.0000
  C   C326      1.0  0.00395  0.42377  0.64171  1.0000
  Fe  Fe42      1.0  0.24228  0.99805  0.53014  1.0000
  H   H375      1.0  0.01930  0.30476  0.53152  1.0000
  H   H376      1.0  0.02495  0.30158  0.68005  1.0000
  H   H377      1.0  0.01694  0.18291  0.52694  1.0000
  C   C327      1.0  0.00209  0.34197  0.72056  1.0000
  H   H378      1.0  0.99572  0.41868  0.70489  1.0000
  C   C328      1.0  0.08555  0.09618  0.50083  1.0000
  C   C329      1.0  0.06209  0.13620  0.51190  1.0000
  H   H379      1.0  0.04127  0.48428  0.66213  1.0000
  H   H380      1.0  0.02854  0.45212  0.67106  1.0000
  H   H381      1.0  0.15361  0.47290  0.65688  1.0000
  H   H382      1.0  0.03769  0.43011  0.68062  1.0000
  H   H383      1.0  0.04925  0.22089  0.50871  1.0000
  C   C330      1.0  0.01709  0.41400  0.65047  1.0000
  S   S85       1.0  0.09003  0.33210  0.49859  1.0000
  H   H384      1.0  0.02258  0.32913  0.68294  1.0000
  H   H385      1.0  0.32303  0.04410  0.53068  1.0000
  H   H386      1.0  0.05569  0.14606  0.48658  1.0000
  H   H387      1.0  0.04128  0.33100  0.51543  1.0000
  C   C331      1.0  0.12037  0.37653  0.71213  1.0000
  C   C332      1.0  0.11860  0.37629  0.69559  1.0000
  C   C333      1.0  0.13147  0.36573  0.68552  1.0000
  C   C334      1.0  0.14635  0.35587  0.69174  1.0000
  H   H388      1.0  0.01584  0.32237  0.51300  1.0000
  H   H389      1.0  0.14622  0.47792  0.69374  1.0000
  H   H390      1.0  0.10737  0.38430  0.69061  1.0000
  H   H391      1.0  0.15640  0.34777  0.68394  1.0000
  H   H392      1.0  0.13148  0.28005  0.49470  1.0000
  C   C335      1.0  0.07386  0.23549  0.51120  1.0000
  H   H393      1.0  0.01444  0.28881  0.69970  1.0000
  C   C336      1.0  0.14053  0.44340  0.66190  1.0000
  H   H394      1.0  0.04938  0.08078  0.52300  1.0000
  H   H395      1.0  0.18451  0.08189  0.48860  1.0000
  H   H396      1.0  0.31495  0.98788  0.55401  1.0000
  C   C337      1.0  0.09308  0.20942  0.50393  1.0000
  C   C338      1.0  0.31111  0.03970  0.53349  1.0000
  N   N23       1.0  0.00951  0.43744  0.68681  1.0000
  C   C339      1.0  0.04328  0.46810  0.71278  1.0000
  H   H397      1.0  0.09305  0.20355  0.51795  1.0000
  C   C340      1.0  0.14002  0.41307  0.67504  1.0000
  H   H398      1.0  0.14192  0.45322  0.64991  1.0000
  H   H399      1.0  0.03047  0.19249  0.56211  1.0000
  H   H400      1.0  0.99635  0.15478  0.56754  1.0000
  H   H401      1.0  0.11014  0.38424  0.72008  1.0000
  C   C341      1.0  0.05511  0.09175  0.49545  1.0000
  H   H402      1.0  0.04182  0.15213  0.54698  1.0000
  H   H403      1.0  0.10430  0.21579  0.49853  1.0000
  H   H404      1.0  0.05136  0.30435  0.62901  1.0000
  Fe  Fe43      1.0  0.99827  0.13086  0.49888  1.0000
  S   S86       1.0  0.23348  0.04096  0.49588  1.0000
  H   H405      1.0  0.02533  0.34619  0.70166  1.0000
  H   H406      1.0  0.06034  0.24345  0.51305  1.0000
  H   H407      1.0  0.99497  0.30318  0.59654  1.0000
  H   H408      1.0  0.99819  0.45577  0.70359  1.0000
  H   H409      1.0  0.31576  0.04268  0.48610  1.0000
  H   H410      1.0  0.16089  0.45901  0.68676  1.0000
  H   H411      1.0  0.26828  0.02397  0.54352  1.0000
  C   C342      1.0  0.04892  0.47374  0.69443  1.0000
  C   C343      1.0  0.14709  0.46462  0.69217  1.0000
  H   H412      1.0  0.13257  0.25469  0.48853  1.0000
  C   C344      1.0  0.18910  0.99121  0.54886  1.0000
  H   H413      1.0  0.00820  0.32727  0.66338  1.0000
  C   C345      1.0  0.06048  0.46106  0.68547  1.0000
  C   C346      1.0  0.01876  0.41841  0.66512  1.0000
  C   C347      1.0  0.04919  0.45093  0.72145  1.0000
  H   H414      1.0  0.99682  0.46477  0.68127  1.0000
  C   C348      1.0  0.13675  0.41644  0.69152  1.0000
  C   C349      1.0  0.12344  0.32755  0.72362  1.0000
  C   C350      1.0  0.99631  0.45280  0.69187  1.0000
  C   C351      1.0  0.07145  0.36885  0.71306  1.0000
  C   C352      1.0  0.04570  0.31110  0.49111  1.0000
  C   C353      1.0  0.00345  0.18019  0.56070  1.0000
  H   H415      1.0  0.06521  0.37126  0.72626  1.0000
  H   H416      1.0  0.30228  0.05725  0.51094  1.0000
  H   H417      1.0  0.02883  0.44564  0.69397  1.0000
  H   H418      1.0  0.07634  0.22965  0.52457  1.0000
  H   H419      1.0  0.09415  0.35510  0.68713  1.0000
  C   C354      1.0  0.14180  0.42654  0.66029  1.0000
  H   H420      1.0  0.06387  0.28467  0.50897  1.0000
  H   H421      1.0  0.02393  0.19860  0.53330  1.0000
  H   H422      1.0  0.09713  0.47122  0.59697  1.0000
  C   C355      1.0  0.06234  0.21224  0.50930  1.0000
  H   H423      1.0  0.11300  0.33201  0.70151  1.0000
  C   C356      1.0  0.13526  0.43327  0.69331  1.0000
  N   N24       1.0  0.05066  0.44834  0.59828  1.0000
  C   C357      1.0  0.04178  0.44966  0.61640  1.0000
  C   C358      1.0  0.04310  0.46412  0.58614  1.0000
  C   C359      1.0  0.04677  0.43311  0.59490  1.0000
  C   C360      1.0  0.06947  0.44713  0.59598  1.0000
  C   C361      1.0  0.07533  0.46118  0.59762  1.0000
  C   C362      1.0  0.08241  0.43213  0.59237  1.0000
  C   C363      1.0  0.09301  0.46041  0.59540  1.0000
  C   C364      1.0  0.10005  0.43144  0.59035  1.0000
  C   C365      1.0  0.10534  0.44555  0.59185  1.0000
  H   H424      1.0  0.04276  0.46169  0.61943  1.0000
  H   H425      1.0  0.28829  0.01199  0.56405  1.0000
  H   H426      1.0  0.04763  0.43847  0.62595  1.0000
  H   H427      1.0  0.04354  0.47637  0.58910  1.0000
  H   H428      1.0  0.02915  0.46497  0.58691  1.0000
  H   H429      1.0  0.05017  0.46417  0.57243  1.0000
  H   H430      1.0  0.05110  0.42084  0.60426  1.0000
  C   C366      1.0  0.31255  0.99801  0.48969  1.0000
  H   H431      1.0  0.00350  0.34957  0.72877  1.0000
  H   H432      1.0  0.06626  0.47278  0.60097  1.0000
  H   H433      1.0  0.07931  0.42063  0.59120  1.0000
  H   H434      1.0  0.14359  0.45688  0.70559  1.0000
  H   H435      1.0  0.10963  0.41975  0.58783  1.0000
  H   H436      1.0  0.11900  0.44486  0.59056  1.0000
  N   N25       1.0  0.05414  0.31631  0.60156  1.0000
  C   C367      1.0  0.06906  0.30205  0.59683  1.0000
  C   C368      1.0  0.05817  0.33291  0.59008  1.0000
  C   C369      1.0  0.05289  0.31693  0.61978  1.0000
  C   C370      1.0  0.03778  0.31306  0.60010  1.0000
  C   C371      1.0  0.03316  0.29683  0.60863  1.0000
  C   C372      1.0  0.02585  0.32577  0.59065  1.0000
  C   C373      1.0  0.01796  0.29332  0.60722  1.0000
  C   C374      1.0  0.01059  0.32216  0.58948  1.0000
  C   C375      1.0  0.00675  0.30594  0.59760  1.0000
  H   H437      1.0  0.06931  0.29992  0.58396  1.0000
  H   H438      1.0  0.08172  0.30496  0.59610  1.0000
  H   H439      1.0  0.06868  0.28945  0.60637  1.0000
  H   H440      1.0  0.05911  0.33337  0.57616  1.0000
  H   H441      1.0  0.07073  0.33477  0.59112  1.0000
  H   H442      1.0  0.04833  0.34445  0.59370  1.0000
  H   H443      1.0  0.04149  0.32707  0.62402  1.0000
  H   H444      1.0  0.01196  0.28806  0.67875  1.0000
  H   H445      1.0  0.06466  0.32014  0.62124  1.0000
  H   H446      1.0  0.04139  0.28664  0.61625  1.0000
  C   C376      1.0  0.99375  0.44244  0.66235  1.0000
  S   S87       1.0  0.02601  0.13348  0.48828  1.0000
  H   H447      1.0  0.03027  0.17152  0.57649  1.0000
  C   C377      1.0  0.18134  0.99560  0.51358  1.0000
  H   H448      1.0  0.14411  0.42389  0.64749  1.0000
  C   C378      1.0  0.05201  0.13873  0.49969  1.0000
  H   H449      1.0  0.02930  0.41043  0.67135  1.0000
  H   H450      1.0  0.03438  0.47668  0.72079  1.0000
  H   H451      1.0  0.08781  0.33440  0.69387  1.0000
  H   H452      1.0  0.08293  0.24435  0.50450  1.0000
  H   H453      1.0  0.99453  0.31478  0.66139  1.0000
  H   H454      1.0  0.08181  0.37632  0.70757  1.0000
  H   H455      1.0  0.18704  0.99343  0.56215  1.0000
  C   C379      1.0  0.06463  0.34054  0.72253  1.0000
  H   H456      1.0  0.05327  0.34540  0.71612  1.0000
  C   C380      1.0  0.30709  0.02706  0.54860  1.0000
  C   C381      1.0  0.11732  0.47181  0.68890  1.0000
  H   H457      1.0  0.03257  0.43459  0.59635  1.0000
  C   C382      1.0  0.09476  0.48193  0.63287  1.0000
  C   C383      1.0  0.04788  0.31699  0.51849  1.0000
  H   H458      1.0  0.04514  0.31279  0.53301  1.0000
  N   N26       1.0  0.07861  0.35006  0.71320  1.0000
  H   H459      1.0  0.06221  0.20606  0.52334  1.0000
  H   H460      1.0  0.00919  0.42577  0.71410  1.0000
  C   C384      1.0  0.10991  0.33399  0.71461  1.0000
  C   C385      1.0  0.15882  0.00149  0.54771  1.0000
  H   H461      1.0  0.07527  0.43461  0.68700  1.0000
  S   S88       1.0  0.99936  0.23070  0.51417  1.0000
  N   N27       1.0  0.12899  0.21550  0.58476  1.0000
  C   C386      1.0  0.13475  0.21036  0.60147  1.0000
  C   C387      1.0  0.13828  0.20185  0.57465  1.0000
  C   C388      1.0  0.13439  0.23194  0.57444  1.0000
  C   C389      1.0  0.10984  0.21773  0.58860  1.0000
  C   C390      1.0  0.09850  0.23337  0.59265  1.0000
  C   C391      1.0  0.10190  0.20407  0.58955  1.0000
  C   C392      1.0  0.08044  0.23569  0.59595  1.0000
  C   C393      1.0  0.08382  0.20643  0.59314  1.0000
  C   C394      1.0  0.07312  0.22229  0.59608  1.0000
  H   H462      1.0  0.13121  0.19794  0.60953  1.0000
  H   H463      1.0  0.14910  0.20851  0.59933  1.0000
  H   H464      1.0  0.12856  0.22042  0.60934  1.0000
  H   H465      1.0  0.15246  0.20145  0.57024  1.0000
  H   H466      1.0  0.13311  0.20426  0.56276  1.0000
  H   H467      1.0  0.13736  0.18851  0.58243  1.0000
  H   H468      1.0  0.13104  0.24204  0.58215  1.0000
  H   H469      1.0  0.14871  0.22994  0.56944  1.0000
  H   H470      1.0  0.12833  0.23756  0.56290  1.0000
  H   H471      1.0  0.10339  0.24405  0.59317  1.0000
  H   H472      1.0  0.10934  0.19158  0.58697  1.0000
  H   H473      1.0  0.07204  0.24808  0.59812  1.0000
  H   H474      1.0  0.07813  0.19606  0.59300  1.0000
  H   H475      1.0  0.05912  0.22427  0.59825  1.0000
  S   S89       1.0  0.23170  0.02390  0.53770  1.0000
  C   C395      1.0  0.31293  0.00642  0.50218  1.0000
  C   C396      1.0  0.03291  0.17838  0.56251  1.0000
  C   C397      1.0  0.14828  0.35634  0.70806  1.0000
  H   H476      1.0  0.06214  0.31583  0.51410  1.0000
  C   C398      1.0  0.14024  0.47756  0.66416  1.0000
  Fe  Fe44      1.0  0.21458  0.02942  0.51865  1.0000
  Fe  Fe45      1.0  0.00108  0.25576  0.49465  1.0000
  H   H477      1.0  0.03937  0.17981  0.52763  1.0000
  H   H478      1.0  0.04707  0.17414  0.55709  1.0000
  C   C399      1.0  0.01283  0.29683  0.68652  1.0000
  C   C400      1.0  0.08353  0.34828  0.69481  1.0000
  C   C401      1.0  0.03234  0.12255  0.52149  1.0000
  C   C402      1.0  0.05028  0.28778  0.51643  1.0000
  N   N28       1.0  0.99722  0.31131  0.68779  1.0000
  H   H479      1.0  0.11299  0.46328  0.70167  1.0000
  H   H480      1.0  0.10841  0.47274  0.68043  1.0000
  H   H481      1.0  0.02105  0.11699  0.52520  1.0000
  H   H482      1.0  0.06399  0.20177  0.50241  1.0000
  H   H483      1.0  0.01488  0.28072  0.61344  1.0000
  S   S90       1.0  0.32138  0.01779  0.56297  1.0000
  H   H484      1.0  0.14455  0.29553  0.48965  1.0000
  H   H485      1.0  0.05064  0.24801  0.48847  1.0000
  N   N29       1.0  0.07640  0.22191  0.50146  1.0000
  H   H486      1.0  0.13529  0.40596  0.70301  1.0000
  C   C403      1.0  0.04258  0.11976  0.53366  1.0000
  H   H487      1.0  0.02162  0.48640  0.67871  1.0000
  H   H488      1.0  0.07243  0.35398  0.68816  1.0000
  H   H489      1.0  0.03721  0.28941  0.48813  1.0000
  S   S91       1.0  0.26363  0.00666  0.50841  1.0000
  C   C404      1.0  0.02280  0.30860  0.51700  1.0000
  C   C405      1.0  0.01271  0.33014  0.69471  1.0000
  C   C406      1.0  0.99631  0.32218  0.67003  1.0000
  H   H490      1.0  0.02584  0.14755  0.56623  1.0000
  C   C407      1.0  0.00719  0.43283  0.67149  1.0000
  N   N30       1.0  0.13562  0.46499  0.68079  1.0000
  C   C408      1.0  0.13740  0.44724  0.67853  1.0000
  S   S92       1.0  0.22368  0.00273  0.51292  1.0000
  H   H491      1.0  0.09547  0.19820  0.49792  1.0000
  H   H492      1.0  0.00378  0.20764  0.55622  1.0000
  S   S93       1.0  0.00234  0.47988  0.63079  1.0000
  H   H493      1.0  0.20996  0.09209  0.48714  1.0000
  C   C409      1.0  0.01444  0.33994  0.70534  1.0000
  H   H494      1.0  0.13612  0.32109  0.71734  1.0000
  C   C410      1.0  0.99848  0.32200  0.69907  1.0000
  H   H495      1.0  0.15911  0.25792  0.49003  1.0000
  H   H496      1.0  0.99958  0.41950  0.59816  1.0000
  H   H497      1.0  0.19185  0.00342  0.53964  1.0000
  H   H498      1.0  0.00288  0.42040  0.63023  1.0000
  C   C411      1.0  0.18410  0.99250  0.49697  1.0000
  H   H499      1.0  0.00156  0.33203  0.58234  1.0000
  S   S94       1.0  0.12806  0.48683  0.62174  1.0000
  H   H500      1.0  0.12302  0.48665  0.73079  1.0000
  H   H501      1.0  0.29675  0.98761  0.53769  1.0000
  C   C412      1.0  0.99228  0.43793  0.64765  1.0000
  H   H502      1.0  0.04492  0.44691  0.73548  1.0000
  H   H503      1.0  0.20979  0.34769  0.80731  1.0000
  C   C413      1.0  0.16531  0.44869  0.82188  1.0000
  S   S95       1.0  0.02214  0.35884  0.74969  1.0000
  C   C414      1.0  0.27951  0.41959  0.94623  1.0000
  H   H504      1.0  0.31026  0.48648  0.92749  1.0000
  C   C415      1.0  0.16848  0.33688  0.77722  1.0000
  H   H505      1.0  0.13816  0.35967  0.77506  1.0000
  H   H506      1.0  0.10012  0.47729  0.82810  1.0000
  C   C416      1.0  0.13037  0.46006  0.74464  1.0000
  H   H507      1.0  0.32285  0.38316  0.95416  1.0000
  H   H508      1.0  0.19104  0.35088  0.83601  1.0000
  Fe  Fe46      1.0  0.11095  0.40009  0.78492  1.0000
  S   S96       1.0  0.09235  0.42441  0.77474  1.0000
  S   S97       1.0  0.11494  0.39429  0.81252  1.0000
  H   H509      1.0  0.23527  0.39373  0.92300  1.0000
  C   C417      1.0  0.19982  0.35876  0.93247  1.0000
  N   N31       1.0  0.28934  0.45388  0.87001  1.0000
  C   C418      1.0  0.18923  0.44876  0.90742  1.0000
  H   H510      1.0  0.23670  0.37436  0.88932  1.0000
  Fe  Fe47      1.0  0.08373  0.40748  0.76306  1.0000
  S   S98       1.0  0.05596  0.41414  0.76041  1.0000
  S   S99       1.0  0.13233  0.40335  0.76120  1.0000
  S   S100      1.0  0.10009  0.38270  0.77577  1.0000
  H   H511      1.0  0.26751  0.44595  0.93518  1.0000
  C   C419      1.0  0.27820  0.43761  0.94102  1.0000
  Fe  Fe48      1.0  0.19327  0.40272  0.84660  1.0000
  S   S101      1.0  0.17541  0.42223  0.86177  1.0000
  S   S102      1.0  0.18791  0.39231  0.82624  1.0000
  Fe  Fe49      1.0  0.22521  0.40376  0.85842  1.0000
  S   S103      1.0  0.21002  0.42345  0.87424  1.0000
  Fe  Fe50      1.0  0.19004  0.40738  0.88305  1.0000
  S   S104      1.0  0.17750  0.40316  0.91166  1.0000
  Fe  Fe51      1.0  0.19703  0.43648  0.85174  1.0000
  S   S105      1.0  0.19252  0.46535  0.84117  1.0000
  S   S106      1.0  0.20614  0.38642  0.86882  1.0000
  S   S107      1.0  0.21386  0.41828  0.83504  1.0000
  H   H512      1.0  0.24181  0.40808  0.88520  1.0000
  C   C420      1.0  0.19199  0.40215  0.92447  1.0000
  C   C421      1.0  0.20987  0.39873  0.91768  1.0000
  C   C422      1.0  0.22147  0.39697  0.92813  1.0000
  C   C423      1.0  0.21532  0.39877  0.94538  1.0000
  C   C424      1.0  0.19740  0.40285  0.95208  1.0000
  C   C425      1.0  0.18573  0.40438  0.94165  1.0000
  H   H513      1.0  0.21482  0.39663  0.90463  1.0000
  H   H514      1.0  0.31603  0.44137  0.86150  1.0000
  H   H515      1.0  0.26272  0.46059  0.88332  1.0000
  H   H516      1.0  0.17188  0.40704  0.94695  1.0000
  H   H517      1.0  0.01599  0.42396  0.77372  1.0000
  C   C426      1.0  0.25565  0.40302  0.88355  1.0000
  H   H518      1.0  0.19256  0.40415  0.96545  1.0000
  H   H519      1.0  0.19727  0.34827  0.78327  1.0000
  H   H520      1.0  0.22603  0.44780  0.84968  1.0000
  C   C427      1.0  0.13486  0.39537  0.81612  1.0000
  C   C428      1.0  0.13652  0.39392  0.83313  1.0000
  C   C429      1.0  0.15246  0.39411  0.83635  1.0000
  C   C430      1.0  0.16697  0.39516  0.82260  1.0000
  C   C431      1.0  0.16520  0.39687  0.80559  1.0000
  C   C432      1.0  0.14912  0.39741  0.80233  1.0000
  H   H521      1.0  0.12552  0.39245  0.84389  1.0000
  H   H522      1.0  0.15375  0.39267  0.84952  1.0000
  H   H523      1.0  0.17637  0.39769  0.79491  1.0000
  H   H524      1.0  0.14789  0.39907  0.78919  1.0000
  C   C433      1.0  0.27501  0.45093  0.88537  1.0000
  C   C434      1.0  0.28071  0.38298  0.95765  1.0000
  C   C435      1.0  0.26486  0.39519  0.86961  1.0000
  H   H525      1.0  0.26769  0.34960  0.91983  1.0000
  H   H526      1.0  0.11588  0.42900  0.81227  1.0000
  H   H527      1.0  0.15697  0.44631  0.77362  1.0000
  C   C436      1.0  0.26437  0.40425  0.89552  1.0000
  H   H528      1.0  0.00408  0.45431  0.80307  1.0000
  Fe  Fe52      1.0  0.11299  0.42637  0.75038  1.0000
  H   H529      1.0  0.24545  0.35067  0.94185  1.0000
  H   H530      1.0  0.27201  0.35847  0.89714  1.0000
  H   H531      1.0  0.22234  0.48517  0.79808  1.0000
  C   C437      1.0  0.03016  0.41426  0.80207  1.0000
  H   H532      1.0  0.16289  0.33754  0.76600  1.0000
  C   C438      1.0  0.09127  0.34530  0.73934  1.0000
  C   C439      1.0  0.29393  0.38429  0.97975  1.0000
  C   C440      1.0  0.29162  0.38995  0.87961  1.0000
  C   C441      1.0  0.14347  0.35821  0.78664  1.0000
  H   H533      1.0  0.18338  0.46041  0.88200  1.0000
  H   H534      1.0  0.27809  0.45190  0.89743  1.0000
  C   C442      1.0  0.20021  0.46857  0.94611  1.0000
  C   C443      1.0  0.28285  0.38864  0.86768  1.0000
  H   H535      1.0  0.00691  0.39983  0.79345  1.0000
  H   H536      1.0  0.18296  0.36384  0.76217  1.0000
  H   H537      1.0  0.30978  0.44107  0.88436  1.0000
  C   C444      1.0  0.27646  0.46610  0.82577  1.0000
  C   C445      1.0  0.03240  0.37393  0.75191  1.0000
  C   C446      1.0  0.04637  0.36833  0.76037  1.0000
  C   C447      1.0  0.05426  0.38055  0.76244  1.0000
  C   C448      1.0  0.04788  0.39837  0.75638  1.0000
  H   H538      1.0  0.31314  0.36570  0.95576  1.0000
  C   C449      1.0  0.02636  0.39172  0.74551  1.0000
  H   H539      1.0  0.05077  0.35459  0.76572  1.0000
  H   H540      1.0  0.06482  0.37623  0.76927  1.0000
  S   S108      1.0  0.23524  0.46576  0.97179  1.0000
  H   H541      1.0  0.14074  0.43486  0.75959  1.0000
  H   H542      1.0  0.27327  0.42382  0.83849  1.0000
  H   H543      1.0  0.13832  0.37080  0.79083  1.0000
  H   H544      1.0  0.21983  0.35555  0.96472  1.0000
  H   H545      1.0  0.27239  0.43777  0.88802  1.0000
  Fe  Fe53      1.0  0.32185  0.39574  0.90132  1.0000
  H   H546      1.0  0.01405  0.43903  0.82029  1.0000
  H   H547      1.0  0.18297  0.43810  0.90963  1.0000
  C   C450      1.0  0.28184  0.46741  0.84007  1.0000
  C   C451      1.0  0.28234  0.39773  0.89357  1.0000
  H   H548      1.0  0.03223  0.40368  0.79524  1.0000
  H   H549      1.0  0.24633  0.45822  0.85948  1.0000
  C   C452      1.0  0.19591  0.34896  0.80935  1.0000
  C   C453      1.0  0.19485  0.48179  0.79212  1.0000
  H   H550      1.0  0.30389  0.47382  0.85739  1.0000
  S   S109      1.0  0.29276  0.39970  0.90870  1.0000
  H   H551      1.0  0.28335  0.48008  0.83992  1.0000
  C   C454      1.0  0.18539  0.35060  0.82560  1.0000
  C   C455      1.0  0.16751  0.35260  0.82827  1.0000
  H   H552      1.0  0.16432  0.32618  0.78809  1.0000
  C   C456      1.0  0.22444  0.47794  0.92508  1.0000
  C   C457      1.0  0.17030  0.35221  0.79771  1.0000
  Fe  Fe54      1.0  0.22326  0.40698  0.98125  1.0000
  H   H553      1.0  0.14597  0.35566  0.81752  1.0000
  H   H554      1.0  0.09681  0.46521  0.79921  1.0000
  H   H555      1.0  0.12477  0.46906  0.83844  1.0000
  C   C458      1.0  0.14942  0.45509  0.76442  1.0000
  C   C459      1.0  0.20581  0.46342  0.91732  1.0000
  H   H556      1.0  0.18519  0.47649  0.78913  1.0000
  C   C460      1.0  0.18934  0.46134  0.89190  1.0000
  H   H557      1.0  0.19229  0.45854  0.95176  1.0000
  C   C461      1.0  0.21437  0.35632  0.91894  1.0000
  H   H558      1.0  0.30450  0.38766  0.98330  1.0000
  H   H559      1.0  0.26967  0.41475  0.94378  1.0000
  H   H560      1.0  0.28933  0.45891  0.93954  1.0000
  H   H561      1.0  0.13177  0.32582  0.74688  1.0000
  C   C462      1.0  0.23302  0.35288  0.93860  1.0000
  H   H562      1.0  0.18686  0.36162  0.92998  1.0000
  C   C463      1.0  0.20180  0.35846  0.94890  1.0000
  H   H563      1.0  0.17864  0.44738  0.82251  1.0000
  C   C464      1.0  0.26135  0.35794  0.90901  1.0000
  H   H564      1.0  0.11884  0.45516  0.79103  1.0000
  H   H565      1.0  0.04223  0.41938  0.79695  1.0000
  H   H566      1.0  0.25655  0.37138  0.91123  1.0000
  N   N32       1.0  0.11233  0.45366  0.81881  1.0000
  C   C465      1.0  0.11042  0.46274  0.80076  1.0000
  C   C466      1.0  0.10848  0.43621  0.82257  1.0000
  C   C467      1.0  0.09896  0.46355  0.83096  1.0000
  C   C468      1.0  0.13036  0.45189  0.82034  1.0000
  C   C469      1.0  0.14447  0.44139  0.81081  1.0000
  C   C470      1.0  0.13455  0.46069  0.83079  1.0000
  C   C471      1.0  0.16165  0.43981  0.81163  1.0000
  C   C472      1.0  0.30540  0.41633  0.95666  1.0000
  N   N33       1.0  0.21402  0.46438  0.93092  1.0000
  S   S110      1.0  0.15590  0.48165  0.77388  1.0000
  Fe  Fe55      1.0  0.99365  0.37143  0.75321  1.0000
  H   H567      1.0  0.10321  0.34140  0.76094  1.0000
  H   H568      1.0  0.18284  0.33309  0.77298  1.0000
  H   H569      1.0  0.09458  0.43701  0.82315  1.0000
  H   H570      1.0  0.11169  0.42807  0.83518  1.0000
  C   C473      1.0  0.14802  0.47303  0.76114  1.0000
  S   S111      1.0  0.20554  0.43304  0.98283  1.0000
  H   H571      1.0  0.08554  0.46442  0.82973  1.0000
  H   H572      1.0  0.14233  0.43441  0.80252  1.0000
  C   C474      1.0  0.31152  0.38009  0.95167  1.0000
  H   H573      1.0  0.17221  0.43161  0.80432  1.0000
  H   H574      1.0  0.00404  0.44496  0.77724  1.0000
  N   N34       1.0  0.29465  0.38931  0.96071  1.0000
  C   C475      1.0  0.25316  0.33244  0.90769  1.0000
  H   H575      1.0  0.25659  0.32505  0.92042  1.0000
  H   H576      1.0  0.26487  0.32980  0.89721  1.0000
  H   H577      1.0  0.24294  0.32699  0.90593  1.0000
  H   H578      1.0  0.21183  0.35694  0.90652  1.0000
  C   C476      1.0  0.27588  0.43596  0.83883  1.0000
  H   H579      1.0  0.29743  0.47094  0.88050  1.0000
  C   C477      1.0  0.20909  0.47311  0.84409  1.0000
  H   H580      1.0  0.25718  0.41037  0.90626  1.0000
  C   C478      1.0  0.22384  0.46147  0.84926  1.0000
  H   H581      1.0  0.02706  0.44762  0.79984  1.0000
  H   H582      1.0  0.16631  0.37989  0.77181  1.0000
  S   S112      1.0  0.24646  0.41517  0.98264  1.0000
  C   C479      1.0  0.23145  0.35385  0.92145  1.0000
  C   C480      1.0  0.16884  0.36740  0.76780  1.0000
  S   S113      1.0  0.23049  0.39433  0.95846  1.0000
  C   C481      1.0  0.15181  0.45910  0.83144  1.0000
  H   H583      1.0  0.15935  0.35433  0.84083  1.0000
  H   H584      1.0  0.29005  0.38260  0.85689  1.0000
  C   C482      1.0  0.18855  0.34954  0.79563  1.0000
  H   H585      1.0  0.02723  0.43981  0.77340  1.0000
  Fe  Fe56      1.0  0.12020  0.38793  0.75120  1.0000
  H   H586      1.0  0.16223  0.36997  0.75682  1.0000
  C   C483      1.0  0.28126  0.43714  0.85315  1.0000
  H   H587      1.0  0.30552  0.38493  0.87801  1.0000
  H   H588      1.0  0.09978  0.45735  0.84477  1.0000
  H   H589      1.0  0.13790  0.34796  0.79700  1.0000
  C   C484      1.0  0.27346  0.45043  0.82517  1.0000
  H   H590      1.0  0.19647  0.43983  0.93196  1.0000
  C   C485      1.0  0.30514  0.44023  0.87311  1.0000
  H   H591      1.0  0.23474  0.35433  0.88574  1.0000
  C   C486      1.0  0.99865  0.42103  0.80721  1.0000
  N   N35       1.0  0.24698  0.35130  0.90719  1.0000
  H   H592      1.0  0.30730  0.48628  0.89835  1.0000
  C   C487      1.0  0.28437  0.45289  0.85428  1.0000
  S   S114      1.0  0.25422  0.39310  0.85463  1.0000
  N   N36       1.0  0.01443  0.42812  0.79908  1.0000
  H   H593      1.0  0.26761  0.38897  0.96445  1.0000
  H   H594      1.0  0.19122  0.48135  0.94238  1.0000
  C   C488      1.0  0.15998  0.35341  0.81460  1.0000
  C   C489      1.0  0.14025  0.44862  0.75645  1.0000
  H   H595      1.0  0.27421  0.47745  0.81529  1.0000
  H   H596      1.0  0.15480  0.46594  0.83942  1.0000
  C   C490      1.0  0.29308  0.40839  0.95448  1.0000
  H   H597      1.0  0.31614  0.40874  0.96278  1.0000
  C   C491      1.0  0.23563  0.46744  0.85437  1.0000
  C   C492      1.0  0.03399  0.40390  0.74785  1.0000
  H   H598      1.0  0.11406  0.47555  0.79695  1.0000
  C   C493      1.0  0.21836  0.35537  0.95200  1.0000
  H   H599      1.0  0.20665  0.48012  0.78157  1.0000
  H   H600      1.0  0.02934  0.40826  0.81620  1.0000
  C   C494      1.0  0.01547  0.43444  0.78006  1.0000
  N   N37       1.0  0.16278  0.35369  0.78270  1.0000
  C   C495      1.0  0.19707  0.47520  0.88914  1.0000
  C   C496      1.0  0.99699  0.40604  0.80295  1.0000
  H   H601      1.0  0.28259  0.42569  0.86354  1.0000
  C   C497      1.0  0.19718  0.44981  0.92005  1.0000
  C   C498      1.0  0.24310  0.36038  0.88974  1.0000
  H   H602      1.0  0.25505  0.36001  0.87919  1.0000
  H   H603      1.0  0.26898  0.44954  0.81425  1.0000
  H   H604      1.0  0.19791  0.47339  0.80468  1.0000
  H   H605      1.0  0.20575  0.46948  0.95672  1.0000
  H   H606      1.0  0.19045  0.36104  0.95913  1.0000
  C   C499      1.0  0.29045  0.44495  0.94350  1.0000
  H   H607      1.0  0.30284  0.42689  0.87626  1.0000
  H   H608      1.0  0.31246  0.38378  0.93732  1.0000
  H   H609      1.0  0.23297  0.44803  0.94602  1.0000
  C   C500      1.0  0.29317  0.47089  0.86874  1.0000
  H   H610      1.0  0.28070  0.38578  0.94356  1.0000
  C   C501      1.0  0.10496  0.33905  0.74812  1.0000
  C   C502      1.0  0.01486  0.44287  0.80597  1.0000
  H   H611      1.0  0.21880  0.43677  0.94332  1.0000
  H   H612      1.0  0.31368  0.43994  0.95319  1.0000
  C   C503      1.0  0.30411  0.43430  0.95119  1.0000
  C   C504      1.0  0.13884  0.48429  0.74875  1.0000
  C   C505      1.0  0.22582  0.44739  0.93654  1.0000
  H   H613      1.0  0.07910  0.35201  0.74598  1.0000
  H   H614      1.0  0.28226  0.36865  0.96252  1.0000
  H   H615      1.0  0.05951  0.34216  0.73619  1.0000
  H   H616      1.0  0.23466  0.47599  0.91320  1.0000
  H   H617      1.0  0.01563  0.39612  0.73891  1.0000
  C   C506      1.0  0.20535  0.47624  0.90148  1.0000
  H   H618      1.0  0.02897  0.41767  0.74317  1.0000
  H   H619      1.0  0.23554  0.44315  0.92519  1.0000
  H   H620      1.0  0.23102  0.47784  0.93535  1.0000
  H   H621      1.0  0.31618  0.48297  0.96285  1.0000
  S   S115      1.0  0.13793  0.36622  0.73904  1.0000
  H   H622      1.0  0.15281  0.48017  0.89742  1.0000
  C   C507      1.0  0.23310  0.48517  0.85358  1.0000
  C   C508      1.0  0.12102  0.33018  0.74027  1.0000
  H   H623      1.0  0.28148  0.48173  0.86762  1.0000
  C   C509      1.0  0.13022  0.47781  0.74029  1.0000
  S   S116      1.0  0.10307  0.41137  0.73782  1.0000
  H   H624      1.0  0.19663  0.48524  0.87732  1.0000
  H   H625      1.0  0.29492  0.37007  0.98502  1.0000
  S   S117      1.0  0.11767  0.45260  0.73558  1.0000
  H   H626      1.0  0.16871  0.63213  0.05795  1.0000
  S   S118      1.0  0.00090  0.54033  0.11932  1.0000
  C   C510      1.0  0.04510  0.61744  0.21881  1.0000
  C   C511      1.0  0.00498  0.59288  0.14500  1.0000
  S   S119      1.0  0.17152  0.56128  0.04557  1.0000
  H   H627      1.0  0.04601  0.52722  0.07712  1.0000
  H   H628      1.0  0.16684  0.52489  0.05687  1.0000
  H   H629      1.0  0.04255  0.54332  0.17662  1.0000
  H   H630      1.0  0.11603  0.50105  0.09597  1.0000
  C   C512      1.0  0.19067  0.58235  0.07782  1.0000
  Fe  Fe57      1.0  0.21891  0.55419  0.99483  1.0000
  H   H631      1.0  0.28051  0.48822  0.03146  1.0000
  C   C513      1.0  0.04286  0.53018  0.09025  1.0000
  H   H632      1.0  0.17068  0.62501  0.08031  1.0000
  C   C514      1.0  0.01615  0.57125  0.17556  1.0000
  C   C515      1.0  0.17691  0.49913  0.05182  1.0000
  C   C516      1.0  0.01559  0.59798  0.15238  1.0000
  H   H633      1.0  0.05634  0.49072  0.21588  1.0000
  Fe  Fe58      1.0  0.11006  0.55865  0.13236  1.0000
  S   S120      1.0  0.09526  0.54902  0.15931  1.0000
  S   S121      1.0  0.13926  0.54937  0.12651  1.0000
  Fe  Fe59      1.0  0.07739  0.57986  0.11969  1.0000
  S   S122      1.0  0.05992  0.57221  0.14541  1.0000
  Fe  Fe60      1.0  0.07975  0.57649  0.15683  1.0000
  S   S123      1.0  0.06949  0.58761  0.18071  1.0000
  Fe  Fe61      1.0  0.07677  0.54570  0.14562  1.0000
  S   S124      1.0  0.06493  0.52262  0.15342  1.0000
  S   S125      1.0  0.09606  0.58670  0.13097  1.0000
  S   S126      1.0  0.09278  0.55274  0.11882  1.0000
  C   C517      1.0  0.03623  0.60692  0.08486  1.0000
  H   H634      1.0  0.16035  0.61371  0.04418  1.0000
  C   C518      1.0  0.03845  0.58100  0.10803  1.0000
  H   H635      1.0  0.05773  0.49802  0.09239  1.0000
  H   H636      1.0  0.01984  0.61006  0.14616  1.0000
  S   S127      1.0  0.12884  0.57893  0.21960  1.0000
  H   H637      1.0  0.99984  0.49936  0.13789  1.0000
  C   C519      1.0  0.08979  0.51563  0.09516  1.0000
  C   C520      1.0  0.28785  0.57543  0.01651  1.0000
  C   C521      1.0  0.00663  0.55748  0.20574  1.0000
  C   C522      1.0  0.18279  0.59718  0.06631  1.0000
  S   S128      1.0  0.21058  0.57399  0.01113  1.0000
  H   H638      1.0  0.03618  0.53315  0.19928  1.0000
  H   H639      1.0  0.14273  0.55398  0.19585  1.0000
  H   H640      1.0  0.23216  0.57464  0.05412  1.0000
  C   C523      1.0  0.99976  0.57722  0.15270  1.0000
  C   C524      1.0  0.08733  0.50657  0.19167  1.0000
  Fe  Fe62      1.0  0.23565  0.56177  0.01995  1.0000
  C   C525      1.0  0.16330  0.62456  0.07094  1.0000
  C   C526      1.0  0.03055  0.61370  0.23162  1.0000
  H   H641      1.0  0.01048  0.54982  0.21820  1.0000
  Fe  Fe63      1.0  0.23133  0.52549  0.02407  1.0000
  C   C527      1.0  0.29327  0.49914  0.04363  1.0000
  H   H642      1.0  0.01916  0.61399  0.22727  1.0000
  C   C528      1.0  0.03384  0.56597  0.19753  1.0000
  H   H643      1.0  0.14099  0.61238  0.06065  1.0000
  H   H644      1.0  0.23552  0.51382  0.99556  1.0000
  H   H645      1.0  0.99845  0.57037  0.20792  1.0000
  N   N38       1.0  0.02194  0.55954  0.19135  1.0000
  H   H646      1.0  0.05315  0.55883  0.08319  1.0000
  H   H647      1.0  0.21396  0.56296  0.08225  1.0000
  C   C529      1.0  0.27347  0.55361  0.03726  1.0000
  H   H648      1.0  0.00071  0.55459  0.17331  1.0000
  H   H649      1.0  0.09258  0.52693  0.09715  1.0000
  H   H650      1.0  0.10676  0.53212  0.20265  1.0000
  H   H651      1.0  0.09257  0.57905  0.23224  1.0000
  H   H652      1.0  0.14989  0.51487  0.08636  1.0000
  C   C530      1.0  0.30371  0.55243  0.03621  1.0000
  C   C531      1.0  0.19362  0.60332  0.05017  1.0000
  C   C532      1.0  0.06026  0.61704  0.22355  1.0000
  C   C533      1.0  0.08156  0.50606  0.14598  1.0000
  S   S129      1.0  0.25349  0.57935  0.01676  1.0000
  C   C534      1.0  0.09888  0.50736  0.14246  1.0000
  H   H653      1.0  0.31084  0.54118  0.99747  1.0000
  H   H654      1.0  0.10204  0.51849  0.14435  1.0000
  C   C535      1.0  0.08595  0.58574  0.19133  1.0000
  C   C536      1.0  0.10268  0.58709  0.18180  1.0000
  C   C537      1.0  0.11573  0.58563  0.19051  1.0000
  C   C538      1.0  0.11210  0.58255  0.20873  1.0000
  C   C539      1.0  0.09538  0.58125  0.21821  1.0000
  C   C540      1.0  0.08231  0.58279  0.20952  1.0000
  H   H655      1.0  0.10551  0.58944  0.16772  1.0000
  H   H656      1.0  0.12866  0.58675  0.18314  1.0000
  C   C541      1.0  0.11231  0.49398  0.13683  1.0000
  H   H657      1.0  0.06940  0.58164  0.21693  1.0000
  C   C542      1.0  0.00521  0.56656  0.16776  1.0000
  H   H658      1.0  0.21924  0.60008  0.03349  1.0000
  C   C543      1.0  0.16308  0.55612  0.06815  1.0000
  C   C544      1.0  0.17372  0.54809  0.08024  1.0000
  C   C545      1.0  0.16632  0.54557  0.09823  1.0000
  C   C546      1.0  0.14831  0.55102  0.10410  1.0000
  C   C547      1.0  0.13772  0.55862  0.09195  1.0000
  C   C548      1.0  0.14507  0.56110  0.07407  1.0000
  H   H659      1.0  0.05058  0.52102  0.12265  1.0000
  H   H660      1.0  0.17458  0.53966  0.10758  1.0000
  H   H661      1.0  0.12389  0.56309  0.09628  1.0000
  H   H662      1.0  0.13677  0.56729  0.06477  1.0000
  C   C549      1.0  0.06417  0.54718  0.08362  1.0000
  C   C550      1.0  0.28873  0.54574  0.04360  1.0000
  C   C551      1.0  0.07291  0.51559  0.09388  1.0000
  C   C552      1.0  0.14657  0.49138  0.22928  1.0000
  H   H663      1.0  0.27308  0.50914  0.99656  1.0000
  H   H664      1.0  0.11281  0.54898  0.20788  1.0000
  H   H665      1.0  0.28883  0.53461  0.05448  1.0000
  C   C553      1.0  0.13805  0.52754  0.22463  1.0000
  S   S130      1.0  0.06632  0.59687  0.09678  1.0000
  H   H666      1.0  0.24113  0.59938  0.98618  1.0000
  S   S131      1.0  0.22417  0.54278  0.04308  1.0000
  H   H667      1.0  0.13466  0.54146  0.22365  1.0000
  H   H668      1.0  0.14997  0.51535  0.17686  1.0000
  H   H669      1.0  0.06975  0.54548  0.07003  1.0000
  H   H670      1.0  0.16047  0.59831  0.09878  1.0000
  H   H671      1.0  0.02757  0.57876  0.20108  1.0000
  C   C554      1.0  0.29812  0.51359  0.99525  1.0000
  H   H672      1.0  0.13337  0.53197  0.16790  1.0000
  C   C555      1.0  0.05365  0.53318  0.11341  1.0000
  C   C556      1.0  0.30675  0.49650  0.05202  1.0000
  H   H673      1.0  0.03282  0.54260  0.08987  1.0000
  H   H674      1.0  0.04479  0.62035  0.20509  1.0000
  S   S132      1.0  0.20599  0.53451  0.01533  1.0000
  S   S133      1.0  0.01337  0.50538  0.09132  1.0000
  H   H675      1.0  0.15632  0.59295  0.05622  1.0000
  H   H676      1.0  0.03643  0.52007  0.09987  1.0000
  H   H677      1.0  0.14085  0.60504  0.09078  1.0000
  H   H678      1.0  0.18762  0.54418  0.07574  1.0000
  H   H679      1.0  0.26195  0.54840  0.04314  1.0000
  S   S134      1.0  0.32274  0.54167  0.04413  1.0000
  N   N39       1.0  0.16432  0.60631  0.07069  1.0000
  H   H680      1.0  0.12741  0.51365  0.18396  1.0000
  H   H681      1.0  0.15910  0.53847  0.18515  1.0000
  H   H682      1.0  0.18416  0.50419  0.03907  1.0000
  H   H683      1.0  0.07103  0.52397  0.22718  1.0000
  H   H684      1.0  0.14322  0.49523  0.20361  1.0000
  C   C557      1.0  0.15739  0.50550  0.07852  1.0000
  Fe  Fe64      1.0  0.99476  0.52767  0.10161  1.0000
  S   S135      1.0  0.24483  0.54346  0.00205  1.0000
  Fe  Fe65      1.0  0.19968  0.55342  0.03254  1.0000
  H   H685      1.0  0.04205  0.54387  0.11556  1.0000
  H   H686      1.0  0.28406  0.51160  0.04206  1.0000
  H   H687      1.0  0.18856  0.61438  0.04067  1.0000
  H   H688      1.0  0.15482  0.58450  0.08855  1.0000
  C   C558      1.0  0.28688  0.50638  0.99075  1.0000
  C   C559      1.0  0.14269  0.50189  0.21344  1.0000
  H   H689      1.0  0.99816  0.55056  0.20308  1.0000
  H   H690      1.0  0.04560  0.57160  0.11723  1.0000
  S   S136      1.0  0.24496  0.49737  0.02901  1.0000
  C   C560      1.0  0.04563  0.59472  0.09666  1.0000
  H   H691      1.0  0.31481  0.57245  0.01676  1.0000
  C   C561      1.0  0.30332  0.56721  0.02251  1.0000
  C   C562      1.0  0.01253  0.59181  0.09577  1.0000
  C   C563      1.0  0.07761  0.49171  0.14329  1.0000
  H   H692      1.0  0.14251  0.55350  0.17439  1.0000
  H   H693      1.0  0.01639  0.56902  0.11644  1.0000
  C   C564      1.0  0.27292  0.56863  0.02390  1.0000
  H   H694      1.0  0.02288  0.53560  0.18447  1.0000
  H   H695      1.0  0.11177  0.55073  0.18599  1.0000
  H   H696      1.0  0.12571  0.49484  0.13442  1.0000
  N   N40       1.0  0.13399  0.53200  0.19418  1.0000
  C   C565      1.0  0.11555  0.54133  0.19783  1.0000
  C   C566      1.0  0.14506  0.54499  0.18713  1.0000
  C   C567      1.0  0.13631  0.52272  0.18023  1.0000
  C   C568      1.0  0.13844  0.52039  0.21060  1.0000
  H   H697      1.0  0.00092  0.60099  0.13318  1.0000
  C   C569      1.0  0.32005  0.52998  0.00383  1.0000
  C   C570      1.0  0.23868  0.49988  0.99707  1.0000
  H   H698      1.0  0.07023  0.53073  0.19631  1.0000
  H   H699      1.0  0.14961  0.63166  0.07485  1.0000
  C   C571      1.0  0.08887  0.49854  0.22736  1.0000
  C   C572      1.0  0.00068  0.49589  0.08429  1.0000
  C   C573      1.0  0.07026  0.49957  0.09276  1.0000
  N   N41       1.0  0.05860  0.53124  0.09515  1.0000
  H   H700      1.0  0.04590  0.56725  0.18743  1.0000
  C   C574      1.0  0.07799  0.51842  0.20200  1.0000
  C   C575      1.0  0.31632  0.50998  0.98810  1.0000
  H   H701      1.0  0.31304  0.52387  0.01682  1.0000
  C   C576      1.0  0.24424  0.48885  0.01198  1.0000
  C   C577      1.0  0.07863  0.51446  0.21962  1.0000
  C   C578      1.0  0.03127  0.54216  0.18779  1.0000
  H   H702      1.0  0.18351  0.57651  0.09026  1.0000
  C   C579      1.0  0.10333  0.50082  0.09461  1.0000
  C   C580      1.0  0.21120  0.59526  0.04592  1.0000
  C   C581      1.0  0.15478  0.59818  0.08796  1.0000
  H   H703      1.0  0.28747  0.58709  0.00618  1.0000
  C   C582      1.0  0.09726  0.49071  0.19887  1.0000
  C   C583      1.0  0.01967  0.60559  0.08455  1.0000
  H   H704      1.0  0.02941  0.59216  0.17236  1.0000
  C   C584      1.0  0.20826  0.57436  0.07339  1.0000
  H   H705      1.0  0.07161  0.61971  0.21358  1.0000
  C   C585      1.0  0.15512  0.60642  0.05737  1.0000
  C   C586      1.0  0.02102  0.58747  0.16752  1.0000
  C   C587      1.0  0.21852  0.58087  0.05753  1.0000
  H   H706      1.0  0.07395  0.55086  0.08812  1.0000
  H   H707      1.0  0.08678  0.50962  0.17806  1.0000
  H   H708      1.0  0.01243  0.61525  0.07553  1.0000
  H   H709      1.0  0.04170  0.61757  0.07605  1.0000
  H   H710      1.0  0.06432  0.53604  0.11730  1.0000
  H   H711      1.0  0.30834  0.50694  0.05672  1.0000
  C   C588      1.0  0.02199  0.57944  0.10746  1.0000
  C   C589      1.0  0.16700  0.51113  0.06193  1.0000
  H   H712      1.0  0.03798  0.55690  0.20940  1.0000
  H   H713      1.0  0.29223  0.52189  0.00444  1.0000
  H   H714      1.0  0.00879  0.49250  0.16509  1.0000
  H   H715      1.0  0.06423  0.49089  0.14556  1.0000
  C   C590      1.0  0.15749  0.48784  0.08499  1.0000
  C   C591      1.0  0.99540  0.48695  0.14141  1.0000
  Fe  Fe66      1.0  0.17556  0.89590  0.41313  1.0000
  S   S137      1.0  0.18751  0.87047  0.40505  1.0000
  S   S138      1.0  0.15965  0.89557  0.44030  1.0000
  Fe  Fe67      1.0  0.18884  0.91744  0.37765  1.0000
  S   S139      1.0  0.20155  0.89382  0.36631  1.0000
  S   S140      1.0  0.19091  0.94429  0.36127  1.0000
  Fe  Fe68      1.0  0.17721  0.88426  0.38084  1.0000
  S   S141      1.0  0.16004  0.87423  0.37040  1.0000
  Fe  Fe69      1.0  0.21071  0.88218  0.39153  1.0000
  S   S142      1.0  0.16370  0.90901  0.38993  1.0000
  S   S143      1.0  0.19966  0.90641  0.40177  1.0000
  C   C592      1.0  0.12758  0.74110  0.44117  1.0000
  H   H716      1.0  0.06156  0.55162  0.23630  1.0000
  Fe  Fe70      1.0  0.01950  0.61113  0.38336  1.0000
  S   S144      1.0  0.04231  0.59542  0.39489  1.0000
  S   S145      1.0  0.02350  0.62114  0.35456  1.0000
  Fe  Fe71      1.0  0.11427  0.61926  0.38323  1.0000
  S   S146      1.0  0.08987  0.63953  0.38808  1.0000
  Fe  Fe72      1.0  0.13253  0.63354  0.40189  1.0000
  S   S147      1.0  0.10959  0.65503  0.40824  1.0000
  S   S148      1.0  0.15728  0.62970  0.41054  1.0000
  Fe  Fe73      1.0  0.09450  0.63451  0.41478  1.0000
  S   S149      1.0  0.07040  0.63274  0.43513  1.0000
  Fe  Fe74      1.0  0.10709  0.65811  0.38097  1.0000
  S   S150      1.0  0.09735  0.68510  0.36672  1.0000
  S   S151      1.0  0.11750  0.61257  0.41088  1.0000
  S   S152      1.0  0.13155  0.63848  0.37360  1.0000
  C   C593      1.0  0.15547  0.59281  0.46856  1.0000
  H   H717      1.0  0.01206  0.56136  0.32273  1.0000
  H   H718      1.0  0.22604  0.93796  0.38269  1.0000
  S   S153      1.0  0.01387  0.66292  0.46959  1.0000
  H   H719      1.0  0.07223  0.56563  0.25314  1.0000
  H   H720      1.0  0.03340  0.58452  0.45477  1.0000
  H   H721      1.0  0.24256  0.90937  0.42323  1.0000
  H   H722      1.0  0.02651  0.56649  0.45207  1.0000
  H   H723      1.0  0.11298  0.69502  0.47073  1.0000
  Fe  Fe75      1.0  0.08938  0.56806  0.27923  1.0000
  C   C594      1.0  0.30169  0.94161  0.35344  1.0000
  Fe  Fe76      1.0  0.12374  0.54279  0.28061  1.0000
  S   S154      1.0  0.10121  0.59083  0.26444  1.0000
  H   H724      1.0  0.00517  0.59983  0.29070  1.0000
  H   H725      1.0  0.13686  0.76404  0.43830  1.0000
  C   C595      1.0  0.04150  0.54329  0.25788  1.0000
  H   H726      1.0  0.32184  0.98017  0.39221  1.0000
  H   H727      1.0  0.07888  0.62568  0.47139  1.0000
  C   C596      1.0  0.26445  0.96416  0.39998  1.0000
  S   S155      1.0  0.09403  0.82526  0.44961  1.0000
  S   S156      1.0  0.02598  0.76627  0.37672  1.0000
  C   C597      1.0  0.17021  0.91474  0.47548  1.0000
  H   H728      1.0  0.22566  0.96050  0.42913  1.0000
  Fe  Fe77      1.0  0.01584  0.78552  0.35442  1.0000
  S   S157      1.0  0.03276  0.79631  0.32924  1.0000
  H   H729      1.0  0.99742  0.57441  0.44045  1.0000
  Fe  Fe78      1.0  0.14324  0.78541  0.37566  1.0000
  S   S158      1.0  0.13805  0.75918  0.39043  1.0000
  S   S159      1.0  0.16416  0.79374  0.38229  1.0000
  Fe  Fe79      1.0  0.11652  0.79154  0.35380  1.0000
  S   S160      1.0  0.10909  0.76605  0.36674  1.0000
  S   S161      1.0  0.10458  0.80914  0.33163  1.0000
  Fe  Fe80      1.0  0.11006  0.77229  0.39122  1.0000
  S   S162      1.0  0.09101  0.76630  0.41630  1.0000
  Fe  Fe81      1.0  0.13771  0.75532  0.36461  1.0000
  S   S163      1.0  0.15133  0.73031  0.35623  1.0000
  S   S164      1.0  0.11512  0.79900  0.37855  1.0000
  S   S165      1.0  0.14529  0.78039  0.34951  1.0000
  C   C598      1.0  0.05241  0.79998  0.33063  1.0000
  C   C599      1.0  0.06311  0.80717  0.31534  1.0000
  C   C600      1.0  0.07896  0.81010  0.31585  1.0000
  C   C601      1.0  0.08442  0.80556  0.33161  1.0000
  C   C602      1.0  0.07374  0.79835  0.34699  1.0000
  C   C603      1.0  0.05765  0.79573  0.34653  1.0000
  H   H730      1.0  0.05916  0.81050  0.30302  1.0000
  H   H731      1.0  0.08712  0.81567  0.30394  1.0000
  H   H732      1.0  0.07772  0.79509  0.35928  1.0000
  H   H733      1.0  0.04937  0.79042  0.35846  1.0000
  C   C604      1.0  0.09242  0.80874  0.44099  1.0000
  C   C605      1.0  0.08888  0.81296  0.42436  1.0000
  C   C606      1.0  0.08758  0.79992  0.41722  1.0000
  C   C607      1.0  0.08989  0.78263  0.42661  1.0000
  C   C608      1.0  0.09292  0.77843  0.44347  1.0000
  C   C609      1.0  0.09438  0.79149  0.45057  1.0000
  H   H734      1.0  0.08733  0.82629  0.41692  1.0000
  H   H735      1.0  0.08473  0.80326  0.40440  1.0000
  H   H736      1.0  0.09470  0.76510  0.45086  1.0000
  H   H737      1.0  0.09718  0.78814  0.46337  1.0000
  H   H738      1.0  0.08611  0.52167  0.24772  1.0000
  C   C610      1.0  0.30787  0.96960  0.47677  1.0000
  C   C611      1.0  0.23844  0.98599  0.43305  1.0000
  H   H739      1.0  0.28973  0.88911  0.38952  1.0000
  C   C612      1.0  0.16915  0.70871  0.42622  1.0000
  H   H740      1.0  0.08096  0.66006  0.33071  1.0000
  S   S166      1.0  0.00891  0.58853  0.33938  1.0000
  S   S167      1.0  0.03315  0.53434  0.24574  1.0000
  H   H741      1.0  0.99681  0.84847  0.29793  1.0000
  N   N42       1.0  0.08968  0.49495  0.24593  1.0000
  H   H742      1.0  0.11258  0.52707  0.34402  1.0000
  Fe  Fe82      1.0  0.30585  0.91111  0.40438  1.0000
  Fe  Fe83      1.0  0.11983  0.57221  0.24878  1.0000
  H   H743      1.0  0.27968  0.86375  0.42535  1.0000
  C   C613      1.0  0.14399  0.59876  0.48276  1.0000
  H   H744      1.0  0.99634  0.80593  0.32841  1.0000
  C   C614      1.0  0.99608  0.78529  0.43426  1.0000
  C   C615      1.0  0.15478  0.63238  0.43172  1.0000
  C   C616      1.0  0.16964  0.62952  0.43824  1.0000
  C   C617      1.0  0.16820  0.63232  0.45472  1.0000
  C   C618      1.0  0.15186  0.63771  0.46497  1.0000
  C   C619      1.0  0.13691  0.64043  0.45856  1.0000
  C   C620      1.0  0.13837  0.63779  0.44192  1.0000
  H   H745      1.0  0.18235  0.62503  0.43058  1.0000
  H   H746      1.0  0.17978  0.63001  0.45967  1.0000
  H   H747      1.0  0.12425  0.64419  0.46650  1.0000
  H   H748      1.0  0.12683  0.63968  0.43713  1.0000
  C   C621      1.0  0.11276  0.69692  0.36455  1.0000
  C   C622      1.0  0.12923  0.69314  0.35388  1.0000
  C   C623      1.0  0.14114  0.70340  0.35137  1.0000
  C   C624      1.0  0.13669  0.71713  0.35988  1.0000
  C   C625      1.0  0.12061  0.72016  0.37135  1.0000
  C   C626      1.0  0.10857  0.71023  0.37349  1.0000
  H   H749      1.0  0.13256  0.68271  0.34710  1.0000
  H   H750      1.0  0.15363  0.70094  0.34256  1.0000
  H   H751      1.0  0.11746  0.73013  0.37862  1.0000
  H   H752      1.0  0.09606  0.71284  0.38210  1.0000
  H   H753      1.0  0.03961  0.65333  0.32722  1.0000
  C   C627      1.0  0.05565  0.55112  0.24993  1.0000
  H   H754      1.0  0.03909  0.64331  0.30234  1.0000
  Fe  Fe84      1.0  0.00427  0.53866  0.25563  1.0000
  C   C628      1.0  0.04956  0.60601  0.40641  1.0000
  C   C629      1.0  0.06412  0.59731  0.41358  1.0000
  C   C630      1.0  0.06998  0.60527  0.42319  1.0000
  C   C631      1.0  0.06097  0.62175  0.42612  1.0000
  C   C632      1.0  0.04633  0.63048  0.41901  1.0000
  C   C633      1.0  0.04082  0.62272  0.40887  1.0000
  H   H755      1.0  0.07117  0.58455  0.41136  1.0000
  H   H756      1.0  0.08175  0.59878  0.42796  1.0000
  H   H757      1.0  0.03964  0.64344  0.42082  1.0000
  H   H758      1.0  0.02977  0.62965  0.40309  1.0000
  H   H759      1.0  0.08947  0.61720  0.33063  1.0000
  C   C634      1.0  0.08925  0.54749  0.34515  1.0000
  C   C635      1.0  0.01359  0.69111  0.38228  1.0000
  H   H760      1.0  0.00511  0.72888  0.35216  1.0000
  C   C636      1.0  0.16061  0.85178  0.37563  1.0000
  C   C637      1.0  0.17465  0.83939  0.38146  1.0000
  C   C638      1.0  0.17545  0.82155  0.38385  1.0000
  C   C639      1.0  0.16213  0.81606  0.38066  1.0000
  C   C640      1.0  0.14769  0.82844  0.37573  1.0000
  C   C641      1.0  0.14702  0.84626  0.37303  1.0000
  H   H761      1.0  0.18517  0.84354  0.38350  1.0000
  H   H762      1.0  0.18658  0.81199  0.38785  1.0000
  H   H763      1.0  0.13725  0.82424  0.37366  1.0000
  H   H764      1.0  0.13609  0.85583  0.36868  1.0000
  C   C642      1.0  0.19377  0.95853  0.37224  1.0000
  C   C643      1.0  0.19235  0.95391  0.39028  1.0000
  C   C644      1.0  0.19737  0.96392  0.39852  1.0000
  C   C645      1.0  0.19509  0.84481  0.45344  1.0000
  C   C646      1.0  0.22973  0.85503  0.46939  1.0000
  H   H765      1.0  0.08594  0.72762  0.40793  1.0000
  H   H766      1.0  0.18775  0.94241  0.39783  1.0000
  H   H767      1.0  0.19690  0.95992  0.41237  1.0000
  H   H768      1.0  0.13133  0.68860  0.45386  1.0000
  H   H769      1.0  0.28096  0.83065  0.47710  1.0000
  H   H770      1.0  0.06230  0.75388  0.40964  1.0000
  C   C647      1.0  0.08121  0.64930  0.34258  1.0000
  C   C648      1.0  0.26698  0.93831  0.35884  1.0000
  C   C649      1.0  0.16301  0.90589  0.46791  1.0000
  C   C650      1.0  0.16546  0.90918  0.44977  1.0000
  C   C651      1.0  0.17377  0.92243  0.43931  1.0000
  C   C652      1.0  0.18044  0.93174  0.44691  1.0000
  H   H771      1.0  0.03676  0.57993  0.36155  1.0000
  C   C653      1.0  0.01103  0.58994  0.26073  1.0000
  H   H772      1.0  0.17502  0.92553  0.42538  1.0000
  H   H773      1.0  0.18717  0.94171  0.43878  1.0000
  C   C654      1.0  0.06973  0.58094  0.35098  1.0000
  H   H774      1.0  0.99281  0.74980  0.43170  1.0000
  H   H775      1.0  0.08848  0.60797  0.30518  1.0000
  N   N43       1.0  0.01519  0.60550  0.26293  1.0000
  C   C655      1.0  0.14907  0.59012  0.45568  1.0000
  C   C656      1.0  0.00055  0.57114  0.32007  1.0000
  H   H776      1.0  0.99394  0.61761  0.44829  1.0000
  H   H777      1.0  0.15805  0.58606  0.44434  1.0000
  C   C657      1.0  0.23589  0.85100  0.48471  1.0000
  C   C658      1.0  0.13692  0.75065  0.44531  1.0000
  S   S168      1.0  0.01207  0.78825  0.41519  1.0000
  N   N44       1.0  0.24872  0.93705  0.36176  1.0000
  C   C659      1.0  0.99974  0.58781  0.43681  1.0000
  H   H778      1.0  0.01347  0.66574  0.37979  1.0000
  C   C660      1.0  0.00506  0.57796  0.48247  1.0000
  S   S169      1.0  0.99999  0.59656  0.38450  1.0000
  S   S170      1.0  0.99681  0.80310  0.37087  1.0000
  C   C661      1.0  0.26602  0.82632  0.44441  1.0000
  H   H779      1.0  0.18534  0.97394  0.48233  1.0000
  H   H780      1.0  0.03352  0.55116  0.29833  1.0000
  C   C662      1.0  0.29001  0.97017  0.40431  1.0000
  N   N45       1.0  0.00739  0.59076  0.44996  1.0000
  C   C663      1.0  0.27896  0.95893  0.40745  1.0000
  C   C664      1.0  0.20087  0.87286  0.44971  1.0000
  C   C665      1.0  0.04669  0.60856  0.25400  1.0000
  C   C666      1.0  0.28795  0.95602  0.35507  1.0000
  H   H781      1.0  0.25609  0.95525  0.40233  1.0000
  H   H782      1.0  0.30117  0.96505  0.41032  1.0000
  H   H783      1.0  0.04028  0.67610  0.47584  1.0000
  H   H784      1.0  0.14178  0.52276  0.25078  1.0000
  H   H785      1.0  0.12056  0.74763  0.43089  1.0000
  H   H786      1.0  0.02082  0.69892  0.41790  1.0000
  H   H787      1.0  0.26023  0.81741  0.44151  1.0000
  H   H788      1.0  0.02239  0.57873  0.26123  1.0000
  H   H789      1.0  0.23735  0.95466  0.37929  1.0000
  Fe  Fe85      1.0  0.00555  0.75243  0.37805  1.0000
  H   H790      1.0  0.23861  0.96361  0.34881  1.0000
  H   H791      1.0  0.16935  0.59083  0.46726  1.0000
  C   C667      1.0  0.24685  0.91964  0.36155  1.0000
  H   H792      1.0  0.21762  0.85368  0.42531  1.0000
  H   H793      1.0  0.03278  0.58326  0.43382  1.0000
  C   C668      1.0  0.99561  0.58600  0.32707  1.0000
  C   C669      1.0  0.26708  0.90066  0.40663  1.0000
  H   H794      1.0  0.01679  0.68624  0.39500  1.0000
  H   H795      1.0  0.12870  0.74394  0.31798  1.0000
  S   S171      1.0  0.27669  0.91525  0.41067  1.0000
  C   C670      1.0  0.07233  0.55400  0.34145  1.0000
  Fe  Fe86      1.0  0.00512  0.78237  0.39327  1.0000
  H   H796      1.0  0.17157  0.72974  0.40363  1.0000
  Fe  Fe87      1.0  0.11942  0.58021  0.28297  1.0000
  C   C671      1.0  0.09331  0.52169  0.33440  1.0000
  C   C672      1.0  0.00039  0.78268  0.45028  1.0000
  H   H797      1.0  0.20003  0.83044  0.45596  1.0000
  H   H798      1.0  0.06242  0.50666  0.25394  1.0000
  H   H799      1.0  0.01336  0.78272  0.45080  1.0000
  C   C673      1.0  0.14577  0.74326  0.45886  1.0000
  S   S172      1.0  0.13908  0.56318  0.26606  1.0000
  H   H800      1.0  0.29058  0.96846  0.35431  1.0000
  H   H801      1.0  0.16857  0.71649  0.43516  1.0000
  C   C674      1.0  0.24104  0.89029  0.41066  1.0000
  C   C675      1.0  0.15522  0.67419  0.39240  1.0000
  H   H802      1.0  0.18334  0.84790  0.46364  1.0000
  H   H803      1.0  0.18650  0.65184  0.38545  1.0000
  H   H804      1.0  0.14996  0.66760  0.40595  1.0000
  H   H805      1.0  0.15550  0.66572  0.38378  1.0000
  H   H806      1.0  0.14576  0.68669  0.38898  1.0000
  H   H807      1.0  0.16980  0.69700  0.36711  1.0000
  N   N46       1.0  0.13757  0.84274  0.32390  1.0000
  C   C676      1.0  0.13925  0.83179  0.31159  1.0000
  C   C677      1.0  0.12511  0.83720  0.34014  1.0000
  C   C678      1.0  0.13001  0.86100  0.31579  1.0000
  C   C679      1.0  0.15460  0.84055  0.32814  1.0000
  C   C680      1.0  0.16456  0.82364  0.33390  1.0000
  C   C681      1.0  0.16130  0.85490  0.32772  1.0000
  H   H808      1.0  0.06336  0.62064  0.29099  1.0000
  C   C682      1.0  0.17707  0.85233  0.33255  1.0000
  C   C683      1.0  0.18657  0.83555  0.33796  1.0000
  H   H809      1.0  0.14223  0.81761  0.31758  1.0000
  H   H810      1.0  0.12686  0.83405  0.30731  1.0000
  H   H811      1.0  0.14962  0.83443  0.29979  1.0000
  H   H812      1.0  0.12935  0.82321  0.34625  1.0000
  H   H813      1.0  0.11198  0.83888  0.33768  1.0000
  H   H814      1.0  0.12367  0.84484  0.34990  1.0000
  H   H815      1.0  0.12666  0.86973  0.32501  1.0000
  H   H816      1.0  0.13911  0.86613  0.30380  1.0000
  H   H817      1.0  0.11765  0.86206  0.31199  1.0000
  H   H818      1.0  0.06685  0.63008  0.37409  1.0000
  H   H819      1.0  0.15443  0.86826  0.32423  1.0000
  H   H820      1.0  0.18160  0.86343  0.33283  1.0000
  C   C684      1.0  0.17908  0.92755  0.46494  1.0000
  N   N47       1.0  0.04736  0.69093  0.42135  1.0000
  C   C685      1.0  0.02857  0.69093  0.42778  1.0000
  C   C686      1.0  0.05341  0.68443  0.40507  1.0000
  C   C687      1.0  0.05657  0.67851  0.43481  1.0000
  C   C688      1.0  0.05119  0.70834  0.41786  1.0000
  C   C689      1.0  0.03797  0.72386  0.41819  1.0000
  C   C690      1.0  0.06865  0.71016  0.41381  1.0000
  C   C691      1.0  0.04203  0.74002  0.41536  1.0000
  C   C692      1.0  0.07256  0.72642  0.41094  1.0000
  C   C693      1.0  0.05926  0.74129  0.41181  1.0000
  H   H821      1.0  0.02319  0.69575  0.44004  1.0000
  H   H822      1.0  0.30916  0.91432  0.35380  1.0000
  H   H823      1.0  0.02614  0.67758  0.43086  1.0000
  H   H824      1.0  0.04657  0.69330  0.39473  1.0000
  H   H825      1.0  0.05103  0.67119  0.40725  1.0000
  H   H826      1.0  0.06760  0.68336  0.39979  1.0000
  H   H827      1.0  0.05458  0.68422  0.44619  1.0000
  H   H828      1.0  0.05178  0.66621  0.43995  1.0000
  H   H829      1.0  0.07077  0.67441  0.42976  1.0000
  H   H830      1.0  0.02438  0.72391  0.42054  1.0000
  H   H831      1.0  0.07937  0.69899  0.41277  1.0000
  H   H832      1.0  0.03172  0.75168  0.41588  1.0000
  C   C694      1.0  0.27927  0.87880  0.45364  1.0000
  H   H833      1.0  0.02074  0.61306  0.28371  1.0000
  N   N48       1.0  0.03431  0.81813  0.44342  1.0000
  C   C695      1.0  0.03857  0.81747  0.42473  1.0000
  C   C696      1.0  0.04206  0.83180  0.44492  1.0000
  C   C697      1.0  0.04275  0.80103  0.45311  1.0000
  C   C698      1.0  0.01540  0.82183  0.45093  1.0000
  C   C699      1.0  0.00269  0.82290  0.44162  1.0000
  C   C700      1.0  0.00919  0.82415  0.46827  1.0000
  H   H834      1.0  0.03255  0.82991  0.41663  1.0000
  H   H835      1.0  0.05281  0.81510  0.41935  1.0000
  H   H836      1.0  0.03425  0.80658  0.42278  1.0000
  H   H837      1.0  0.03516  0.84503  0.43903  1.0000
  H   H838      1.0  0.05603  0.83014  0.43834  1.0000
  H   H839      1.0  0.04176  0.83147  0.45866  1.0000
  H   H840      1.0  0.04027  0.80036  0.46728  1.0000
  H   H841      1.0  0.03794  0.79024  0.45173  1.0000
  H   H842      1.0  0.05710  0.79815  0.44837  1.0000
  H   H843      1.0  0.00609  0.82098  0.42847  1.0000
  C   C701      1.0  0.28194  0.84922  0.45170  1.0000
  H   H844      1.0  0.31499  0.94283  0.35131  1.0000
  C   C702      1.0  0.03968  0.55121  0.28483  1.0000
  H   H845      1.0  0.18073  0.67616  0.36332  1.0000
  H   H846      1.0  0.29678  0.98105  0.47556  1.0000
  C   C703      1.0  0.28129  0.92378  0.35747  1.0000
  C   C704      1.0  0.09577  0.50902  0.24897  1.0000
  C   C705      1.0  0.29562  0.85555  0.47208  1.0000
  N   N49       1.0  0.13176  0.85591  0.42855  1.0000
  C   C706      1.0  0.12219  0.85821  0.44624  1.0000
  C   C707      1.0  0.14320  0.86851  0.42110  1.0000
  C   C708      1.0  0.11887  0.86045  0.41740  1.0000
  C   C709      1.0  0.14233  0.83785  0.42974  1.0000
  C   C710      1.0  0.15623  0.83200  0.43866  1.0000
  C   C711      1.0  0.13895  0.82550  0.42266  1.0000
  C   C712      1.0  0.16650  0.81508  0.43984  1.0000
  C   C713      1.0  0.14920  0.80857  0.42406  1.0000
  C   C714      1.0  0.16306  0.80343  0.43244  1.0000
  H   H847      1.0  0.13111  0.85635  0.45499  1.0000
  H   H848      1.0  0.11375  0.87149  0.44594  1.0000
  H   H849      1.0  0.11384  0.84859  0.45243  1.0000
  H   H850      1.0  0.15189  0.86757  0.42975  1.0000
  H   H851      1.0  0.13567  0.88226  0.41906  1.0000
  H   H852      1.0  0.15144  0.86639  0.40826  1.0000
  H   H853      1.0  0.10898  0.85234  0.42292  1.0000
  H   H854      1.0  0.11156  0.87424  0.41627  1.0000
  H   H855      1.0  0.12538  0.85879  0.40392  1.0000
  H   H856      1.0  0.15901  0.84039  0.44512  1.0000
  H   H857      1.0  0.12842  0.82849  0.41603  1.0000
  H   H858      1.0  0.17691  0.81088  0.44688  1.0000
  H   H859      1.0  0.14645  0.79943  0.41842  1.0000
  H   H860      1.0  0.17096  0.79030  0.43339  1.0000
  H   H861      1.0  0.00750  0.82599  0.30294  1.0000
  C   C715      1.0  0.06632  0.54344  0.33436  1.0000
  C   C716      1.0  0.01112  0.70899  0.37465  1.0000
  H   H862      1.0  0.31477  0.86979  0.44413  1.0000
  H   H863      1.0  0.04907  0.55906  0.37072  1.0000
  C   C717      1.0  0.99447  0.83513  0.30361  1.0000
  H   H864      1.0  0.07334  0.57391  0.36373  1.0000
  H   H865      1.0  0.23296  0.91925  0.36342  1.0000
  C   C718      1.0  0.17094  0.71612  0.40844  1.0000
  C   C719      1.0  0.24981  0.87959  0.39895  1.0000
  H   H866      1.0  0.04685  0.57652  0.32440  1.0000
  C   C720      1.0  0.07214  0.49435  0.25705  1.0000
  H   H867      1.0  0.12181  0.71641  0.31832  1.0000
  C   C721      1.0  0.29837  0.92552  0.35478  1.0000
  Fe  Fe88      1.0  0.10453  0.81422  0.47400  1.0000
  H   H868      1.0  0.02737  0.58994  0.28431  1.0000
  H   H869      1.0  0.15196  0.72078  0.47903  1.0000
  H   H870      1.0  0.02283  0.53708  0.28167  1.0000
  C   C722      1.0  0.06174  0.55905  0.25944  1.0000
  H   H871      1.0  0.07636  0.50565  0.30001  1.0000
  H   H872      1.0  0.09448  0.73703  0.44375  1.0000
  C   C723      1.0  0.00699  0.71512  0.35818  1.0000
  H   H873      1.0  0.22956  0.83649  0.43949  1.0000
  C   C724      1.0  0.09006  0.49948  0.29820  1.0000
  H   H874      1.0  0.03824  0.64984  0.35691  1.0000
  H   H875      1.0  0.12714  0.59102  0.44647  1.0000
  H   H876      1.0  0.30462  0.86862  0.42806  1.0000
  H   H877      1.0  0.09821  0.50593  0.26235  1.0000
  C   C725      1.0  0.13115  0.59314  0.45705  1.0000
  H   H878      1.0  0.28513  0.88796  0.45673  1.0000
  H   H879      1.0  0.11305  0.70659  0.42461  1.0000
  S   S173      1.0  0.18948  0.93741  0.47421  1.0000
  H   H880      1.0  0.10147  0.50955  0.33133  1.0000
  H   H881      1.0  0.22703  0.94832  0.34893  1.0000
  H   H882      1.0  0.04809  0.59516  0.33033  1.0000
  C   C726      1.0  0.24031  0.94994  0.34798  1.0000
  C   C727      1.0  0.22834  0.95951  0.44205  1.0000
  S   S174      1.0  0.11263  0.59714  0.37300  1.0000
  S   S175      1.0  0.99675  0.77063  0.35428  1.0000
  C   C728      1.0  0.16866  0.68132  0.42094  1.0000
  H   H883      1.0  0.19845  0.83364  0.34229  1.0000
  C   C729      1.0  0.13592  0.71666  0.46431  1.0000
  C   C730      1.0  0.11906  0.59910  0.47147  1.0000
  C   C731      1.0  0.27014  0.82291  0.46064  1.0000
  H   H884      1.0  0.00617  0.49299  0.25994  1.0000
  H   H885      1.0  0.11672  0.72793  0.41952  1.0000
  H   H886      1.0  0.19534  0.87763  0.43780  1.0000
  H   H887      1.0  0.25173  0.97753  0.43244  1.0000
  H   H888      1.0  0.01363  0.61422  0.43242  1.0000
  H   H889      1.0  0.05692  0.61941  0.36464  1.0000
  C   C732      1.0  0.24960  0.90084  0.41443  1.0000
  H   H890      1.0  0.18019  0.65210  0.40765  1.0000
  H   H891      1.0  0.12550  0.62227  0.34236  1.0000
  C   C733      1.0  0.07825  0.62313  0.32486  1.0000
  C   C734      1.0  0.07775  0.61770  0.31034  1.0000
  H   H892      1.0  0.25176  0.90945  0.37234  1.0000
  N   N50       1.0  0.10001  0.60297  0.47311  1.0000
  C   C735      1.0  0.09313  0.62204  0.47085  1.0000
  H   H893      1.0  0.27967  0.91091  0.35854  1.0000
  C   C736      1.0  0.12017  0.71462  0.42774  1.0000
  C   C737      1.0  0.27620  0.88934  0.39555  1.0000
  H   H894      1.0  0.04684  0.71635  0.35075  1.0000
  H   H895      1.0  0.13561  0.70389  0.47266  1.0000
  H   H896      1.0  0.09943  0.62916  0.45800  1.0000
  C   C738      1.0  0.27718  0.85248  0.43548  1.0000
  C   C739      1.0  0.01732  0.60199  0.28113  1.0000
  N   N51       1.0  0.20867  0.85392  0.45266  1.0000
  C   C740      1.0  0.12338  0.61180  0.33818  1.0000
  C   C741      1.0  0.11770  0.59778  0.35055  1.0000
  H   H897      1.0  0.26058  0.96592  0.35908  1.0000
  C   C742      1.0  0.16787  0.69137  0.43248  1.0000
  C   C743      1.0  0.06752  0.62635  0.36186  1.0000
  C   C744      1.0  0.18034  0.82123  0.33861  1.0000
  H   H898      1.0  0.09807  0.52337  0.29429  1.0000
  C   C745      1.0  0.05030  0.65489  0.35299  1.0000
  C   C746      1.0  0.06365  0.62490  0.30227  1.0000
  H   H899      1.0  0.08010  0.61676  0.35957  1.0000
  C   C747      1.0  0.00010  0.62043  0.26078  1.0000
  C   C748      1.0  0.09475  0.59727  0.46003  1.0000
  C   C749      1.0  0.05558  0.58193  0.32864  1.0000
  C   C750      1.0  0.10234  0.50955  0.29480  1.0000
  N   N52       1.0  0.06576  0.64166  0.34701  1.0000
  C   C751      1.0  0.06469  0.63610  0.33170  1.0000
  C   C752      1.0  0.09954  0.53160  0.34155  1.0000
  H   H900      1.0  0.05143  0.65867  0.36460  1.0000
  Fe  Fe89      1.0  0.00234  0.60828  0.35595  1.0000
  H   H901      1.0  0.09995  0.58310  0.46064  1.0000
  H   H902      1.0  0.00735  0.59219  0.24806  1.0000
  H   H903      1.0  0.08034  0.59984  0.46202  1.0000
  S   S176      1.0  0.10620  0.55034  0.26183  1.0000
  H   H904      1.0  0.26655  0.87847  0.46294  1.0000
  C   C753      1.0  0.04545  0.56759  0.35842  1.0000
  S   S177      1.0  0.06080  0.56963  0.28864  1.0000
  C   C754      1.0  0.12632  0.61227  0.32032  1.0000
  H   H905      1.0  0.13063  0.62317  0.31073  1.0000
  H   H906      1.0  0.13430  0.70946  0.42332  1.0000
  C   C755      1.0  0.99714  0.58588  0.46786  1.0000
  H   H907      1.0  0.27449  0.87030  0.38285  1.0000
  H   H908      1.0  0.09915  0.60465  0.44661  1.0000
  H   H909      1.0  0.19038  0.84891  0.44106  1.0000
  H   H910      1.0  0.25376  0.91593  0.34895  1.0000
  H   H911      1.0  0.04795  0.73006  0.37318  1.0000
  C   C756      1.0  0.18487  0.66010  0.39475  1.0000
  N   N53       1.0  0.11571  0.71448  0.44664  1.0000
  C   C757      1.0  0.11526  0.58413  0.34503  1.0000
  C   C758      1.0  0.05376  0.55911  0.27689  1.0000
  C   C759      1.0  0.10278  0.75471  0.33058  1.0000
  H   H912      1.0  0.11116  0.57315  0.35463  1.0000
  H   H913      1.0  0.07059  0.72033  0.37185  1.0000
  H   H914      1.0  0.17326  0.71277  0.38318  1.0000
  C   C760      1.0  0.09720  0.72336  0.45130  1.0000
  C   C761      1.0  0.12355  0.59875  0.31479  1.0000
  C   C762      1.0  0.03081  0.60937  0.24964  1.0000
  H   H915      1.0  0.28184  0.94595  0.41557  1.0000
  H   H916      1.0  0.06100  0.59358  0.35316  1.0000
  Fe  Fe90      1.0  0.00225  0.64395  0.36105  1.0000
  H   H917      1.0  0.28397  0.85520  0.48294  1.0000
  C   C763      1.0  0.23920  0.94079  0.37899  1.0000
  C   C764      1.0  0.20363  0.98428  0.37099  1.0000
  S   S178      1.0  0.10584  0.55891  0.29919  1.0000
  C   C765      1.0  0.06122  0.73183  0.36617  1.0000
  H   H918      1.0  0.06303  0.74347  0.36925  1.0000
  H   H919      1.0  0.04844  0.66709  0.34273  1.0000
  H   H920      1.0  0.19790  0.66181  0.39454  1.0000
  C   C766      1.0  0.30702  0.86217  0.44135  1.0000
  H   H921      1.0  0.22764  0.89044  0.41691  1.0000
  C   C767      1.0  0.08155  0.73631  0.33861  1.0000
  C   C768      1.0  0.11811  0.58462  0.32720  1.0000
  H   H922      1.0  0.07682  0.76195  0.34418  1.0000
  H   H923      1.0  0.06889  0.70559  0.35081  1.0000
  C   C769      1.0  0.12007  0.50168  0.29240  1.0000
  H   H924      1.0  0.06701  0.58332  0.31764  1.0000
  C   C770      1.0  0.06047  0.71767  0.34461  1.0000
  H   H925      1.0  0.15994  0.81211  0.33548  1.0000
  C   C771      1.0  0.01162  0.67943  0.37370  1.0000
  H   H926      1.0  0.22022  0.95113  0.45224  1.0000
  C   C772      1.0  0.26943  0.84114  0.43187  1.0000
  C   C773      1.0  0.17140  0.68819  0.40262  1.0000
  H   H927      1.0  0.99468  0.55733  0.30429  1.0000
  H   H928      1.0  0.03717  0.74648  0.34568  1.0000
  N   N54       1.0  0.06382  0.73354  0.34717  1.0000
  H   H929      1.0  0.05296  0.75114  0.32578  1.0000
  C   C774      1.0  0.03359  0.54327  0.27535  1.0000
  H   H930      1.0  0.16628  0.68565  0.44637  1.0000
  S   S179      1.0  0.01408  0.72303  0.38585  1.0000
  C   C775      1.0  0.12664  0.72385  0.45060  1.0000
  S   S180      1.0  0.12620  0.60036  0.29235  1.0000
  H   H931      1.0  0.06256  0.71798  0.33051  1.0000
  C   C776      1.0  0.08608  0.75189  0.33827  1.0000
  H   H932      1.0  0.05059  0.76082  0.34352  1.0000
  C   C777      1.0  0.05062  0.74860  0.34024  1.0000
  H   H933      1.0  0.08155  0.58395  0.34124  1.0000
  S   S181      1.0  0.23850  0.86791  0.39268  1.0000
  C   C778      1.0  0.06111  0.61246  0.24107  1.0000
  H   H934      1.0  0.11619  0.57406  0.32305  1.0000
  H   H935      1.0  0.03748  0.56124  0.35421  1.0000
  C   C779      1.0  0.27084  0.95443  0.35776  1.0000
  C   C780      1.0  0.19367  0.98018  0.44403  1.0000
  C   C781      1.0  0.19894  0.97402  0.36267  1.0000
  H   H936      1.0  0.08835  0.71662  0.44895  1.0000
  H   H937      1.0  0.10585  0.76678  0.33042  1.0000
  H   H938      1.0  0.04844  0.60466  0.26727  1.0000
  H   H939      1.0  0.26734  0.81142  0.47042  1.0000
  H   H940      1.0  0.23561  0.86386  0.45828  1.0000
  H   H941      1.0  0.09297  0.71110  0.33120  1.0000
  H   H942      1.0  0.16710  0.66809  0.42655  1.0000
  N   N55       1.0  0.17267  0.67717  0.39058  1.0000
  C   C782      1.0  0.09493  0.72359  0.33106  1.0000
  C   C783      1.0  0.17200  0.70611  0.39676  1.0000
  C   C784      1.0  0.22274  0.85044  0.43739  1.0000
  C   C785      1.0  0.00735  0.60950  0.44616  1.0000
  H   H943      1.0  0.19544  0.96646  0.44495  1.0000
  C   C786      1.0  0.07669  0.52756  0.33091  1.0000
  C   C787      1.0  0.00739  0.68551  0.35727  1.0000
  C   C788      1.0  0.26757  0.87870  0.39180  1.0000
  C   C789      1.0  0.00528  0.70337  0.34946  1.0000
  C   C790      1.0  0.14196  0.51693  0.24035  1.0000
  H   H944      1.0  0.08198  0.65466  0.35332  1.0000
  S   S182      1.0  0.13552  0.51419  0.28815  1.0000
  C   C791      1.0  0.05056  0.64336  0.32304  1.0000
  H   H945      1.0  0.09358  0.63953  0.34001  1.0000
  H   H946      1.0  0.30233  0.86478  0.47386  1.0000
  C   C792      1.0  0.21574  0.84845  0.46867  1.0000
  C   C793      1.0  0.11561  0.74194  0.32341  1.0000
  H   H947      1.0  0.09497  0.55450  0.35057  1.0000
  H   H948      1.0  0.18734  0.80818  0.34361  1.0000
  H   H949      1.0  0.05362  0.54752  0.33117  1.0000
  N   N56       1.0  0.06110  0.57084  0.34484  1.0000
  H   H950      1.0  0.00836  0.58957  0.42357  1.0000
  H   H951      1.0  0.19183  0.68840  0.36994  1.0000
  H   H952      1.0  0.07191  0.51988  0.32524  1.0000
  C   C794      1.0  0.20323  0.97896  0.38889  1.0000
  C   C795      1.0  0.11168  0.72646  0.32360  1.0000
  C   C796      1.0  0.14545  0.72625  0.46816  1.0000
  C   C797      1.0  0.05007  0.63767  0.30863  1.0000
  H   H953      1.0  0.24625  0.93267  0.38941  1.0000
  C   C798      1.0  0.17909  0.68506  0.37198  1.0000
  H   H954      1.0  0.09342  0.72391  0.46528  1.0000
  H   H955      1.0  0.24801  0.94850  0.33476  1.0000
  S   S183      1.0  0.00534  0.67103  0.34597  1.0000
  N   N57       1.0  0.22502  0.97709  0.44560  1.0000
  H   H956      1.0  0.21041  0.88077  0.44808  1.0000
  S   S184      1.0  0.99984  0.63479  0.39005  1.0000
  H   H957      1.0  0.21796  0.96757  0.47331  1.0000
  H   H958      1.0  0.26621  0.84383  0.41921  1.0000
  H   H959      1.0  0.30751  0.96166  0.46791  1.0000
  C   C799      1.0  0.02575  0.58076  0.44769  1.0000
  H   H960      1.0  0.03358  0.49501  0.24140  1.0000
  H   H961      1.0  0.10966  0.68910  0.45287  1.0000
  N   N58       1.0  0.29078  0.86113  0.45479  1.0000
  H   H962      1.0  0.27657  0.88478  0.44040  1.0000
  H   H963      1.0  0.01803  0.82325  0.47629  1.0000
  H   H964      1.0  0.15606  0.89614  0.47608  1.0000
  H   H965      1.0  0.24062  0.96753  0.46508  1.0000
  H   H966      1.0  0.01427  0.61223  0.45470  1.0000
  C   C800      1.0  0.27801  0.83413  0.46432  1.0000
  H   H967      1.0  0.00614  0.82768  0.33380  1.0000
  C   C801      1.0  0.22728  0.97487  0.46349  1.0000
  H   H968      1.0  0.24203  0.95224  0.44198  1.0000
  C   C802      1.0  0.11760  0.69601  0.45641  1.0000
  H   H969      1.0  0.23252  0.85841  0.43433  1.0000
  H   H970      1.0  0.19015  0.87598  0.46090  1.0000
  H   H971      1.0  0.99727  0.85024  0.32697  1.0000
  C   C803      1.0  0.03134  0.65271  0.47991  1.0000
  C   C804      1.0  0.14618  0.49889  0.24271  1.0000
  C   C805      1.0  0.26070  0.98085  0.38960  1.0000
  S   S185      1.0  0.13273  0.80291  0.47391  1.0000
  H   H972      1.0  0.31553  0.84900  0.44082  1.0000
  H   H973      1.0  0.00293  0.63256  0.26175  1.0000
  H   H974      1.0  0.15244  0.75089  0.46255  1.0000
  H   H975      1.0  0.30478  0.84257  0.47359  1.0000
  H   H976      1.0  0.07216  0.49232  0.27107  1.0000
  C   C806      1.0  0.99370  0.83742  0.33255  1.0000
  H   H977      1.0  0.00207  0.70815  0.33673  1.0000
  H   H978      1.0  0.10812  0.51106  0.23972  1.0000
  H   H979      1.0  0.16226  0.86717  0.47953  1.0000
  H   H980      1.0  0.01896  0.57474  0.48125  1.0000
  H   H981      1.0  0.99997  0.58589  0.27111  1.0000
  H   H982      1.0  0.00342  0.48809  0.28301  1.0000
  S   S186      1.0  0.31923  0.93299  0.39004  1.0000
  H   H983      1.0  0.02230  0.49551  0.26990  1.0000
  C   C807      1.0  0.12606  0.60209  0.48413  1.0000
  C   C808      1.0  0.04207  0.66234  0.48175  1.0000
  H   H984      1.0  0.19983  0.97780  0.34872  1.0000
  H   H985      1.0  0.07316  0.61161  0.24462  1.0000
  H   H986      1.0  0.99641  0.62297  0.24807  1.0000
  H   H987      1.0  0.09530  0.62711  0.48112  1.0000
  S   S187      1.0  0.31781  0.90501  0.42753  1.0000
  H   H988      1.0  0.16721  0.98453  0.44173  1.0000
  H   H989      1.0  0.24921  0.98507  0.38404  1.0000
  C   C809      1.0  0.01335  0.48721  0.27069  1.0000
  H   H990      1.0  0.14920  0.49081  0.25500  1.0000
  H   H991      1.0  0.24612  0.85670  0.48517  1.0000
  C   C810      1.0  0.20846  0.83746  0.48418  1.0000
  N   N59       1.0  0.32485  0.97457  0.47260  1.0000
  S   S188      1.0  0.14716  0.83876  0.48451  1.0000
  H   H992      1.0  0.19749  0.83220  0.48513  1.0000
  C   C811      1.0  0.04976  0.59351  0.56122  1.0000
  H   H993      1.0  0.06673  0.49269  0.66464  1.0000
  H   H994      1.0  0.26027  0.88956  0.53865  1.0000
  C   C812      1.0  0.06500  0.52582  0.62500  1.0000
  H   H995      1.0  0.16848  0.55190  0.67797  1.0000
  H   H996      1.0  0.26102  0.89235  0.59462  1.0000
  C   C813      1.0  0.11502  0.88224  0.51328  1.0000
  Fe  Fe91      1.0  0.00956  0.50382  0.61254  1.0000
  C   C814      1.0  0.31871  0.96025  0.55497  1.0000
  S   S189      1.0  0.10646  0.53819  0.61535  1.0000
  H   H997      1.0  0.08341  0.86934  0.55124  1.0000
  S   S190      1.0  0.11175  0.62785  0.52452  1.0000
  H   H998      1.0  0.07851  0.52497  0.62373  1.0000
  C   C815      1.0  0.08859  0.58525  0.57758  1.0000
  C   C816      1.0  0.13782  0.88927  0.52173  1.0000
  H   H999      1.0  0.15829  0.96763  0.56004  1.0000
  Fe  Fe92      1.0  0.20400  0.91129  0.53269  1.0000
  S   S191      1.0  0.21799  0.88345  0.53341  1.0000
  S   S192      1.0  0.19986  0.92281  0.55582  1.0000
  N   N60       1.0  0.17395  0.98651  0.54635  1.0000
  C   C817      1.0  0.99506  0.57445  0.49939  1.0000
  H   H1000     1.0  0.16895  0.91159  0.48945  1.0000
  Fe  Fe93      1.0  0.19728  0.88205  0.52100  1.0000
  S   S193      1.0  0.18543  0.85833  0.53146  1.0000
  Fe  Fe94      1.0  0.23182  0.89351  0.50623  1.0000
  H   H1001     1.0  0.30527  0.96163  0.49031  1.0000
  S   S194      1.0  0.18195  0.90918  0.52273  1.0000
  S   S195      1.0  0.21934  0.92149  0.50645  1.0000
  H   H1002     1.0  0.06239  0.66186  0.49406  1.0000
  H   H1003     1.0  0.05657  0.71053  0.52825  1.0000
  S   S196      1.0  0.24734  0.97338  0.55047  1.0000
  H   H1004     1.0  0.00919  0.58700  0.61636  1.0000
  Fe  Fe95      1.0  0.19868  0.91707  0.49643  1.0000
  C   C818      1.0  0.29502  0.89847  0.55992  1.0000
  H   H1005     1.0  0.05444  0.76886  0.52497  1.0000
  S   S197      1.0  0.08739  0.70700  0.50081  1.0000
  H   H1006     1.0  0.07465  0.61559  0.58881  1.0000
  H   H1007     1.0  0.08926  0.49944  0.73058  1.0000
  N   N61       1.0  0.07214  0.59807  0.57485  1.0000
  H   H1008     1.0  0.06418  0.59853  0.60225  1.0000
  H   H1009     1.0  0.03853  0.50467  0.70582  1.0000
  H   H1010     1.0  0.08736  0.57652  0.59080  1.0000
  H   H1011     1.0  0.16671  0.97512  0.57387  1.0000
  C   C819      1.0  0.03312  0.63511  0.48826  1.0000
  H   H1012     1.0  0.99568  0.53944  0.57627  1.0000
  Fe  Fe96      1.0  0.09473  0.81116  0.51300  1.0000
  S   S198      1.0  0.07049  0.81566  0.53375  1.0000
  C   C820      1.0  0.10971  0.54607  0.70003  1.0000
  S   S199      1.0  0.12224  0.79973  0.51653  1.0000
  C   C821      1.0  0.11191  0.62013  0.57981  1.0000
  C   C822      1.0  0.06377  0.75795  0.53045  1.0000
  C   C823      1.0  0.05568  0.81517  0.50799  1.0000
  C   C824      1.0  0.05414  0.81197  0.52596  1.0000
  C   C825      1.0  0.04067  0.80431  0.53725  1.0000
  C   C826      1.0  0.02953  0.79890  0.53044  1.0000
  H   H1013     1.0  0.09958  0.72034  0.54832  1.0000
  C   C827      1.0  0.09088  0.74803  0.54022  1.0000
  H   H1014     1.0  0.03935  0.80187  0.55120  1.0000
  H   H1015     1.0  0.01953  0.79250  0.53916  1.0000
  H   H1016     1.0  0.09922  0.59177  0.57627  1.0000
  H   H1017     1.0  0.04721  0.81103  0.48733  1.0000
  H   H1018     1.0  0.13522  0.71888  0.51766  1.0000
  C   C828      1.0  0.11154  0.83878  0.53042  1.0000
  H   H1019     1.0  0.07159  0.53534  0.68042  1.0000
  S   S200      1.0  0.10086  0.64074  0.57014  1.0000
  H   H1020     1.0  0.16603  0.55163  0.70844  1.0000
  H   H1021     1.0  0.12010  0.83308  0.53999  1.0000
  C   C829      1.0  0.03704  0.58484  0.56198  1.0000
  C   C830      1.0  0.07804  0.76156  0.53377  1.0000
  H   H1022     1.0  0.10280  0.55063  0.68951  1.0000
  C   C831      1.0  0.17430  0.85317  0.51866  1.0000
  C   C832      1.0  0.16718  0.83831  0.52504  1.0000
  C   C833      1.0  0.15839  0.83383  0.51497  1.0000
  C   C834      1.0  0.15669  0.84426  0.49849  1.0000
  H   H1023     1.0  0.08717  0.74330  0.48589  1.0000
  S   S201      1.0  0.10119  0.66083  0.49222  1.0000
  H   H1024     1.0  0.16862  0.83017  0.53774  1.0000
  H   H1025     1.0  0.15332  0.82215  0.51979  1.0000
  H   H1026     1.0  0.02337  0.56468  0.57678  1.0000
  Fe  Fe97      1.0  0.99303  0.64970  0.48754  1.0000
  C   C835      1.0  0.27392  0.89615  0.49966  1.0000
  C   C836      1.0  0.29130  0.88871  0.50084  1.0000
  C   C837      1.0  0.30146  0.89848  0.50361  1.0000
  C   C838      1.0  0.29421  0.91570  0.50522  1.0000
  C   C839      1.0  0.27715  0.92337  0.50320  1.0000
  C   C840      1.0  0.26705  0.91361  0.50046  1.0000
  C   C841      1.0  0.17246  0.86361  0.50223  1.0000
  C   C842      1.0  0.03332  0.49188  0.67202  1.0000
  C   C843      1.0  0.99811  0.56278  0.55629  1.0000
  H   H1027     1.0  0.06558  0.82163  0.49916  1.0000
  C   C844      1.0  0.21306  0.93704  0.55379  1.0000
  C   C845      1.0  0.21595  0.93942  0.56894  1.0000
  C   C846      1.0  0.22659  0.95050  0.56783  1.0000
  C   C847      1.0  0.23406  0.95961  0.55155  1.0000
  C   C848      1.0  0.23099  0.95749  0.53637  1.0000
  C   C849      1.0  0.22045  0.94623  0.53750  1.0000
  H   H1028     1.0  0.21006  0.93252  0.58158  1.0000
  H   H1029     1.0  0.22888  0.95218  0.57959  1.0000
  H   H1030     1.0  0.23687  0.96437  0.52374  1.0000
  H   H1031     1.0  0.21784  0.94495  0.52579  1.0000
  C   C850      1.0  0.12888  0.58703  0.59588  1.0000
  C   C851      1.0  0.13535  0.59445  0.57843  1.0000
  C   C852      1.0  0.12694  0.89259  0.51023  1.0000
  C   C853      1.0  0.10563  0.61283  0.59736  1.0000
  C   C854      1.0  0.11382  0.59611  0.60526  1.0000
  Fe  Fe98      1.0  0.11863  0.51223  0.63044  1.0000
  H   H1032     1.0  0.09432  0.62008  0.60481  1.0000
  H   H1033     1.0  0.10879  0.59049  0.61873  1.0000
  S   S202      1.0  0.12063  0.66532  0.52085  1.0000
  H   H1034     1.0  0.00416  0.68690  0.54295  1.0000
  C   C855      1.0  0.10813  0.74858  0.49313  1.0000
  H   H1035     1.0  0.01206  0.56021  0.55460  1.0000
  H   H1036     1.0  0.01965  0.49919  0.70331  1.0000
  H   H1037     1.0  0.05220  0.60369  0.54971  1.0000
  C   C856      1.0  0.16977  0.97172  0.56096  1.0000
  H   H1038     1.0  0.99898  0.56101  0.61761  1.0000
  H   H1039     1.0  0.17492  0.56700  0.64922  1.0000
  H   H1040     1.0  0.03889  0.55615  0.60084  1.0000
  H   H1041     1.0  0.99368  0.63652  0.57426  1.0000
  C   C857      1.0  0.10533  0.55528  0.71332  1.0000
  C   C858      1.0  0.06150  0.52671  0.72527  1.0000
  S   S203      1.0  0.99395  0.64269  0.51583  1.0000
  H   H1042     1.0  0.09514  0.56702  0.71295  1.0000
  H   H1043     1.0  0.28358  0.97466  0.53591  1.0000
  H   H1044     1.0  0.14737  0.89701  0.51909  1.0000
  H   H1045     1.0  0.09085  0.49568  0.63243  1.0000
  C   C859      1.0  0.13688  0.87556  0.53633  1.0000
  S   S204      1.0  0.14028  0.56690  0.60607  1.0000
  H   H1046     1.0  0.23737  0.90059  0.56057  1.0000
  C   C860      1.0  0.05441  0.57539  0.58936  1.0000
  H   H1047     1.0  0.07920  0.77494  0.53115  1.0000
  H   H1048     1.0  0.14707  0.58748  0.57119  1.0000
  C   C861      1.0  0.14547  0.57274  0.67437  1.0000
  C   C862      1.0  0.15790  0.56114  0.68386  1.0000
  H   H1049     1.0  0.10223  0.75085  0.54222  1.0000
  S   S205      1.0  0.10450  0.55422  0.64906  1.0000
  H   H1050     1.0  0.13473  0.55054  0.66396  1.0000
  H   H1051     1.0  0.16434  0.58970  0.64581  1.0000
  C   C863      1.0  0.15671  0.56094  0.70129  1.0000
  H   H1052     1.0  0.28234  0.88935  0.53703  1.0000
  N   N62       1.0  0.14682  0.57235  0.65605  1.0000
  C   C864      1.0  0.07502  0.72709  0.54055  1.0000
  H   H1053     1.0  0.13233  0.59854  0.64772  1.0000
  C   C865      1.0  0.13140  0.52481  0.71452  1.0000
  C   C866      1.0  0.21469  0.83358  0.49944  1.0000
  S   S206      1.0  0.02127  0.79143  0.50298  1.0000
  C   C867      1.0  0.06014  0.51618  0.61636  1.0000
  H   H1054     1.0  0.08144  0.87558  0.51971  1.0000
  H   H1055     1.0  0.08060  0.84811  0.55208  1.0000
  H   H1056     1.0  0.08064  0.85337  0.52230  1.0000
  H   H1057     1.0  0.06057  0.57135  0.60041  1.0000
  H   H1058     1.0  0.12171  0.59342  0.67741  1.0000
  C   C868      1.0  0.12257  0.53061  0.70084  1.0000
  C   C869      1.0  0.03486  0.53701  0.63713  1.0000
  C   C870      1.0  0.24696  0.89820  0.56884  1.0000
  H   H1059     1.0  0.99261  0.61842  0.55508  1.0000
  H   H1060     1.0  0.11661  0.70012  0.51732  1.0000
  C   C871      1.0  0.05251  0.53645  0.63514  1.0000
  C   C872      1.0  0.99397  0.69629  0.49324  1.0000
  C   C873      1.0  0.11369  0.86814  0.52812  1.0000
  C   C874      1.0  0.17811  0.96595  0.52654  1.0000
  S   S207      1.0  0.30549  0.92734  0.51153  1.0000
  C   C875      1.0  0.14652  0.55466  0.65514  1.0000
  C   C876      1.0  0.13249  0.58483  0.64818  1.0000
  H   H1061     1.0  0.12536  0.85422  0.55063  1.0000
  C   C877      1.0  0.30354  0.89227  0.58747  1.0000
  Fe  Fe99      1.0  0.11731  0.52713  0.66112  1.0000
  H   H1062     1.0  0.14152  0.51301  0.71503  1.0000
  S   S208      1.0  0.05930  0.54871  0.64534  1.0000
  C   C878      1.0  0.12510  0.86506  0.53946  1.0000
  C   C879      1.0  0.28836  0.96753  0.56907  1.0000
  C   C880      1.0  0.02992  0.52704  0.62866  1.0000
  C   C881      1.0  0.12478  0.72421  0.51065  1.0000
  H   H1063     1.0  0.06687  0.49860  0.68412  1.0000
  H   H1064     1.0  0.25810  0.92795  0.55551  1.0000
  N   N63       1.0  0.30069  0.96144  0.55385  1.0000
  H   H1065     1.0  0.29125  0.95868  0.58152  1.0000
  H   H1066     1.0  0.13973  0.49048  0.66635  1.0000
  C   C882      1.0  0.29747  0.94462  0.55353  1.0000
  C   C883      1.0  0.29673  0.97409  0.53767  1.0000
  H   H1067     1.0  0.29675  0.87519  0.50032  1.0000
  C   C884      1.0  0.03566  0.54076  0.71259  1.0000
  C   C885      1.0  0.04523  0.62721  0.49884  1.0000
  H   H1068     1.0  0.05834  0.73635  0.50386  1.0000
  C   C886      1.0  0.09157  0.59408  0.49057  1.0000
  H   H1069     1.0  0.18095  0.96024  0.56126  1.0000
  H   H1070     1.0  0.30633  0.97046  0.52598  1.0000
  C   C887      1.0  0.05572  0.63684  0.50100  1.0000
  H   H1071     1.0  0.02480  0.62764  0.48696  1.0000
  Fe  Fe100     1.0  0.12475  0.64716  0.50338  1.0000
  C   C888      1.0  0.12702  0.53396  0.72775  1.0000
  C   C889      1.0  0.18084  0.96301  0.50987  1.0000
  C   C890      1.0  0.03184  0.50361  0.69618  1.0000
  H   H1072     1.0  0.07002  0.50816  0.60832  1.0000
  H   H1073     1.0  0.14199  0.57182  0.72339  1.0000
  S   S209      1.0  0.26078  0.88326  0.49804  1.0000
  H   H1074     1.0  0.09811  0.84990  0.55978  1.0000
  H   H1075     1.0  0.28393  0.94612  0.55222  1.0000
  H   H1076     1.0  0.00012  0.72789  0.48867  1.0000
  C   C891      1.0  0.18358  0.97630  0.49515  1.0000
  H   H1077     1.0  0.10280  0.82973  0.53290  1.0000
  C   C892      1.0  0.22827  0.84042  0.49974  1.0000
  C   C893      1.0  0.06566  0.60753  0.58916  1.0000
  H   H1078     1.0  0.03022  0.58846  0.55138  1.0000
  C   C894      1.0  0.28664  0.89104  0.59627  1.0000
  H   H1079     1.0  0.05281  0.61654  0.58811  1.0000
  S   S210      1.0  0.07988  0.66181  0.53223  1.0000
  C   C895      1.0  0.16339  0.57665  0.64513  1.0000
  H   H1080     1.0  0.27211  0.87407  0.55418  1.0000
  H   H1081     1.0  0.24143  0.90775  0.57734  1.0000
  H   H1082     1.0  0.13387  0.58412  0.63444  1.0000
  S   S211      1.0  0.12719  0.51735  0.68593  1.0000
  H   H1083     1.0  0.18072  0.95035  0.50832  1.0000
  C   C896      1.0  0.27003  0.88778  0.54654  1.0000
  C   C897      1.0  0.03315  0.57143  0.57624  1.0000
  H   H1084     1.0  0.28885  0.98083  0.56937  1.0000
  S   S212      1.0  0.13753  0.52295  0.63712  1.0000
  H   H1085     1.0  0.24737  0.88478  0.57706  1.0000
  H   H1086     1.0  0.29894  0.90136  0.54584  1.0000
  H   H1087     1.0  0.25395  0.91966  0.49899  1.0000
  H   H1088     1.0  0.02869  0.50534  0.66461  1.0000
  C   C898      1.0  0.07636  0.61096  0.55833  1.0000
  Fe  Fe101     1.0  0.99702  0.78163  0.51710  1.0000
  H   H1089     1.0  0.08656  0.61735  0.55861  1.0000
  C   C899      1.0  0.09760  0.73787  0.49287  1.0000
  H   H1090     1.0  0.03024  0.74400  0.55434  1.0000
  S   S213      1.0  0.00149  0.59274  0.53159  1.0000
  H   H1091     1.0  0.09700  0.86219  0.50566  1.0000
  H   H1092     1.0  0.31468  0.89248  0.50510  1.0000
  N   N64       1.0  0.04319  0.49183  0.68475  1.0000
  H   H1093     1.0  0.11776  0.60752  0.49495  1.0000
  S   S214      1.0  0.07041  0.62658  0.51467  1.0000
  C   C900      1.0  0.32399  0.97540  0.55461  1.0000
  H   H1094     1.0  0.03989  0.54685  0.68459  1.0000
  H   H1095     1.0  0.14584  0.87266  0.54490  1.0000
  C   C901      1.0  0.08965  0.86230  0.51926  1.0000
  H   H1096     1.0  0.17620  0.95496  0.53730  1.0000
  H   H1097     1.0  0.30625  0.93942  0.54222  1.0000
  H   H1098     1.0  0.12017  0.59246  0.70765  1.0000
  H   H1099     1.0  0.09674  0.57973  0.49290  1.0000
  H   H1100     1.0  0.01635  0.52746  0.63015  1.0000
  C   C902      1.0  0.06170  0.74063  0.53391  1.0000
  C   C903      1.0  0.09047  0.85602  0.54945  1.0000
  H   H1101     1.0  0.05462  0.51332  0.66862  1.0000
  H   H1102     1.0  0.14663  0.55409  0.64167  1.0000
  H   H1103     1.0  0.23253  0.83791  0.51182  1.0000
  H   H1104     1.0  0.28347  0.88809  0.61041  1.0000
  H   H1105     1.0  0.08549  0.52279  0.70520  1.0000
  H   H1106     1.0  0.99963  0.52999  0.67616  1.0000
  C   C904      1.0  0.30771  0.89600  0.56935  1.0000
  Fe  Fe102     1.0  0.12937  0.81996  0.49229  1.0000
  H   H1107     1.0  0.11961  0.58198  0.65539  1.0000
  C   C905      1.0  0.11375  0.54900  0.72741  1.0000
  H   H1108     1.0  0.16457  0.57685  0.63116  1.0000
  N   N65       1.0  0.10150  0.85664  0.53164  1.0000
  S   S215      1.0  0.09954  0.51403  0.65568  1.0000
  H   H1109     1.0  0.09350  0.59856  0.50133  1.0000
  H   H1110     1.0  0.12800  0.90307  0.49867  1.0000
  C   C906      1.0  0.06372  0.53457  0.69354  1.0000
  H   H1111     1.0  0.25259  0.92103  0.53910  1.0000
  C   C907      1.0  0.08935  0.73085  0.54367  1.0000
  Fe  Fe103     1.0  0.12355  0.54912  0.62445  1.0000
  C   C908      1.0  0.04186  0.56669  0.58985  1.0000
  C   C909      1.0  0.11432  0.71348  0.51032  1.0000
  H   H1112     1.0  0.29920  0.93469  0.56576  1.0000
  C   C910      1.0  0.03218  0.80086  0.51238  1.0000
  H   H1113     1.0  0.27459  0.92071  0.53819  1.0000
  N   N66       1.0  0.26439  0.90025  0.55811  1.0000
  C   C911      1.0  0.16361  0.85916  0.49228  1.0000
  Fe  Fe104     1.0  0.08844  0.54075  0.64126  1.0000
  C   C912      1.0  0.13091  0.58401  0.70078  1.0000
  H   H1114     1.0  0.13166  0.61647  0.55678  1.0000
  C   C913      1.0  0.26233  0.91823  0.54727  1.0000
  H   H1115     1.0  0.27153  0.93675  0.50426  1.0000
  C   C914      1.0  0.12667  0.61084  0.57028  1.0000
  H   H1116     1.0  0.09313  0.57692  0.56788  1.0000
  Fe  Fe105     1.0  0.10481  0.64753  0.54087  1.0000
  N   N67       1.0  0.04626  0.73728  0.53050  1.0000
  C   C915      1.0  0.03019  0.74706  0.54021  1.0000
  C   C916      1.0  0.04635  0.74325  0.51161  1.0000
  C   C917      1.0  0.04541  0.71861  0.53581  1.0000
  C   C918      1.0  0.04584  0.54117  0.69584  1.0000
  H   H1117     1.0  0.27465  0.96820  0.56891  1.0000
  H   H1118     1.0  0.01835  0.74381  0.53902  1.0000
  H   H1119     1.0  0.04585  0.75744  0.50681  1.0000
  H   H1120     1.0  0.09648  0.51894  0.72866  1.0000
  C   C919      1.0  0.12164  0.74183  0.50218  1.0000
  H   H1121     1.0  0.04516  0.71334  0.54997  1.0000
  C   C920      1.0  0.05853  0.49935  0.67516  1.0000
  H   H1122     1.0  0.07494  0.71348  0.54305  1.0000
  H   H1123     1.0  0.06492  0.62174  0.55583  1.0000
  Fe  Fe106     1.0  0.09619  0.67805  0.51084  1.0000
  H   H1124     1.0  0.02171  0.54604  0.71437  1.0000
  H   H1125     1.0  0.02765  0.51711  0.68860  1.0000
  H   H1126     1.0  0.08141  0.60470  0.54697  1.0000
  C   C921      1.0  0.27381  0.89349  0.58698  1.0000
  C   C922      1.0  0.04264  0.51680  0.61807  1.0000
  H   H1127     1.0  0.20842  0.82582  0.51135  1.0000
  H   H1128     1.0  0.12006  0.83871  0.51724  1.0000
  H   H1129     1.0  0.15790  0.54458  0.65898  1.0000
  H   H1130     1.0  0.00134  0.56866  0.51040  1.0000
  H   H1131     1.0  0.03342  0.71662  0.53348  1.0000
  H   H1132     1.0  0.04618  0.61370  0.50565  1.0000
  S   S216      1.0  0.03738  0.50480  0.60651  1.0000
  C   C923      1.0  0.14324  0.57236  0.70971  1.0000
  S   S217      1.0  0.10167  0.83270  0.49051  1.0000
  S   S218      1.0  0.09539  0.79355  0.49632  1.0000
  C   C924      1.0  0.07154  0.52739  0.70796  1.0000
  C   C925      1.0  0.13191  0.58428  0.68337  1.0000
  H   H1133     1.0  0.02847  0.76139  0.53530  1.0000
  H   H1134     1.0  0.03496  0.74089  0.50850  1.0000
  H   H1135     1.0  0.10723  0.88542  0.50366  1.0000
  C   C926      1.0  0.27765  0.89726  0.56844  1.0000
  C   C927      1.0  0.05889  0.58897  0.57494  1.0000
  H   H1136     1.0  0.02509  0.54509  0.64516  1.0000
  S   S219      1.0  0.99266  0.72169  0.54874  1.0000
  Fe  Fe107     1.0  0.08772  0.64315  0.51481  1.0000
  C   C928      1.0  0.04502  0.80936  0.50125  1.0000
  C   C929      1.0  0.17788  0.98254  0.52891  1.0000
  H   H1137     1.0  0.17788  0.87507  0.49720  1.0000
  Fe  Fe108     1.0  0.12332  0.78369  0.49786  1.0000
  C   C930      1.0  0.04334  0.53391  0.72710  1.0000
  S   S220      1.0  0.13515  0.75490  0.50263  1.0000
  C   C931      1.0  0.10070  0.72025  0.50144  1.0000
  H   H1138     1.0  0.31350  0.89026  0.59468  1.0000
  S   S221      1.0  0.99914  0.50137  0.59112  1.0000
  H   H1139     1.0  0.00758  0.69569  0.48570  1.0000
  H   H1140     1.0  0.14902  0.60153  0.49240  1.0000
  H   H1141     1.0  0.07722  0.59674  0.49208  1.0000
  C   C932      1.0  0.05438  0.65435  0.49226  1.0000
  S   S222      1.0  0.21234  0.88984  0.49370  1.0000
  S   S223      1.0  0.99433  0.75810  0.51032  1.0000
  H   H1142     1.0  0.99423  0.69357  0.50725  1.0000
  H   H1143     1.0  0.20099  0.98077  0.54694  1.0000
  S   S224      1.0  0.99276  0.52817  0.71272  1.0000
  H   H1144     1.0  0.32093  0.89687  0.56260  1.0000
  C   C933      1.0  0.99963  0.58820  0.60895  1.0000
  H   H1145     1.0  0.99814  0.61518  0.59877  1.0000
  S   S225      1.0  0.15083  0.64034  0.48584  1.0000
  C   C934      1.0  0.99393  0.57352  0.60967  1.0000
  H   H1146     1.0  0.10603  0.76193  0.48596  1.0000
  C   C935      1.0  0.99312  0.60439  0.59875  1.0000
  C   C936      1.0  0.28609  0.50882  0.89723  1.0000
  C   C937      1.0  0.18438  0.51053  0.77610  1.0000
  S   S226      1.0  0.99928  0.50871  0.75975  1.0000
  H   H1147     1.0  0.13205  0.53149  0.87120  1.0000
  C   C938      1.0  0.23660  0.49282  0.98425  1.0000
  C   C939      1.0  0.05334  0.53008  0.79368  1.0000
  Fe  Fe109     1.0  0.23251  0.55261  0.87324  1.0000
  S   S227      1.0  0.20346  0.56085  0.88049  1.0000
  S   S228      1.0  0.24822  0.56973  0.87594  1.0000
  Fe  Fe110     1.0  0.23123  0.51791  0.86856  1.0000
  S   S229      1.0  0.20218  0.52286  0.87611  1.0000
  H   H1148     1.0  0.16396  0.51489  0.80645  1.0000
  Fe  Fe111     1.0  0.20349  0.54925  0.85866  1.0000
  S   S230      1.0  0.18687  0.56363  0.83879  1.0000
  Fe  Fe112     1.0  0.20505  0.53374  0.89703  1.0000
  S   S231      1.0  0.19193  0.52595  0.92513  1.0000
  S   S232      1.0  0.23257  0.54355  0.84978  1.0000
  S   S233      1.0  0.23405  0.52622  0.89117  1.0000
  Fe  Fe113     1.0  0.12308  0.52970  0.80490  1.0000
  H   H1149     1.0  0.28253  0.59760  0.95671  1.0000
  S   S234      1.0  0.21862  0.56421  0.96636  1.0000
  C   C940      1.0  0.26958  0.59575  0.92932  1.0000
  Fe  Fe114     1.0  0.11337  0.54039  0.76948  1.0000
  H   H1150     1.0  0.12160  0.55854  0.87685  1.0000
  H   H1151     1.0  0.24816  0.51997  0.94827  1.0000
  H   H1152     1.0  0.16832  0.54848  0.89527  1.0000
  Fe  Fe115     1.0  0.09670  0.51366  0.79802  1.0000
  H   H1153     1.0  0.24780  0.53821  0.95634  1.0000
  H   H1154     1.0  0.12112  0.55114  0.90871  1.0000
  C   C941      1.0  0.15595  0.51866  0.90288  1.0000
  C   C942      1.0  0.25645  0.52815  0.94926  1.0000
  C   C943      1.0  0.06884  0.53467  0.74807  1.0000
  H   H1155     1.0  0.16174  0.52308  0.91075  1.0000
  S   S235      1.0  0.11077  0.51372  0.77060  1.0000
  H   H1156     1.0  0.15912  0.51546  0.84652  1.0000
  C   C944      1.0  0.15816  0.50067  0.90529  1.0000
  C   C945      1.0  0.30021  0.49616  0.92157  1.0000
  H   H1157     1.0  0.05529  0.54193  0.75219  1.0000
  C   C946      1.0  0.05963  0.50773  0.75437  1.0000
  C   C947      1.0  0.25470  0.59626  0.94319  1.0000
  C   C948      1.0  0.29691  0.54282  0.85889  1.0000
  C   C949      1.0  0.15999  0.52867  0.83974  1.0000
  H   H1158     1.0  0.19585  0.50006  0.83805  1.0000
  C   C950      1.0  0.27081  0.56164  0.87175  1.0000
  C   C951      1.0  0.28093  0.56770  0.87895  1.0000
  C   C952      1.0  0.04257  0.50384  0.80065  1.0000
  H   H1159     1.0  0.22662  0.59775  0.94857  1.0000
  H   H1160     1.0  0.04622  0.51432  0.75976  1.0000
  C   C953      1.0  0.27877  0.54903  0.86184  1.0000
  H   H1161     1.0  0.27486  0.57741  0.88654  1.0000
  H   H1162     1.0  0.25790  0.55565  0.90957  1.0000
  H   H1163     1.0  0.23325  0.61349  0.96746  1.0000
  H   H1164     1.0  0.27099  0.54430  0.85625  1.0000
  C   C954      1.0  0.19848  0.53659  0.93731  1.0000
  C   C955      1.0  0.20324  0.55248  0.92927  1.0000
  C   C956      1.0  0.20874  0.56103  0.93861  1.0000
  C   C957      1.0  0.21004  0.55355  0.95595  1.0000
  C   C958      1.0  0.20532  0.53760  0.96413  1.0000
  C   C959      1.0  0.19939  0.52918  0.95483  1.0000
  H   H1165     1.0  0.20249  0.55839  0.91587  1.0000
  H   H1166     1.0  0.21223  0.57341  0.93223  1.0000
  H   H1167     1.0  0.03490  0.53470  0.73974  1.0000
  H   H1168     1.0  0.19581  0.51682  0.96112  1.0000
  C   C960      1.0  0.23951  0.59985  0.97298  1.0000
  H   H1169     1.0  0.20213  0.54558  0.80679  1.0000
  C   C961      1.0  0.30693  0.54880  0.86635  1.0000
  C   C962      1.0  0.17308  0.55328  0.83420  1.0000
  C   C963      1.0  0.16209  0.56284  0.82266  1.0000
  C   C964      1.0  0.15104  0.49411  0.89559  1.0000
  N   N68       1.0  0.26557  0.53610  0.93171  1.0000
  H   H1170     1.0  0.16267  0.57621  0.81624  1.0000
  H   H1171     1.0  0.14078  0.56323  0.81175  1.0000
  C   C965      1.0  0.02557  0.53146  0.78751  1.0000
  H   H1172     1.0  0.17800  0.52438  0.77627  1.0000
  C   C966      1.0  0.03833  0.53974  0.78750  1.0000
  H   H1173     1.0  0.28244  0.59382  0.93152  1.0000
  H   H1174     1.0  0.03671  0.55367  0.78248  1.0000
  H   H1175     1.0  0.16034  0.56845  0.88124  1.0000
  C   C967      1.0  0.17142  0.50131  0.80651  1.0000
  C   C968      1.0  0.08780  0.51020  0.73699  1.0000
  Fe  Fe116     1.0  0.13522  0.50468  0.78066  1.0000
  S   S236      1.0  0.24629  0.49236  0.86235  1.0000
  C   C969      1.0  0.29332  0.49540  0.97910  1.0000
  C   C970      1.0  0.25221  0.59931  0.90844  1.0000
  H   H1176     1.0  0.26881  0.60305  0.97601  1.0000
  C   C971      1.0  0.26883  0.60343  0.96227  1.0000
  H   H1177     1.0  0.30314  0.53326  0.85103  1.0000
  H   H1178     1.0  0.13394  0.52938  0.73825  1.0000
  S   S237      1.0  0.09730  0.54118  0.79664  1.0000
  H   H1179     1.0  0.23028  0.59135  0.97538  1.0000
  H   H1180     1.0  0.27577  0.56994  0.96077  1.0000
  S   S238      1.0  0.31041  0.56630  0.94159  1.0000
  S   S239      1.0  0.13922  0.53133  0.77757  1.0000
  H   H1181     1.0  0.28418  0.55225  0.92063  1.0000
  H   H1182     1.0  0.18096  0.52835  0.85097  1.0000
  C   C972      1.0  0.20641  0.53247  0.80455  1.0000
  H   H1183     1.0  0.17378  0.49523  0.81990  1.0000
  H   H1184     1.0  0.07485  0.53027  0.75968  1.0000
  C   C973      1.0  0.31106  0.49159  0.97187  1.0000
  H   H1185     1.0  0.16256  0.49450  0.80420  1.0000
  N   N69       1.0  0.18801  0.50032  0.79331  1.0000
  S   S240      1.0  0.13060  0.53042  0.82927  1.0000
  C   C974      1.0  0.28940  0.50910  0.93014  1.0000
  C   C975      1.0  0.14652  0.53066  0.89057  1.0000
  C   C976      1.0  0.14980  0.55547  0.81997  1.0000
  C   C977      1.0  0.21739  0.49848  0.79943  1.0000
  C   C978      1.0  0.14841  0.53852  0.82890  1.0000
  N   N70       1.0  0.25633  0.59382  0.96138  1.0000
  C   C979      1.0  0.19506  0.52499  0.80059  1.0000
  H   H1186     1.0  0.24152  0.49866  0.80501  1.0000
  C   C980      1.0  0.20016  0.50773  0.79797  1.0000
  C   C981      1.0  0.32321  0.57230  0.96660  1.0000
  H   H1187     1.0  0.26566  0.61732  0.95532  1.0000
  H   H1188     1.0  0.14073  0.54831  0.91589  1.0000
  H   H1189     1.0  0.06317  0.53659  0.79344  1.0000
  H   H1190     1.0  0.18217  0.53284  0.79972  1.0000
  H   H1191     1.0  0.01778  0.50706  0.79425  1.0000
  C   C982      1.0  0.26276  0.57506  0.96839  1.0000
  H   H1192     1.0  0.22500  0.60056  0.91882  1.0000
  S   S241      1.0  0.12102  0.50230  0.80829  1.0000
  H   H1193     1.0  0.25120  0.60048  0.89519  1.0000
  H   H1194     1.0  0.13158  0.56906  0.90368  1.0000
  H   H1195     1.0  0.25374  0.56733  0.96807  1.0000
  C   C983      1.0  0.26828  0.59743  0.91222  1.0000
  H   H1196     1.0  0.26548  0.51988  0.95780  1.0000
  C   C984      1.0  0.17234  0.53599  0.84235  1.0000
  C   C985      1.0  0.23743  0.59942  0.92177  1.0000
  C   C986      1.0  0.14169  0.50550  0.88344  1.0000
  H   H1197     1.0  0.28506  0.50900  0.88424  1.0000
  H   H1198     1.0  0.26895  0.55753  0.93974  1.0000
  C   C987      1.0  0.23857  0.59788  0.93889  1.0000
  C   C988      1.0  0.29888  0.56108  0.87655  1.0000
  H   H1199     1.0  0.13402  0.57455  0.87251  1.0000
  C   C989      1.0  0.13933  0.52351  0.88097  1.0000
  H   H1200     1.0  0.04418  0.48994  0.80580  1.0000
  H   H1201     1.0  0.14222  0.55716  0.86142  1.0000
  N   N71       1.0  0.14420  0.54967  0.88842  1.0000
  C   C990      1.0  0.16138  0.55412  0.88433  1.0000
  C   C991      1.0  0.13508  0.56037  0.87421  1.0000
  H   H1202     1.0  0.30657  0.56578  0.88227  1.0000
  H   H1203     1.0  0.16987  0.54930  0.87277  1.0000
  H   H1204     1.0  0.05881  0.49696  0.74913  1.0000
  S   S242      1.0  0.32163  0.53202  0.91219  1.0000
  H   H1205     1.0  0.27985  0.59711  0.90186  1.0000
  C   C992      1.0  0.13396  0.55476  0.90489  1.0000
  C   C993      1.0  0.05550  0.51213  0.80026  1.0000
  C   C994      1.0  0.22865  0.50612  0.80337  1.0000
  C   C995      1.0  0.02765  0.51348  0.79414  1.0000
  H   H1206     1.0  0.20634  0.53170  0.97752  1.0000
  C   C996      1.0  0.22315  0.52304  0.80598  1.0000
  H   H1207     1.0  0.13635  0.50038  0.87570  1.0000
  C   C997      1.0  0.29859  0.49606  0.90512  1.0000
  H   H1208     1.0  0.24405  0.55844  0.92986  1.0000
  C   C998      1.0  0.27514  0.52175  0.90575  1.0000
  H   H1209     1.0  0.24300  0.54151  0.92067  1.0000
  C   C999      1.0  0.25207  0.54836  0.92250  1.0000
  C   C1000     1.0  0.27676  0.54652  0.93360  1.0000
  H   H1210     1.0  0.23152  0.50130  0.97314  1.0000
  C   C1001     1.0  0.21923  0.49700  0.84686  1.0000
  C   C1002     1.0  0.27648  0.52228  0.92252  1.0000
  H   H1211     1.0  0.21763  0.51080  0.84541  1.0000
  H   H1212     1.0  0.06585  0.50182  0.76585  1.0000
  H   H1213     1.0  0.19655  0.51034  0.76589  1.0000
  H   H1214     1.0  0.17553  0.50525  0.77187  1.0000
  H   H1215     1.0  0.31131  0.56996  0.97568  1.0000
  H   H1216     1.0  0.26594  0.53138  0.89876  1.0000
  H   H1217     1.0  0.28635  0.53869  0.94173  1.0000
  S   S243      1.0  0.07453  0.49985  0.80751  1.0000
  H   H1218     1.0  0.29165  0.50905  0.94253  1.0000
  S   S244      1.0  0.00760  0.54402  0.77855  1.0000
  H   H1219     1.0  0.07598  0.54419  0.73832  1.0000
  H   H1220     1.0  0.16552  0.49178  0.91467  1.0000
  H   H1221     1.0  0.23174  0.52876  0.80949  1.0000
  H   H1222     1.0  0.09302  0.50418  0.74905  1.0000
  C   C1003     1.0  0.20706  0.49095  0.84237  1.0000
  S   S245      1.0  0.10755  0.55962  0.74479  1.0000
  N   N72       1.0  0.06941  0.51987  0.74081  1.0000
  H   H1223     1.0  0.13831  0.49805  0.74582  1.0000
  C   C1004     1.0  0.32241  0.49869  0.97632  1.0000
  H   H1224     1.0  0.21613  0.49132  0.92234  1.0000
  H   H1225     1.0  0.26409  0.57250  0.98213  1.0000
  H   H1226     1.0  0.28457  0.48962  0.97590  1.0000
  H   H1227     1.0  0.21132  0.48720  0.89825  1.0000
  Fe  Fe117     1.0  0.38207  0.39386  0.01446  1.0000
  H   H1228     1.0  0.60574  0.99339  0.11817  1.0000
  S   S246      1.0  0.39458  0.36681  0.02752  1.0000
  Fe  Fe118     1.0  0.37012  0.43217  0.01484  1.0000
  H   H1229     1.0  0.64755  0.18653  0.99465  1.0000
  H   H1230     1.0  0.35482  0.33136  0.01445  1.0000
  Fe  Fe119     1.0  0.35057  0.41615  0.99929  1.0000
  H   H1231     1.0  0.32590  0.45464  0.05076  1.0000
  Fe  Fe120     1.0  0.46422  0.99286  0.13531  1.0000
  S   S247      1.0  0.47244  0.99377  0.15887  1.0000
  S   S248      1.0  0.35647  0.41002  0.02580  1.0000
  S   S249      1.0  0.39635  0.41554  0.00584  1.0000
  H   H1232     1.0  0.58625  0.08358  0.19090  1.0000
  Fe  Fe121     1.0  0.62768  0.27837  0.01673  1.0000
  C   C1005     1.0  0.59451  0.01058  0.07734  1.0000
  H   H1233     1.0  0.55121  0.01551  0.09554  1.0000
  C   C1006     1.0  0.57884  0.07690  0.20274  1.0000
  H   H1234     1.0  0.61140  0.99430  0.21196  1.0000
  S   S250      1.0  0.62240  0.30756  0.01306  1.0000
  H   H1235     1.0  0.65680  0.21444  0.05298  1.0000
  H   H1236     1.0  0.59918  0.01495  0.04261  1.0000
  H   H1237     1.0  0.56989  0.14623  0.00991  1.0000
  Fe  Fe122     1.0  0.48210  0.26990  0.01262  1.0000
  S   S251      1.0  0.51116  0.26381  0.00513  1.0000
  S   S252      1.0  0.46677  0.25126  0.03183  1.0000
  Fe  Fe123     1.0  0.50870  0.29097  0.00753  1.0000
  S   S253      1.0  0.52625  0.29528  0.02199  1.0000
  H   H1238     1.0  0.49302  0.21057  0.99326  1.0000
  S   S254      1.0  0.60893  0.11078  0.03041  1.0000
  S   S255      1.0  0.47982  0.29607  0.01755  1.0000
  H   H1239     1.0  0.46782  0.40649  0.01924  1.0000
  Fe  Fe124     1.0  0.47051  0.16441  0.00705  1.0000
  S   S256      1.0  0.44997  0.14926  0.02055  1.0000
  S   S257      1.0  0.60337  0.15227  0.99466  1.0000
  Fe  Fe125     1.0  0.49844  0.13228  0.00325  1.0000
  S   S258      1.0  0.48056  0.11389  0.01569  1.0000
  Fe  Fe126     1.0  0.46969  0.13060  0.03525  1.0000
  S   S259      1.0  0.46162  0.11836  0.06379  1.0000
  S   S260      1.0  0.48901  0.14764  0.02400  1.0000
  S   S261      1.0  0.58944  0.05638  0.13125  1.0000
  H   H1240     1.0  0.55985  0.10192  0.07559  1.0000
  H   H1241     1.0  0.49844  0.12276  0.05980  1.0000
  H   H1242     1.0  0.37463  0.31546  0.00987  1.0000
  H   H1243     1.0  0.53384  0.07067  0.19411  1.0000
  N   N73       1.0  0.48705  0.34677  0.01902  1.0000
  H   H1244     1.0  0.55063  0.09529  0.04318  1.0000
  Fe  Fe127     1.0  0.48137  0.02202  0.11223  1.0000
  S   S262      1.0  0.49123  0.02536  0.13373  1.0000
  S   S263      1.0  0.48987  0.03675  0.08478  1.0000
  C   C1007     1.0  0.57450  0.06514  0.23373  1.0000
  H   H1245     1.0  0.60933  0.06513  0.08392  1.0000
  Fe  Fe128     1.0  0.46491  0.02267  0.15007  1.0000
  S   S264      1.0  0.45112  0.03747  0.17109  1.0000
  H   H1246     1.0  0.49074  0.38045  0.01739  1.0000
  H   H1247     1.0  0.55493  0.26167  0.01552  1.0000
  S   S265      1.0  0.45414  0.02187  0.12789  1.0000
  C   C1008     1.0  0.54372  0.31594  0.99371  1.0000
  C   C1009     1.0  0.58659  0.10688  0.09819  1.0000
  C   C1010     1.0  0.46441  0.03464  0.18572  1.0000
  C   C1011     1.0  0.45768  0.04138  0.20078  1.0000
  C   C1012     1.0  0.46840  0.03943  0.21229  1.0000
  C   C1013     1.0  0.48593  0.03097  0.20858  1.0000
  C   C1014     1.0  0.49252  0.02396  0.19373  1.0000
  C   C1015     1.0  0.48175  0.02561  0.18245  1.0000
  H   H1248     1.0  0.44424  0.04832  0.20340  1.0000
  C   C1016     1.0  0.52439  0.05395  0.09402  1.0000
  H   H1249     1.0  0.50605  0.01736  0.19083  1.0000
  H   H1250     1.0  0.48702  0.02016  0.17104  1.0000
  C   C1017     1.0  0.41490  0.06912  0.06184  1.0000
  H   H1251     1.0  0.35905  0.32185  0.99621  1.0000
  N   N74       1.0  0.54187  0.05269  0.21689  1.0000
  S   S266      1.0  0.56867  0.03563  0.10572  1.0000
  C   C1018     1.0  0.50272  0.07365  0.10976  1.0000
  C   C1019     1.0  0.55617  0.02050  0.11799  1.0000
  C   C1020     1.0  0.55308  0.01665  0.13619  1.0000
  C   C1021     1.0  0.64365  0.00407  0.19888  1.0000
  S   S267      1.0  0.49057  0.99281  0.11788  1.0000
  H   H1252     1.0  0.55780  0.02352  0.14273  1.0000
  H   H1253     1.0  0.59921  0.02225  0.07658  1.0000
  C   C1022     1.0  0.46965  0.09571  0.06988  1.0000
  C   C1023     1.0  0.46183  0.08608  0.08573  1.0000
  C   C1024     1.0  0.46789  0.06792  0.09052  1.0000
  C   C1025     1.0  0.48183  0.05939  0.07945  1.0000
  C   C1026     1.0  0.48968  0.06904  0.06369  1.0000
  C   C1027     1.0  0.48369  0.08712  0.05897  1.0000
  H   H1254     1.0  0.45096  0.09264  0.09425  1.0000
  H   H1255     1.0  0.46173  0.06053  0.10271  1.0000
  H   H1256     1.0  0.50057  0.06252  0.05515  1.0000
  H   H1257     1.0  0.49022  0.09444  0.04705  1.0000
  C   C1028     1.0  0.46821  0.23294  0.02409  1.0000
  C   C1029     1.0  0.45495  0.22373  0.03065  1.0000
  C   C1030     1.0  0.45502  0.21026  0.02321  1.0000
  C   C1031     1.0  0.46854  0.20577  0.00943  1.0000
  C   C1032     1.0  0.48238  0.21421  0.00369  1.0000
  C   C1033     1.0  0.48212  0.22793  0.01086  1.0000
  H   H1258     1.0  0.44423  0.22750  0.04099  1.0000
  H   H1259     1.0  0.44419  0.20393  0.02757  1.0000
  C   C1034     1.0  0.64745  0.99512  0.08225  1.0000
  H   H1260     1.0  0.49254  0.23480  0.00600  1.0000
  H   H1261     1.0  0.59432  0.07915  0.21904  1.0000
  C   C1035     1.0  0.57451  0.30476  0.00615  1.0000
  C   C1036     1.0  0.55969  0.29857  0.01595  1.0000
  C   C1037     1.0  0.54436  0.30387  0.00963  1.0000
  S   S268      1.0  0.63154  0.15269  0.01617  1.0000
  C   C1038     1.0  0.50493  0.34857  0.01763  1.0000
  H   H1262     1.0  0.58632  0.30046  0.01111  1.0000
  H   H1263     1.0  0.56020  0.28960  0.02843  1.0000
  S   S269      1.0  0.36283  0.43911  0.98904  1.0000
  H   H1264     1.0  0.65394  0.00367  0.08480  1.0000
  H   H1265     1.0  0.49524  0.10147  0.08703  1.0000
  C   C1039     1.0  0.46453  0.39433  0.02012  1.0000
  C   C1040     1.0  0.54905  0.01240  0.10960  1.0000
  C   C1041     1.0  0.37981  0.34796  0.00439  1.0000
  C   C1042     1.0  0.41351  0.35714  0.01414  1.0000
  C   C1043     1.0  0.41975  0.36630  0.99740  1.0000
  H   H1266     1.0  0.50930  0.35797  0.00547  1.0000
  H   H1267     1.0  0.32845  0.47816  0.06140  1.0000
  C   C1044     1.0  0.43691  0.33187  0.00924  1.0000
  C   C1045     1.0  0.42214  0.33992  0.02006  1.0000
  C   C1046     1.0  0.63244  0.00206  0.07545  1.0000
  S   S270      1.0  0.44120  0.12701  0.99219  1.0000
  H   H1268     1.0  0.44335  0.31853  0.01381  1.0000
  H   H1269     1.0  0.41732  0.33277  0.03300  1.0000
  H   H1270     1.0  0.54010  0.00218  0.16009  1.0000
  H   H1271     1.0  0.65628  0.02143  0.20371  1.0000
  H   H1272     1.0  0.60110  0.08016  0.05552  1.0000
  H   H1273     1.0  0.58795  0.02352  0.21874  1.0000
  N   N75       1.0  0.43356  0.08761  0.03764  1.0000
  C   C1047     1.0  0.44058  0.10037  0.04179  1.0000
  C   C1048     1.0  0.44598  0.08084  0.02280  1.0000
  C   C1049     1.0  0.44597  0.06240  0.05991  1.0000
  C   C1050     1.0  0.44428  0.04853  0.07439  1.0000
  H   H1274     1.0  0.45390  0.09482  0.04421  1.0000
  H   H1275     1.0  0.50211  0.21863  0.03750  1.0000
  H   H1276     1.0  0.45930  0.07525  0.02533  1.0000
  C   C1051     1.0  0.65183  0.99955  0.16946  1.0000
  H   H1277     1.0  0.44165  0.07053  0.01983  1.0000
  H   H1278     1.0  0.45886  0.06477  0.05418  1.0000
  H   H1279     1.0  0.45566  0.04053  0.07933  1.0000
  S   S271      1.0  0.58961  0.15851  0.03440  1.0000
  N   N76       1.0  0.59747  0.13368  0.09636  1.0000
  C   C1052     1.0  0.60969  0.08491  0.06007  1.0000
  H   H1280     1.0  0.43237  0.10489  0.05367  1.0000
  C   C1053     1.0  0.61099  0.00918  0.04824  1.0000
  C   C1054     1.0  0.60892  0.14219  0.08076  1.0000
  H   H1281     1.0  0.53826  0.04983  0.08778  1.0000
  C   C1055     1.0  0.50771  0.09955  0.07813  1.0000
  H   H1282     1.0  0.38877  0.33786  0.01209  1.0000
  C   C1056     1.0  0.52475  0.11041  0.04982  1.0000
  H   H1283     1.0  0.56926  0.24127  0.01219  1.0000
  C   C1057     1.0  0.63178  0.09713  0.07192  1.0000
  C   C1058     1.0  0.53716  0.08391  0.06871  1.0000
  H   H1284     1.0  0.56300  0.07186  0.18916  1.0000
  H   H1285     1.0  0.61356  0.23280  0.07089  1.0000
  C   C1059     1.0  0.50937  0.11200  0.06239  1.0000
  C   C1060     1.0  0.52155  0.08497  0.08171  1.0000
  Fe  Fe129     1.0  0.58831  0.03459  0.12052  1.0000
  C   C1061     1.0  0.65797  0.21284  0.03997  1.0000
  C   C1062     1.0  0.61442  0.07632  0.07611  1.0000
  N   N77       1.0  0.52024  0.07137  0.09810  1.0000
  H   H1286     1.0  0.39688  0.45415  0.01250  1.0000
  H   H1287     1.0  0.49268  0.07336  0.10317  1.0000
  H   H1288     1.0  0.54358  0.26692  0.04517  1.0000
  S   S272      1.0  0.60392  0.18943  0.00260  1.0000
  C   C1063     1.0  0.52434  0.24323  0.04635  1.0000
  H   H1289     1.0  0.41428  0.47584  0.00906  1.0000
  C   C1064     1.0  0.44721  0.39394  0.02223  1.0000
  H   H1290     1.0  0.53626  0.02725  0.22285  1.0000
  H   H1291     1.0  0.59209  0.00375  0.09131  1.0000
  H   H1292     1.0  0.41595  0.24081  0.99234  1.0000
  H   H1293     1.0  0.63311  0.21759  0.98980  1.0000
  C   C1065     1.0  0.60832  0.03366  0.22142  1.0000
  H   H1294     1.0  0.61741  0.14852  0.08427  1.0000
  H   H1295     1.0  0.61000  0.00331  0.18034  1.0000
  C   C1066     1.0  0.51306  0.22337  0.03779  1.0000
  C   C1067     1.0  0.55259  0.25468  0.05019  1.0000
  H   H1296     1.0  0.49713  0.24282  0.05173  1.0000
  C   C1068     1.0  0.45582  0.36323  0.02223  1.0000
  H   H1297     1.0  0.48195  0.33714  0.04685  1.0000
  H   H1298     1.0  0.36865  0.35355  0.01403  1.0000
  H   H1299     1.0  0.42934  0.37820  0.02491  1.0000
  C   C1069     1.0  0.37349  0.46854  0.02632  1.0000
  H   H1300     1.0  0.44736  0.09132  0.01071  1.0000
  H   H1301     1.0  0.54640  0.06939  0.10033  1.0000
  C   C1070     1.0  0.54311  0.00449  0.14603  1.0000
  H   H1302     1.0  0.42682  0.03431  0.09399  1.0000
  H   H1303     1.0  0.61808  0.24281  0.01560  1.0000
  Fe  Fe130     1.0  0.61771  0.05048  0.11834  1.0000
  S   S273      1.0  0.61752  0.26107  0.04207  1.0000
  H   H1304     1.0  0.52117  0.25400  0.05259  1.0000
  C   C1071     1.0  0.47361  0.36308  0.02019  1.0000
  S   S274      1.0  0.63362  0.04820  0.22434  1.0000
  C   C1072     1.0  0.42803  0.04500  0.08266  1.0000
  S   S275      1.0  0.63033  0.07286  0.10290  1.0000
  H   H1305     1.0  0.65177  0.36736  0.02290  1.0000
  H   H1306     1.0  0.50206  0.06301  0.12177  1.0000
  H   H1307     1.0  0.49898  0.08608  0.11417  1.0000
  H   H1308     1.0  0.54829  0.07328  0.07059  1.0000
  H   H1309     1.0  0.58100  0.23126  0.04796  1.0000
  C   C1073     1.0  0.43136  0.07307  0.05308  1.0000
  H   H1310     1.0  0.52617  0.18495  0.99399  1.0000
  H   H1311     1.0  0.55960  0.13313  0.06320  1.0000
  Fe  Fe131     1.0  0.62295  0.16778  0.99117  1.0000
  S   S276      1.0  0.61595  0.03008  0.10601  1.0000
  H   H1312     1.0  0.52583  0.11996  0.03751  1.0000
  H   H1313     1.0  0.52185  0.04355  0.10595  1.0000
  C   C1074     1.0  0.53867  0.09645  0.05302  1.0000
  C   C1075     1.0  0.58707  0.12473  0.09106  1.0000
  H   H1314     1.0  0.53264  0.06110  0.12011  1.0000
  C   C1076     1.0  0.54394  0.22230  0.03006  1.0000
  C   C1077     1.0  0.60875  0.12181  0.10831  1.0000
  H   H1315     1.0  0.57641  0.14151  0.11692  1.0000
  H   H1316     1.0  0.51640  0.05376  0.08512  1.0000
  H   H1317     1.0  0.44523  0.00345  0.18756  1.0000
  H   H1318     1.0  0.52992  0.08433  0.11164  1.0000
  H   H1319     1.0  0.47075  0.32923  0.03575  1.0000
  N   N78       1.0  0.37423  0.34072  0.99267  1.0000
  H   H1320     1.0  0.57598  0.14774  0.07298  1.0000
  Fe  Fe132     1.0  0.46213  0.13356  0.00018  1.0000
  C   C1078     1.0  0.58559  0.14727  0.10539  1.0000
  H   H1321     1.0  0.60155  0.15263  0.07181  1.0000
  S   S277      1.0  0.59348  0.01403  0.14431  1.0000
  C   C1079     1.0  0.54664  0.03348  0.22296  1.0000
  H   H1322     1.0  0.46325  0.04488  0.22374  1.0000
  H   H1323     1.0  0.59415  0.09860  0.10760  1.0000
  C   C1080     1.0  0.53320  0.17150  0.99657  1.0000
  C   C1081     1.0  0.57397  0.31668  0.99016  1.0000
  H   H1324     1.0  0.61749  0.13261  0.07310  1.0000
  Fe  Fe133     1.0  0.47831  0.30612  0.98941  1.0000
  H   H1325     1.0  0.61512  0.05167  0.17131  1.0000
  S   S278      1.0  0.52734  0.12478  0.99496  1.0000
  H   H1326     1.0  0.61583  0.21228  0.01872  1.0000
  C   C1082     1.0  0.56706  0.10830  0.08015  1.0000
  C   C1083     1.0  0.43749  0.00170  0.20114  1.0000
  C   C1084     1.0  0.62678  0.10591  0.05601  1.0000
  C   C1085     1.0  0.41714  0.09713  0.03175  1.0000
  H   H1327     1.0  0.40752  0.10346  0.04192  1.0000
  Fe  Fe134     1.0  0.59758  0.03529  0.15381  1.0000
  C   C1086     1.0  0.56697  0.12586  0.07316  1.0000
  H   H1328     1.0  0.64051  0.10178  0.07637  1.0000
  C   C1087     1.0  0.62333  0.04985  0.19476  1.0000
  Fe  Fe135     1.0  0.62133  0.01119  0.13069  1.0000
  C   C1088     1.0  0.39094  0.46574  0.01761  1.0000
  H   H1329     1.0  0.49338  0.32067  0.03464  1.0000
  C   C1089     1.0  0.53794  0.05643  0.19935  1.0000
  C   C1090     1.0  0.62535  0.08251  0.08217  1.0000
  C   C1091     1.0  0.57666  0.09889  0.09279  1.0000
  H   H1330     1.0  0.60101  0.11578  0.12089  1.0000
  C   C1092     1.0  0.61561  0.09989  0.05014  1.0000
  C   C1093     1.0  0.60032  0.03720  0.19386  1.0000
  N   N79       1.0  0.55690  0.24193  0.03904  1.0000
  S   S279      1.0  0.58637  0.03441  0.18241  1.0000
  C   C1094     1.0  0.57662  0.13405  0.07867  1.0000
  C   C1095     1.0  0.53281  0.07160  0.10797  1.0000
  H   H1331     1.0  0.63172  0.11722  0.04819  1.0000
  S   S280      1.0  0.62609  0.03103  0.14187  1.0000
  H   H1332     1.0  0.57695  0.08512  0.09800  1.0000
  H   H1333     1.0  0.57602  0.25538  0.02089  1.0000
  H   H1334     1.0  0.42494  0.26371  0.99676  1.0000
  S   S281      1.0  0.61303  0.18345  0.04960  1.0000
  H   H1335     1.0  0.52238  0.07410  0.22547  1.0000
  H   H1336     1.0  0.61671  0.02019  0.04758  1.0000
  H   H1337     1.0  0.61686  0.12874  0.11158  1.0000
  C   C1096     1.0  0.58342  0.07442  0.21858  1.0000
  H   H1338     1.0  0.58168  0.01565  0.07356  1.0000
  S   S282      1.0  0.50021  0.02949  0.22171  1.0000
  C   C1097     1.0  0.53546  0.14099  0.99807  1.0000
  H   H1339     1.0  0.55878  0.02784  0.21439  1.0000
  H   H1340     1.0  0.44141  0.11208  0.03090  1.0000
  C   C1098     1.0  0.53618  0.99622  0.13764  1.0000
  H   H1341     1.0  0.53182  0.20572  0.02322  1.0000
  C   C1099     1.0  0.47762  0.37917  0.01910  1.0000
  H   H1342     1.0  0.38637  0.35882  0.99692  1.0000
  H   H1343     1.0  0.55808  0.12317  0.00633  1.0000
  S   S283      1.0  0.61996  0.27872  0.99252  1.0000
  C   C1100     1.0  0.55604  0.06040  0.21718  1.0000
  C   C1101     1.0  0.48308  0.33291  0.03474  1.0000
  H   H1344     1.0  0.59289  0.15405  0.10998  1.0000
  C   C1102     1.0  0.56463  0.25040  0.02111  1.0000
  H   H1345     1.0  0.41933  0.10780  0.01998  1.0000
  C   C1103     1.0  0.61657  0.23406  0.02829  1.0000
  C   C1104     1.0  0.44286  0.37842  0.02330  1.0000
  H   H1346     1.0  0.54935  0.05083  0.18995  1.0000
  H   H1347     1.0  0.52715  0.05049  0.19970  1.0000
  S   S284      1.0  0.46594  0.19335  0.99646  1.0000
  Fe  Fe136     1.0  0.49781  0.99622  0.14085  1.0000
  Fe  Fe137     1.0  0.58489  0.17269  0.00793  1.0000
  H   H1348     1.0  0.56436  0.25868  0.05057  1.0000
  C   C1105     1.0  0.59794  0.03069  0.21195  1.0000
  H   H1349     1.0  0.63308  0.05737  0.18807  1.0000
  H   H1350     1.0  0.40301  0.07654  0.05776  1.0000
  H   H1351     1.0  0.54661  0.24915  0.06388  1.0000
  C   C1106     1.0  0.40078  0.47793  0.01577  1.0000
  H   H1352     1.0  0.47473  0.33759  0.00428  1.0000
  S   S285      1.0  0.36052  0.45383  0.02915  1.0000
  Fe  Fe138     1.0  0.65030  0.30530  0.99821  1.0000
  H   H1353     1.0  0.46322  0.99962  0.21540  1.0000
  H   H1354     1.0  0.64873  0.34069  0.01632  1.0000
  C   C1107     1.0  0.64165  0.99589  0.18661  1.0000
  H   H1355     1.0  0.45177  0.35160  0.02290  1.0000
  H   H1356     1.0  0.62805  0.01607  0.07249  1.0000
  H   H1357     1.0  0.57771  0.15752  0.09670  1.0000
  H   H1358     1.0  0.61195  0.20252  0.07385  1.0000
  H   H1359     1.0  0.50586  0.35273  0.02909  1.0000
  C   C1108     1.0  0.44305  0.34104  0.99244  1.0000
  C   C1109     1.0  0.53895  0.00035  0.11945  1.0000
  H   H1360     1.0  0.43709  0.40570  0.02298  1.0000
  H   H1361     1.0  0.61793  0.11115  0.10231  1.0000
  H   H1362     1.0  0.57638  0.21792  0.03692  1.0000
  H   H1363     1.0  0.44328  0.27336  0.98900  1.0000
  Fe  Fe139     1.0  0.61063  0.17321  0.02787  1.0000
  H   H1364     1.0  0.51462  0.33595  0.01717  1.0000
  C   C1110     1.0  0.61404  0.22842  0.05944  1.0000
  H   H1365     1.0  0.55665  0.21632  0.02348  1.0000
  H   H1366     1.0  0.56445  0.21919  0.05866  1.0000
  H   H1367     1.0  0.44408  0.23586  0.99310  1.0000
  C   C1111     1.0  0.55796  0.14974  0.00535  1.0000
  H   H1368     1.0  0.47180  0.98719  0.19890  1.0000
  H   H1369     1.0  0.48917  0.35135  0.99134  1.0000
  H   H1370     1.0  0.41322  0.37961  0.99275  1.0000
  C   C1112     1.0  0.52627  0.15837  0.99503  1.0000
  C   C1113     1.0  0.57019  0.22692  0.04590  1.0000
  C   C1114     1.0  0.48715  0.34098  0.00341  1.0000
  C   C1115     1.0  0.54169  0.23585  0.03864  1.0000
  Fe  Fe140     1.0  0.60982  0.13916  0.02080  1.0000
  C   C1116     1.0  0.61384  0.20534  0.04648  1.0000
  C   C1117     1.0  0.61312  0.21126  0.06112  1.0000
  H   H1371     1.0  0.40072  0.05250  0.08298  1.0000
  H   H1372     1.0  0.63641  0.00228  0.21221  1.0000
  H   H1373     1.0  0.41130  0.08836  0.02806  1.0000
  C   C1118     1.0  0.62089  0.04346  0.21287  1.0000
  C   C1119     1.0  0.61533  0.21681  0.03003  1.0000
  C   C1120     1.0  0.61604  0.23982  0.04307  1.0000
  H   H1374     1.0  0.43661  0.01376  0.20532  1.0000
  H   H1375     1.0  0.42407  0.00145  0.20095  1.0000
  C   C1121     1.0  0.55121  0.13665  0.00343  1.0000
  S   S286      1.0  0.55825  0.18384  0.00235  1.0000
  C   C1122     1.0  0.61324  0.04653  0.18523  1.0000
  C   C1123     1.0  0.51032  0.23694  0.04596  1.0000
  C   C1124     1.0  0.54917  0.16722  0.00153  1.0000
  C   C1125     1.0  0.52981  0.21614  0.02975  1.0000
  C   C1126     1.0  0.41337  0.05528  0.07642  1.0000
  C   C1127     1.0  0.56537  0.07002  0.20195  1.0000
  H   H1376     1.0  0.41019  0.33889  0.98695  1.0000
  H   H1377     1.0  0.65111  0.99371  0.15944  1.0000
  C   C1128     1.0  0.36530  0.32673  0.00374  1.0000
  H   H1378     1.0  0.32815  0.44329  0.02605  1.0000
  H   H1379     1.0  0.43333  0.99813  0.23444  1.0000
  S   S287      1.0  0.65596  0.27600  0.00444  1.0000
  H   H1380     1.0  0.35012  0.36021  0.99373  1.0000
  H   H1381     1.0  0.51390  0.16173  0.99128  1.0000
  H   H1382     1.0  0.49760  0.32917  0.00163  1.0000
  C   C1129     1.0  0.36593  0.48350  0.03300  1.0000
  H   H1383     1.0  0.62057  0.00093  0.03961  1.0000
  H   H1384     1.0  0.65616  0.18283  0.02010  1.0000
  H   H1385     1.0  0.51443  0.05507  0.22795  1.0000
  H   H1386     1.0  0.53320  0.99431  0.11296  1.0000
  C   C1130     1.0  0.56098  0.05826  0.23311  1.0000
  C   C1131     1.0  0.52570  0.05961  0.22871  1.0000
  C   C1132     1.0  0.61739  0.98984  0.17964  1.0000
  S   S288      1.0  0.37458  0.39777  0.98907  1.0000
  H   H1387     1.0  0.35249  0.48577  0.03972  1.0000
  Fe  Fe141     1.0  0.61636  0.30762  0.98787  1.0000
  C   C1133     1.0  0.65512  0.01518  0.19416  1.0000
  H   H1388     1.0  0.62373  0.99006  0.16578  1.0000
  N   N80       1.0  0.60685  0.99885  0.06631  1.0000
  H   H1389     1.0  0.53187  0.32030  0.98883  1.0000
  H   H1390     1.0  0.65473  0.18650  0.04876  1.0000
  H   H1391     1.0  0.55014  0.22600  0.98826  1.0000
  C   C1134     1.0  0.65763  0.19522  0.02088  1.0000
  C   C1135     1.0  0.65685  0.19711  0.03755  1.0000
  C   C1136     1.0  0.43444  0.35826  0.98657  1.0000
  C   C1137     1.0  0.46340  0.98726  0.21214  1.0000
  H   H1392     1.0  0.64595  0.37031  0.98647  1.0000
  C   C1138     1.0  0.62310  0.99115  0.07291  1.0000
  H   H1393     1.0  0.58527  0.99177  0.06172  1.0000
  H   H1394     1.0  0.60622  0.02885  0.23539  1.0000
  Fe  Fe142     1.0  0.49899  0.04874  0.27417  1.0000
  S   S289      1.0  0.62209  0.01123  0.26608  1.0000
  S   S290      1.0  0.51647  0.06502  0.27500  1.0000
  Fe  Fe143     1.0  0.46144  0.04836  0.27810  1.0000
  C   C1139     1.0  0.40598  0.00490  0.44030  1.0000
  S   S291      1.0  0.43317  0.06123  0.28546  1.0000
  Fe  Fe144     1.0  0.48742  0.01467  0.28587  1.0000
  Fe  Fe145     1.0  0.33587  0.05651  0.38615  1.0000
  Fe  Fe146     1.0  0.48918  0.03464  0.24859  1.0000
  S   S292      1.0  0.47926  0.03846  0.29688  1.0000
  S   S293      1.0  0.48062  0.06056  0.25592  1.0000
  C   C1140     1.0  0.41344  0.00905  0.45159  1.0000
  H   H1395     1.0  0.54934  0.01441  0.31036  1.0000
  H   H1396     1.0  0.36294  0.00376  0.47271  1.0000
  S   S294      1.0  0.35444  0.06082  0.39944  1.0000
  H   H1397     1.0  0.64488  0.08796  0.30604  1.0000
  Fe  Fe147     1.0  0.37478  0.05396  0.37605  1.0000
  S   S295      1.0  0.39831  0.06545  0.36373  1.0000
  H   H1398     1.0  0.33708  0.07253  0.45089  1.0000
  H   H1399     1.0  0.54874  0.02944  0.23651  1.0000
  S   S296      1.0  0.35579  0.05230  0.36169  1.0000
  H   H1400     1.0  0.41133  0.02735  0.47563  1.0000
  N   N81       1.0  0.42723  0.00105  0.47756  1.0000
  S   S297      1.0  0.65783  0.04958  0.29564  1.0000
  H   H1401     1.0  0.52313  0.03132  0.29848  1.0000
  Fe  Fe148     1.0  0.64549  0.00249  0.27800  1.0000
  C   C1141     1.0  0.56498  0.03283  0.29558  1.0000
  C   C1142     1.0  0.32901  0.06684  0.44603  1.0000
  C   C1143     1.0  0.37062  0.04210  0.44604  1.0000
  H   H1402     1.0  0.49107  0.99122  0.26619  1.0000
  H   H1403     1.0  0.40119  0.01495  0.42976  1.0000
  H   H1404     1.0  0.37087  0.04940  0.43274  1.0000
  C   C1144     1.0  0.37445  0.04906  0.45806  1.0000
  C   C1145     1.0  0.42366  0.06048  0.30768  1.0000
  C   C1146     1.0  0.40551  0.06456  0.31297  1.0000
  C   C1147     1.0  0.39762  0.06522  0.33040  1.0000
  C   C1148     1.0  0.40786  0.06225  0.34251  1.0000
  C   C1149     1.0  0.42600  0.05782  0.33731  1.0000
  C   C1150     1.0  0.43385  0.05663  0.32001  1.0000
  H   H1405     1.0  0.39752  0.06756  0.30350  1.0000
  H   H1406     1.0  0.38362  0.06885  0.33426  1.0000
  C   C1151     1.0  0.65234  0.08760  0.32943  1.0000
  Fe  Fe149     1.0  0.36071  0.02421  0.37564  1.0000
  C   C1152     1.0  0.53505  0.05257  0.28302  1.0000
  C   C1153     1.0  0.55017  0.05906  0.27807  1.0000
  C   C1154     1.0  0.54966  0.02666  0.30099  1.0000
  H   H1407     1.0  0.55030  0.07176  0.26945  1.0000
  C   C1155     1.0  0.56526  0.04903  0.28402  1.0000
  C   C1156     1.0  0.36622  0.01639  0.46852  1.0000
  S   S298      1.0  0.46803  0.02370  0.26877  1.0000
  S   S299      1.0  0.36513  0.00195  0.36316  1.0000
  H   H1408     1.0  0.54457  0.98857  0.27666  1.0000
  Fe  Fe150     1.0  0.64201  0.03719  0.28587  1.0000
  H   H1409     1.0  0.41426  0.02246  0.44922  1.0000
  H   H1410     1.0  0.45251  0.99731  0.46065  1.0000
  Fe  Fe151     1.0  0.35912  0.03201  0.41016  1.0000
  H   H1411     1.0  0.55460  0.05099  0.24520  1.0000
  H   H1412     1.0  0.41458  0.02610  0.33010  1.0000
  H   H1413     1.0  0.33951  0.99068  0.45164  1.0000
  C   C1157     1.0  0.65317  0.03266  0.33037  1.0000
  S   S300      1.0  0.61802  0.04975  0.27455  1.0000
  C   C1158     1.0  0.36603  0.02592  0.45147  1.0000
  N   N82       1.0  0.46574  0.09251  0.30323  1.0000
  C   C1159     1.0  0.46654  0.08853  0.28638  1.0000
  C   C1160     1.0  0.47381  0.10757  0.29934  1.0000
  C   C1161     1.0  0.47636  0.07711  0.31324  1.0000
  C   C1162     1.0  0.44779  0.09665  0.31357  1.0000
  C   C1163     1.0  0.44487  0.09864  0.33090  1.0000
  C   C1164     1.0  0.43281  0.09896  0.30689  1.0000
  C   C1165     1.0  0.42809  0.10180  0.34117  1.0000
  C   C1166     1.0  0.41609  0.10231  0.31724  1.0000
  C   C1167     1.0  0.41374  0.10350  0.33439  1.0000
  H   H1414     1.0  0.46008  0.09996  0.27747  1.0000
  H   H1415     1.0  0.48019  0.08479  0.27919  1.0000
  H   H1416     1.0  0.46032  0.07748  0.28844  1.0000
  H   H1417     1.0  0.46619  0.11944  0.29189  1.0000
  H   H1418     1.0  0.48733  0.10496  0.29144  1.0000
  H   H1419     1.0  0.47459  0.11073  0.31140  1.0000
  H   H1420     1.0  0.48939  0.07258  0.30519  1.0000
  H   H1421     1.0  0.47895  0.07981  0.32471  1.0000
  H   H1422     1.0  0.46979  0.06600  0.31803  1.0000
  H   H1423     1.0  0.45554  0.09749  0.33675  1.0000
  H   H1424     1.0  0.43358  0.09760  0.29394  1.0000
  H   H1425     1.0  0.42614  0.10257  0.35461  1.0000
  H   H1426     1.0  0.40489  0.10326  0.31215  1.0000
  H   H1427     1.0  0.40079  0.10529  0.34259  1.0000
  H   H1428     1.0  0.43396  0.05560  0.34662  1.0000
  H   H1429     1.0  0.37757  0.06176  0.45399  1.0000
  H   H1430     1.0  0.64951  0.02070  0.35783  1.0000
  Fe  Fe152     1.0  0.63197  0.03558  0.25299  1.0000
  S   S301      1.0  0.35908  0.01741  0.43786  1.0000
  H   H1431     1.0  0.33810  0.05658  0.43944  1.0000
  H   H1432     1.0  0.39707  0.98753  0.34234  1.0000
  Fe  Fe153     1.0  0.60961  0.02459  0.28833  1.0000
  H   H1433     1.0  0.39699  0.01647  0.33223  1.0000
  S   S302      1.0  0.63223  0.01344  0.30158  1.0000
  S   S303      1.0  0.58331  0.02016  0.30389  1.0000
  H   H1434     1.0  0.36295  0.99500  0.40015  1.0000
  H   H1435     1.0  0.40322  0.01861  0.30017  1.0000
  H   H1436     1.0  0.56432  0.99276  0.29006  1.0000
  C   C1168     1.0  0.44005  0.00272  0.31619  1.0000
  H   H1437     1.0  0.44777  0.05347  0.31612  1.0000
  S   S304      1.0  0.38109  0.02544  0.38820  1.0000
  H   H1438     1.0  0.44324  0.01519  0.31572  1.0000
  H   H1439     1.0  0.63986  0.03385  0.32980  1.0000
  C   C1169     1.0  0.37400  0.03972  0.47538  1.0000
  S   S305      1.0  0.50914  0.02375  0.26518  1.0000
  C   C1170     1.0  0.41126  0.01346  0.33151  1.0000
  H   H1440     1.0  0.41395  0.00516  0.34425  1.0000
  C   C1171     1.0  0.41705  0.01705  0.30050  1.0000
  S   S306      1.0  0.33908  0.02818  0.39869  1.0000
  C   C1172     1.0  0.53484  0.03628  0.29439  1.0000
  H   H1441     1.0  0.57697  0.05398  0.28004  1.0000
  H   H1442     1.0  0.65529  0.99485  0.33440  1.0000
  N   N83       1.0  0.42130  0.00497  0.31683  1.0000
  H   H1443     1.0  0.42530  0.01250  0.28868  1.0000
  H   H1444     1.0  0.33187  0.03446  0.46887  1.0000
  H   H1445     1.0  0.41910  0.03024  0.29915  1.0000
  H   H1446     1.0  0.63904  0.09101  0.33647  1.0000
  S   S307      1.0  0.65670  0.02544  0.26294  1.0000
  C   C1173     1.0  0.37036  0.02318  0.48030  1.0000
  C   C1174     1.0  0.41933  0.99628  0.46582  1.0000
  H   H1447     1.0  0.44858  0.99817  0.30447  1.0000
  H   H1448     1.0  0.44405  0.99300  0.32779  1.0000
  C   C1175     1.0  0.44310  0.00734  0.46737  1.0000
  H   H1449     1.0  0.57844  0.06285  0.24593  1.0000
  H   H1450     1.0  0.52679  0.05532  0.24257  1.0000
  H   H1451     1.0  0.44975  0.01054  0.47583  1.0000
  H   H1452     1.0  0.33444  0.05165  0.47688  1.0000
  C   C1176     1.0  0.65557  0.08607  0.31226  1.0000
  H   H1453     1.0  0.44015  0.01939  0.45721  1.0000
  H   H1454     1.0  0.53608  0.99528  0.30491  1.0000
  C   C1177     1.0  0.40396  0.98803  0.44293  1.0000
  S   S308      1.0  0.48991  0.98775  0.30251  1.0000
  H   H1455     1.0  0.65149  0.99714  0.45113  1.0000
  C   C1178     1.0  0.41746  0.98794  0.31838  1.0000
  H   H1456     1.0  0.59497  0.98769  0.29020  1.0000
  C   C1179     1.0  0.41480  0.01519  0.48546  1.0000
  Fe  Fe154     1.0  0.50120  0.03340  0.62415  1.0000
  S   S309      1.0  0.47587  0.05216  0.62073  1.0000
  S   S310      1.0  0.52586  0.04327  0.61649  1.0000
  H   H1457     1.0  0.35795  0.99853  0.62176  1.0000
  S   S311      1.0  0.45821  0.01817  0.63364  1.0000
  H   H1458     1.0  0.65330  0.02751  0.57308  1.0000
  Fe  Fe155     1.0  0.47130  0.03307  0.60840  1.0000
  S   S312      1.0  0.46312  0.03972  0.58249  1.0000
  Fe  Fe156     1.0  0.46502  0.03565  0.64627  1.0000
  S   S313      1.0  0.44471  0.04887  0.66597  1.0000
  S   S314      1.0  0.49779  0.01568  0.60958  1.0000
  S   S315      1.0  0.49066  0.01826  0.65064  1.0000
  Fe  Fe157     1.0  0.60086  0.02817  0.65875  1.0000
  S   S316      1.0  0.61929  0.00858  0.67403  1.0000
  S   S317      1.0  0.57276  0.02801  0.67108  1.0000
  Fe  Fe158     1.0  0.63034  0.03972  0.63006  1.0000
  H   H1459     1.0  0.40308  0.00104  0.60796  1.0000
  S   S318      1.0  0.63483  0.05891  0.60439  1.0000
  Fe  Fe159     1.0  0.63429  0.00223  0.64871  1.0000
  H   H1460     1.0  0.36858  0.00758  0.59984  1.0000
  Fe  Fe160     1.0  0.63462  0.02894  0.66731  1.0000
  H   H1461     1.0  0.63955  0.03320  0.72437  1.0000
  S   S319      1.0  0.61459  0.02010  0.63367  1.0000
  S   S320      1.0  0.61476  0.04950  0.65416  1.0000
  H   H1462     1.0  0.45766  0.08093  0.67261  1.0000
  H   H1463     1.0  0.37078  0.01544  0.49312  1.0000
  H   H1464     1.0  0.45291  0.00398  0.59430  1.0000
  H   H1465     1.0  0.40246  0.01118  0.49284  1.0000
  C   C1180     1.0  0.46378  0.99236  0.59577  1.0000
  C   C1181     1.0  0.64854  0.05819  0.55200  1.0000
  C   C1182     1.0  0.44218  0.03893  0.58123  1.0000
  H   H1466     1.0  0.54896  0.01496  0.59118  1.0000
  H   H1467     1.0  0.53648  0.99190  0.65797  1.0000
  H   H1468     1.0  0.59027  0.98950  0.68425  1.0000
  H   H1469     1.0  0.56305  0.98727  0.58077  1.0000
  C   C1183     1.0  0.47853  0.00020  0.56589  1.0000
  H   H1470     1.0  0.59599  0.99749  0.59535  1.0000
  H   H1471     1.0  0.62574  0.12139  0.72692  1.0000
  S   S321      1.0  0.60818  0.09365  0.72313  1.0000
  S   S322      1.0  0.37804  0.04887  0.49059  1.0000
  H   H1472     1.0  0.46770  0.00199  0.73381  1.0000
  H   H1473     1.0  0.42011  0.01891  0.49465  1.0000
  H   H1474     1.0  0.40288  0.03280  0.60642  1.0000
  H   H1475     1.0  0.56028  0.02930  0.72444  1.0000
  C   C1184     1.0  0.56139  0.04219  0.71573  1.0000
  C   C1185     1.0  0.57754  0.09538  0.69940  1.0000
  S   S323      1.0  0.38911  0.03359  0.57767  1.0000
  C   C1186     1.0  0.44251  0.04317  0.72373  1.0000
  H   H1476     1.0  0.64181  0.05807  0.56585  1.0000
  H   H1477     1.0  0.49800  0.05770  0.64376  1.0000
  C   C1187     1.0  0.48730  0.09065  0.64801  1.0000
  C   C1188     1.0  0.57760  0.07887  0.71040  1.0000
  C   C1189     1.0  0.49102  0.07412  0.69297  1.0000
  S   S324      1.0  0.35935  0.04497  0.54239  1.0000
  H   H1478     1.0  0.57910  0.08597  0.66117  1.0000
  H   H1479     1.0  0.49435  0.04742  0.66660  1.0000
  C   C1190     1.0  0.48101  0.07513  0.70968  1.0000
  H   H1480     1.0  0.65151  0.08615  0.58350  1.0000
  H   H1481     1.0  0.47655  0.06082  0.65691  1.0000
  S   S325      1.0  0.64560  0.02886  0.68959  1.0000
  H   H1482     1.0  0.51528  0.08367  0.66189  1.0000
  N   N84       1.0  0.64959  0.04171  0.54724  1.0000
  C   C1191     1.0  0.57835  0.06752  0.68590  1.0000
  Fe  Fe161     1.0  0.48498  0.00218  0.63575  1.0000
  C   C1192     1.0  0.45480  0.08091  0.69918  1.0000
  H   H1483     1.0  0.49527  0.09020  0.63464  1.0000
  S   S326      1.0  0.39793  0.01990  0.53074  1.0000
  H   H1484     1.0  0.57846  0.11068  0.67320  1.0000
  H   H1485     1.0  0.65311  0.13506  0.73514  1.0000
  H   H1486     1.0  0.42506  0.99980  0.55062  1.0000
  C   C1193     1.0  0.51222  0.07254  0.65902  1.0000
  S   S327      1.0  0.36997  0.00493  0.56499  1.0000
  H   H1487     1.0  0.62446  0.04024  0.56406  1.0000
  C   C1194     1.0  0.42763  0.04967  0.71671  1.0000
  H   H1488     1.0  0.48810  0.10262  0.65129  1.0000
  C   C1195     1.0  0.46296  0.07847  0.71278  1.0000
  S   S328      1.0  0.36214  0.01115  0.52682  1.0000
  C   C1196     1.0  0.55676  0.98744  0.61623  1.0000
  H   H1489     1.0  0.51781  0.06022  0.66763  1.0000
  H   H1490     1.0  0.43782  0.99045  0.50085  1.0000
  C   C1197     1.0  0.63578  0.04712  0.69860  1.0000
  C   C1198     1.0  0.63423  0.04553  0.71641  1.0000
  C   C1199     1.0  0.62556  0.05978  0.72402  1.0000
  C   C1200     1.0  0.61893  0.07577  0.71372  1.0000
  C   C1201     1.0  0.62089  0.07750  0.69582  1.0000
  C   C1202     1.0  0.62904  0.06308  0.68831  1.0000
  H   H1491     1.0  0.57042  0.01927  0.58247  1.0000
  H   H1492     1.0  0.64294  0.99483  0.61481  1.0000
  H   H1493     1.0  0.61589  0.08990  0.68779  1.0000
  H   H1494     1.0  0.63036  0.06441  0.67451  1.0000
  C   C1203     1.0  0.43879  0.04035  0.56489  1.0000
  H   H1495     1.0  0.56037  0.04160  0.70265  1.0000
  C   C1204     1.0  0.49040  0.05955  0.65691  1.0000
  H   H1496     1.0  0.60516  0.03734  0.70636  1.0000
  C   C1205     1.0  0.55194  0.99362  0.63180  1.0000
  H   H1497     1.0  0.41518  0.05390  0.72493  1.0000
  N   N85       1.0  0.49320  0.07483  0.66107  1.0000
  N   N86       1.0  0.56940  0.99479  0.60114  1.0000
  C   C1206     1.0  0.57853  0.08402  0.67497  1.0000
  H   H1498     1.0  0.44126  0.01105  0.72048  1.0000
  H   H1499     1.0  0.43157  0.03512  0.60882  1.0000
  C   C1207     1.0  0.53853  0.03908  0.63199  1.0000
  C   C1208     1.0  0.53310  0.03084  0.64936  1.0000
  C   C1209     1.0  0.54363  0.02756  0.66137  1.0000
  C   C1210     1.0  0.55973  0.03225  0.65595  1.0000
  C   C1211     1.0  0.56525  0.04032  0.63856  1.0000
  C   C1212     1.0  0.55457  0.04389  0.62666  1.0000
  H   H1500     1.0  0.52086  0.02692  0.65355  1.0000
  H   H1501     1.0  0.53934  0.02127  0.67483  1.0000
  H   H1502     1.0  0.57760  0.04414  0.63433  1.0000
  H   H1503     1.0  0.55880  0.05037  0.61325  1.0000
  C   C1213     1.0  0.44456  0.04544  0.68824  1.0000
  C   C1214     1.0  0.45955  0.03834  0.69525  1.0000
  C   C1215     1.0  0.45859  0.03755  0.71298  1.0000
  C   C1216     1.0  0.43690  0.99942  0.72947  1.0000
  H   H1504     1.0  0.59189  0.03229  0.69527  1.0000
  C   C1217     1.0  0.42871  0.05107  0.69906  1.0000
  H   H1505     1.0  0.47183  0.03386  0.68699  1.0000
  H   H1506     1.0  0.47015  0.03249  0.71832  1.0000
  H   H1507     1.0  0.59347  0.02044  0.71684  1.0000
  H   H1508     1.0  0.41710  0.05657  0.69377  1.0000
  C   C1218     1.0  0.42269  0.03850  0.56354  1.0000
  H   H1509     1.0  0.44076  0.08303  0.70175  1.0000
  H   H1510     1.0  0.58448  0.99097  0.57573  1.0000
  C   C1219     1.0  0.42918  0.03608  0.59619  1.0000
  H   H1511     1.0  0.48293  0.99688  0.55288  1.0000
  C   C1220     1.0  0.57813  0.09793  0.68171  1.0000
  H   H1512     1.0  0.59884  0.98798  0.65455  1.0000
  C   C1221     1.0  0.56176  0.01336  0.59438  1.0000
  N   N87       1.0  0.57776  0.04675  0.71522  1.0000
  H   H1513     1.0  0.44871  0.04276  0.55323  1.0000
  Fe  Fe162     1.0  0.37460  0.03399  0.51884  1.0000
  Fe  Fe163     1.0  0.38163  0.02845  0.55514  1.0000
  C   C1222     1.0  0.40970  0.03568  0.57853  1.0000
  H   H1514     1.0  0.42021  0.03958  0.55093  1.0000
  C   C1223     1.0  0.46465  0.07976  0.68248  1.0000
  H   H1515     1.0  0.50492  0.07134  0.69162  1.0000
  C   C1224     1.0  0.41297  0.03466  0.59480  1.0000
  C   C1225     1.0  0.44662  0.99418  0.56305  1.0000
  C   C1226     1.0  0.57873  0.04534  0.73345  1.0000
  C   C1227     1.0  0.48308  0.07640  0.67880  1.0000
  H   H1516     1.0  0.51940  0.07163  0.64547  1.0000
  H   H1517     1.0  0.55711  0.00393  0.63275  1.0000
  C   C1228     1.0  0.40097  0.99033  0.60352  1.0000
  H   H1518     1.0  0.48730  0.07310  0.72037  1.0000
  C   C1229     1.0  0.59265  0.03368  0.70811  1.0000
  H   H1519     1.0  0.57757  0.10613  0.70461  1.0000
  H   H1520     1.0  0.58369  0.00209  0.61569  1.0000
  H   H1521     1.0  0.47367  0.09216  0.64707  1.0000
  Fe  Fe164     1.0  0.34883  0.02078  0.55099  1.0000
  S   S329      1.0  0.65139  0.02091  0.64294  1.0000
  H   H1522     1.0  0.45526  0.07876  0.72584  1.0000
  H   H1523     1.0  0.55934  0.02134  0.60406  1.0000
  C   C1230     1.0  0.57811  0.06435  0.70393  1.0000
  H   H1524     1.0  0.57845  0.05722  0.68008  1.0000
  H   H1525     1.0  0.46920  0.01301  0.56479  1.0000
  H   H1526     1.0  0.65756  0.08378  0.69267  1.0000
  H   H1527     1.0  0.64108  0.06966  0.54399  1.0000
  H   H1528     1.0  0.62417  0.04965  0.54137  1.0000
  H   H1529     1.0  0.54991  0.05205  0.72043  1.0000
  C   C1231     1.0  0.58558  0.99355  0.60664  1.0000
  C   C1232     1.0  0.63160  0.03943  0.55049  1.0000
  H   H1530     1.0  0.37374  0.01098  0.61812  1.0000
  C   C1233     1.0  0.37052  0.00111  0.61330  1.0000
  Fe  Fe165     1.0  0.38446  0.99778  0.53982  1.0000
  H   H1531     1.0  0.40085  0.99515  0.58938  1.0000
  H   H1532     1.0  0.63383  0.99075  0.58998  1.0000
  H   H1533     1.0  0.48976  0.00263  0.56927  1.0000
  H   H1534     1.0  0.65471  0.99255  0.68754  1.0000
  H   H1535     1.0  0.38671  0.98759  0.50735  1.0000
  H   H1536     1.0  0.56789  0.99259  0.68407  1.0000
  C   C1234     1.0  0.65636  0.05826  0.59256  1.0000
  H   H1537     1.0  0.57757  0.07783  0.72385  1.0000
  H   H1538     1.0  0.64706  0.10863  0.70641  1.0000
  H   H1539     1.0  0.63133  0.02653  0.54886  1.0000
  C   C1235     1.0  0.32638  0.00047  0.51119  1.0000
  H   H1540     1.0  0.42865  0.99530  0.72335  1.0000
  C   C1236     1.0  0.65295  0.09631  0.71391  1.0000
  C   C1237     1.0  0.65396  0.09446  0.73140  1.0000
  H   H1541     1.0  0.64771  0.99215  0.71549  1.0000
  H   H1542     1.0  0.44869  0.00714  0.55723  1.0000
  H   H1543     1.0  0.65419  0.12877  0.71571  1.0000
  H   H1544     1.0  0.57680  0.99073  0.65298  1.0000
  C   C1238     1.0  0.43288  0.99014  0.55915  1.0000
  H   H1545     1.0  0.45095  0.99758  0.69803  1.0000
  H   H1546     1.0  0.54386  0.07919  0.73199  1.0000
  H   H1547     1.0  0.47372  0.99592  0.60020  1.0000
  H   H1548     1.0  0.65613  0.01505  0.53080  1.0000
  H   H1549     1.0  0.32674  0.00711  0.52075  1.0000
  C   C1239     1.0  0.65699  0.12366  0.72899  1.0000
  C   C1240     1.0  0.65835  0.04137  0.52887  1.0000
  H   H1550     1.0  0.59079  0.04877  0.73385  1.0000
  C   C1241     1.0  0.54003  0.98694  0.64624  1.0000
  H   H1551     1.0  0.54083  0.11142  0.95483  1.0000
  Fe  Fe166     1.0  0.46872  0.04704  0.79075  1.0000
  S   S330      1.0  0.49690  0.03393  0.78419  1.0000
  S   S331      1.0  0.45627  0.05856  0.81457  1.0000
  C   C1242     1.0  0.58134  0.23597  0.90314  1.0000
  H   H1552     1.0  0.64130  0.30304  0.92172  1.0000
  Fe  Fe167     1.0  0.48747  0.01349  0.77824  1.0000
  H   H1553     1.0  0.53744  0.01373  0.74405  1.0000
  H   H1554     1.0  0.62406  0.17515  0.90944  1.0000
  S   S332      1.0  0.45939  0.02530  0.78711  1.0000
  C   C1243     1.0  0.47274  0.13063  0.82389  1.0000
  H   H1555     1.0  0.42215  0.47683  0.94378  1.0000
  N   N88       1.0  0.54853  0.99614  0.76552  1.0000
  S   S333      1.0  0.33181  0.41086  0.91382  1.0000
  Fe  Fe168     1.0  0.35817  0.38084  0.88225  1.0000
  S   S334      1.0  0.34156  0.37118  0.90813  1.0000
  S   S335      1.0  0.37648  0.36241  0.86593  1.0000
  C   C1244     1.0  0.58786  0.24765  0.95944  1.0000
  C   C1245     1.0  0.48142  0.11639  0.76700  1.0000
  Fe  Fe169     1.0  0.35346  0.38727  0.91747  1.0000
  S   S336      1.0  0.36663  0.37460  0.94000  1.0000
  S   S337      1.0  0.33717  0.40404  0.87435  1.0000
  S   S338      1.0  0.37068  0.39615  0.89194  1.0000
  Fe  Fe170     1.0  0.60338  0.15815  0.86314  1.0000
  S   S339      1.0  0.57953  0.16517  0.88311  1.0000
  Fe  Fe171     1.0  0.60821  0.19515  0.85183  1.0000
  S   S340      1.0  0.58437  0.20541  0.87034  1.0000
  S   S341      1.0  0.62597  0.21194  0.83345  1.0000
  Fe  Fe172     1.0  0.59352  0.18133  0.88960  1.0000
  S   S342      1.0  0.58604  0.18412  0.91738  1.0000
  Fe  Fe173     1.0  0.57191  0.18868  0.86259  1.0000
  S   S343      1.0  0.54436  0.19725  0.85878  1.0000
  S   S344      1.0  0.61857  0.17203  0.87178  1.0000
  S   S345      1.0  0.59484  0.18065  0.84192  1.0000
  C   C1246     1.0  0.46660  0.32948  0.90126  1.0000
  Fe  Fe174     1.0  0.38742  0.42035  0.98099  1.0000
  C   C1247     1.0  0.65349  0.38555  0.95338  1.0000
  Fe  Fe175     1.0  0.46115  0.03969  0.75914  1.0000
  H   H1556     1.0  0.51568  0.18821  0.96515  1.0000
  C   C1248     1.0  0.62883  0.11660  0.74010  1.0000
  H   H1557     1.0  0.48288  0.32162  0.91999  1.0000
  H   H1558     1.0  0.35142  0.45093  0.93342  1.0000
  H   H1559     1.0  0.58180  0.27871  0.98078  1.0000
  Fe  Fe176     1.0  0.57888  0.30428  0.89029  1.0000
  S   S346      1.0  0.55136  0.30559  0.90554  1.0000
  S   S347      1.0  0.59353  0.27999  0.88113  1.0000
  Fe  Fe177     1.0  0.44263  0.28042  0.89882  1.0000
  S   S348      1.0  0.44496  0.25177  0.90224  1.0000
  S   S349      1.0  0.41820  0.29675  0.91187  1.0000
  Fe  Fe178     1.0  0.48076  0.27856  0.88095  1.0000
  S   S350      1.0  0.48646  0.24974  0.88297  1.0000
  S   S351      1.0  0.50121  0.29367  0.86565  1.0000
  Fe  Fe179     1.0  0.46114  0.25518  0.87501  1.0000
  S   S352      1.0  0.45851  0.24620  0.85256  1.0000
  Fe  Fe180     1.0  0.46998  0.24884  0.90986  1.0000
  S   S353      1.0  0.47724  0.22928  0.93350  1.0000
  S   S354      1.0  0.45656  0.28425  0.87083  1.0000
  S   S355      1.0  0.46650  0.27720  0.90869  1.0000
  Fe  Fe181     1.0  0.48672  0.10725  0.86593  1.0000
  S   S356      1.0  0.48757  0.10239  0.89419  1.0000
  S   S357      1.0  0.49947  0.08766  0.84892  1.0000
  Fe  Fe182     1.0  0.47310  0.14652  0.86276  1.0000
  S   S358      1.0  0.47258  0.14527  0.89051  1.0000
  S   S359      1.0  0.46650  0.17052  0.84221  1.0000
  Fe  Fe183     1.0  0.49816  0.12640  0.88618  1.0000
  S   S360      1.0  0.51938  0.12840  0.89716  1.0000
  Fe  Fe184     1.0  0.46187  0.12159  0.89630  1.0000
  S   S361      1.0  0.43929  0.11815  0.91859  1.0000
  S   S362      1.0  0.49974  0.12973  0.85777  1.0000
  S   S363      1.0  0.45988  0.12437  0.86873  1.0000
  H   H1560     1.0  0.65105  0.99128  0.74429  1.0000
  C   C1249     1.0  0.51501  0.08493  0.77703  1.0000
  H   H1561     1.0  0.43247  0.26810  0.93878  1.0000
  Fe  Fe185     1.0  0.60651  0.29752  0.85818  1.0000
  C   C1250     1.0  0.44088  0.12078  0.93862  1.0000
  C   C1251     1.0  0.42652  0.11966  0.95245  1.0000
  C   C1252     1.0  0.57655  0.22180  0.97393  1.0000
  H   H1562     1.0  0.45086  0.09734  0.79736  1.0000
  C   C1253     1.0  0.45636  0.12601  0.95750  1.0000
  C   C1254     1.0  0.45585  0.12404  0.94107  1.0000
  H   H1563     1.0  0.41495  0.11719  0.95060  1.0000
  C   C1255     1.0  0.65048  0.33975  0.86099  1.0000
  H   H1564     1.0  0.46790  0.12837  0.95948  1.0000
  H   H1565     1.0  0.46701  0.12487  0.93039  1.0000
  C   C1256     1.0  0.46103  0.22466  0.85091  1.0000
  C   C1257     1.0  0.45612  0.22246  0.83677  1.0000
  C   C1258     1.0  0.45795  0.20580  0.83439  1.0000
  C   C1259     1.0  0.46471  0.19105  0.84612  1.0000
  C   C1260     1.0  0.46994  0.19309  0.86026  1.0000
  C   C1261     1.0  0.46818  0.20996  0.86261  1.0000
  H   H1566     1.0  0.45073  0.23374  0.82761  1.0000
  H   H1567     1.0  0.45395  0.20435  0.82343  1.0000
  H   H1568     1.0  0.47552  0.18174  0.86916  1.0000
  H   H1569     1.0  0.47242  0.21160  0.87330  1.0000
  C   C1262     1.0  0.49199  0.23728  0.93925  1.0000
  C   C1263     1.0  0.49344  0.23344  0.95662  1.0000
  C   C1264     1.0  0.50316  0.24203  0.96164  1.0000
  C   C1265     1.0  0.51194  0.25396  0.94913  1.0000
  C   C1266     1.0  0.51133  0.25693  0.93162  1.0000
  C   C1267     1.0  0.50124  0.24876  0.92670  1.0000
  H   H1570     1.0  0.64588  0.21960  0.96794  1.0000
  S   S364      1.0  0.48125  0.15009  0.98544  1.0000
  H   H1571     1.0  0.51810  0.26607  0.92193  1.0000
  H   H1572     1.0  0.50042  0.25162  0.91318  1.0000
  H   H1573     1.0  0.55113  0.30165  0.96478  1.0000
  H   H1574     1.0  0.53112  0.11467  0.83482  1.0000
  H   H1575     1.0  0.46522  0.10021  0.76625  1.0000
  C   C1268     1.0  0.55697  0.13161  0.85296  1.0000
  C   C1269     1.0  0.53707  0.30319  0.89430  1.0000
  C   C1270     1.0  0.52107  0.29919  0.90359  1.0000
  C   C1271     1.0  0.50997  0.29611  0.89497  1.0000
  C   C1272     1.0  0.51460  0.29765  0.87692  1.0000
  C   C1273     1.0  0.53037  0.30217  0.86758  1.0000
  C   C1274     1.0  0.54174  0.30461  0.87628  1.0000
  H   H1576     1.0  0.51745  0.29803  0.91756  1.0000
  H   H1577     1.0  0.49788  0.29258  0.90229  1.0000
  H   H1578     1.0  0.53387  0.30371  0.85358  1.0000
  H   H1579     1.0  0.55401  0.30782  0.86900  1.0000
  H   H1580     1.0  0.65743  0.33019  0.89651  1.0000
  H   H1581     1.0  0.54380  0.99125  0.84748  1.0000
  S   S365      1.0  0.62565  0.25414  0.90867  1.0000
  H   H1582     1.0  0.49102  0.15320  0.78494  1.0000
  C   C1275     1.0  0.54721  0.03380  0.83197  1.0000
  C   C1276     1.0  0.34931  0.44912  0.90832  1.0000
  H   H1583     1.0  0.60640  0.09911  0.85401  1.0000
  H   H1584     1.0  0.60240  0.22143  0.95842  1.0000
  C   C1277     1.0  0.34698  0.45815  0.89158  1.0000
  S   S366      1.0  0.58467  0.10605  0.76613  1.0000
  H   H1585     1.0  0.53457  0.03238  0.76071  1.0000
  H   H1586     1.0  0.48808  0.11712  0.75348  1.0000
  C   C1278     1.0  0.53381  0.18060  0.87131  1.0000
  C   C1279     1.0  0.53803  0.17127  0.88729  1.0000
  C   C1280     1.0  0.53349  0.15527  0.89528  1.0000
  C   C1281     1.0  0.52373  0.14910  0.88784  1.0000
  C   C1282     1.0  0.51780  0.15939  0.87286  1.0000
  C   C1283     1.0  0.52301  0.17510  0.86445  1.0000
  H   H1587     1.0  0.54517  0.17618  0.89331  1.0000
  H   H1588     1.0  0.53752  0.14772  0.90720  1.0000
  H   H1589     1.0  0.50984  0.15499  0.86728  1.0000
  H   H1590     1.0  0.51946  0.18240  0.85219  1.0000
  C   C1284     1.0  0.56119  0.25333  0.83656  1.0000
  C   C1285     1.0  0.60745  0.24193  0.84495  1.0000
  C   C1286     1.0  0.60469  0.25969  0.84463  1.0000
  H   H1591     1.0  0.59976  0.23401  0.85519  1.0000
  H   H1592     1.0  0.59467  0.26530  0.85438  1.0000
  C   C1287     1.0  0.60159  0.18307  0.92881  1.0000
  C   C1288     1.0  0.62516  0.17829  0.94983  1.0000
  C   C1289     1.0  0.60735  0.18375  0.95603  1.0000
  C   C1290     1.0  0.59562  0.18626  0.94556  1.0000
  H   H1593     1.0  0.60254  0.18575  0.96910  1.0000
  H   H1594     1.0  0.58182  0.19009  0.95075  1.0000
  C   C1291     1.0  0.38748  0.34324  0.87829  1.0000
  C   C1292     1.0  0.38206  0.33900  0.89639  1.0000
  C   C1293     1.0  0.39108  0.32417  0.90636  1.0000
  C   C1294     1.0  0.40613  0.31379  0.89842  1.0000
  C   C1295     1.0  0.41157  0.31777  0.88024  1.0000
  C   C1296     1.0  0.40212  0.33241  0.87017  1.0000
  H   H1595     1.0  0.37093  0.34711  0.90284  1.0000
  H   H1596     1.0  0.38654  0.32106  0.92032  1.0000
  H   H1597     1.0  0.42307  0.30973  0.87394  1.0000
  H   H1598     1.0  0.40639  0.33555  0.85613  1.0000
  C   C1297     1.0  0.37985  0.38783  0.94054  1.0000
  C   C1298     1.0  0.39268  0.38120  0.95044  1.0000
  C   C1299     1.0  0.40153  0.39241  0.95275  1.0000
  C   C1300     1.0  0.39746  0.41027  0.94530  1.0000
  C   C1301     1.0  0.38566  0.41661  0.93426  1.0000
  C   C1302     1.0  0.37696  0.40532  0.93181  1.0000
  H   H1599     1.0  0.39526  0.36762  0.95697  1.0000
  C   C1303     1.0  0.50171  0.12380  0.80709  1.0000
  H   H1600     1.0  0.38226  0.43042  0.92866  1.0000
  H   H1601     1.0  0.36719  0.41035  0.92407  1.0000
  S   S367      1.0  0.34715  0.44698  0.87607  1.0000
  H   H1602     1.0  0.52015  0.04327  0.81500  1.0000
  H   H1603     1.0  0.54493  0.22469  0.82673  1.0000
  H   H1604     1.0  0.54056  0.05239  0.77393  1.0000
  H   H1605     1.0  0.62119  0.21705  0.87075  1.0000
  C   C1304     1.0  0.64079  0.36375  0.87547  1.0000
  H   H1606     1.0  0.48623  0.26088  0.82910  1.0000
  H   H1607     1.0  0.44064  0.17645  0.98151  1.0000
  H   H1608     1.0  0.54023  0.04705  0.82779  1.0000
  C   C1305     1.0  0.46808  0.06743  0.82360  1.0000
  C   C1306     1.0  0.45992  0.07420  0.83852  1.0000
  C   C1307     1.0  0.46922  0.08092  0.84620  1.0000
  C   C1308     1.0  0.48681  0.08071  0.83908  1.0000
  C   C1309     1.0  0.49486  0.07421  0.82404  1.0000
  C   C1310     1.0  0.48550  0.06772  0.81624  1.0000
  H   H1609     1.0  0.44638  0.07410  0.84424  1.0000
  H   H1610     1.0  0.46287  0.08587  0.85784  1.0000
  H   H1611     1.0  0.50843  0.07418  0.81843  1.0000
  H   H1612     1.0  0.49175  0.06288  0.80456  1.0000
  H   H1613     1.0  0.36718  0.48200  0.95720  1.0000
  C   C1311     1.0  0.46864  0.10676  0.77419  1.0000
  Fe  Fe186     1.0  0.59894  0.05683  0.78513  1.0000
  S   S368      1.0  0.48867  0.02651  0.74999  1.0000
  H   H1614     1.0  0.54568  0.25739  0.98160  1.0000
  H   H1615     1.0  0.64722  0.18573  0.88469  1.0000
  C   C1312     1.0  0.51265  0.00704  0.84567  1.0000
  C   C1313     1.0  0.39949  0.24747  0.95677  1.0000
  H   H1616     1.0  0.37264  0.32577  0.96714  1.0000
  H   H1617     1.0  0.44862  0.33884  0.88478  1.0000
  C   C1314     1.0  0.61945  0.17797  0.92226  1.0000
  H   H1618     1.0  0.49522  0.26471  0.84481  1.0000
  C   C1315     1.0  0.46506  0.11335  0.80215  1.0000
  H   H1619     1.0  0.53788  0.16097  0.95860  1.0000
  H   H1620     1.0  0.46844  0.15715  0.79568  1.0000
  H   H1621     1.0  0.45874  0.13655  0.82398  1.0000
  H   H1622     1.0  0.45842  0.11131  0.81568  1.0000
  H   H1623     1.0  0.65747  0.23464  0.91895  1.0000
  N   N89       1.0  0.56300  0.24201  0.91173  1.0000
  C   C1316     1.0  0.56048  0.26050  0.91220  1.0000
  C   C1317     1.0  0.55997  0.23195  0.93008  1.0000
  C   C1318     1.0  0.55146  0.23930  0.90213  1.0000
  C   C1319     1.0  0.55117  0.22220  0.90187  1.0000
  C   C1320     1.0  0.54113  0.25324  0.89194  1.0000
  C   C1321     1.0  0.54145  0.21921  0.89190  1.0000
  C   C1322     1.0  0.53145  0.25008  0.88200  1.0000
  C   C1323     1.0  0.53177  0.23311  0.88183  1.0000
  H   H1624     1.0  0.56286  0.26894  0.89894  1.0000
  H   H1625     1.0  0.56968  0.26218  0.91898  1.0000
  H   H1626     1.0  0.54712  0.26578  0.91910  1.0000
  H   H1627     1.0  0.54596  0.23502  0.93647  1.0000
  H   H1628     1.0  0.55896  0.21101  0.90891  1.0000
  H   H1629     1.0  0.54031  0.26672  0.89132  1.0000
  H   H1630     1.0  0.54186  0.20606  0.89146  1.0000
  H   H1631     1.0  0.52382  0.26088  0.87422  1.0000
  H   H1632     1.0  0.52472  0.23067  0.87371  1.0000
  N   N90       1.0  0.52012  0.17788  0.94242  1.0000
  C   C1324     1.0  0.50841  0.18648  0.95634  1.0000
  C   C1325     1.0  0.52912  0.16029  0.95072  1.0000
  C   C1326     1.0  0.53373  0.18796  0.93305  1.0000
  C   C1327     1.0  0.50972  0.17733  0.93045  1.0000
  C   C1328     1.0  0.50382  0.19256  0.91817  1.0000
  C   C1329     1.0  0.50418  0.16209  0.93136  1.0000
  C   C1330     1.0  0.49358  0.19239  0.90713  1.0000
  C   C1331     1.0  0.49378  0.16214  0.92036  1.0000
  C   C1332     1.0  0.48862  0.17720  0.90819  1.0000
  H   H1633     1.0  0.49865  0.17885  0.96454  1.0000
  H   H1634     1.0  0.45895  0.25982  0.94730  1.0000
  H   H1635     1.0  0.58430  0.27769  0.93453  1.0000
  H   H1636     1.0  0.57041  0.29826  0.93752  1.0000
  H   H1637     1.0  0.42477  0.28253  0.97895  1.0000
  H   H1638     1.0  0.53714  0.15286  0.94069  1.0000
  H   H1639     1.0  0.54286  0.18694  0.94134  1.0000
  H   H1640     1.0  0.54163  0.18318  0.92122  1.0000
  H   H1641     1.0  0.52816  0.20215  0.92916  1.0000
  H   H1642     1.0  0.50678  0.20487  0.91709  1.0000
  H   H1643     1.0  0.50779  0.14990  0.94034  1.0000
  H   H1644     1.0  0.48947  0.20413  0.89770  1.0000
  H   H1645     1.0  0.49010  0.15026  0.92091  1.0000
  H   H1646     1.0  0.48088  0.17703  0.89946  1.0000
  H   H1647     1.0  0.57452  0.01108  0.80159  1.0000
  C   C1333     1.0  0.65038  0.10578  0.75757  1.0000
  C   C1334     1.0  0.64497  0.36030  0.91835  1.0000
  C   C1335     1.0  0.56891  0.15346  0.82957  1.0000
  H   H1648     1.0  0.56778  0.12020  0.81364  1.0000
  H   H1649     1.0  0.55208  0.12773  0.86681  1.0000
  C   C1336     1.0  0.61293  0.13750  0.82663  1.0000
  S   S369      1.0  0.60961  0.12974  0.86227  1.0000
  H   H1650     1.0  0.40655  0.36843  0.88418  1.0000
  H   H1651     1.0  0.58883  0.01223  0.83416  1.0000
  H   H1652     1.0  0.58531  0.15386  0.96603  1.0000
  C   C1337     1.0  0.56549  0.12769  0.82331  1.0000
  H   H1653     1.0  0.56141  0.15494  0.85644  1.0000
  C   C1338     1.0  0.44290  0.34910  0.92407  1.0000
  H   H1654     1.0  0.61528  0.37183  0.84236  1.0000
  H   H1655     1.0  0.60690  0.99125  0.79967  1.0000
  H   H1656     1.0  0.49577  0.23041  0.83876  1.0000
  H   H1657     1.0  0.43913  0.36542  0.97359  1.0000
  H   H1658     1.0  0.62374  0.35218  0.91461  1.0000
  H   H1659     1.0  0.64559  0.11752  0.76330  1.0000
  S   S370      1.0  0.61808  0.34285  0.88323  1.0000
  C   C1339     1.0  0.51661  0.03043  0.82076  1.0000
  C   C1340     1.0  0.65208  0.38728  0.82393  1.0000
  C   C1341     1.0  0.62927  0.35501  0.92384  1.0000
  C   C1342     1.0  0.56693  0.00020  0.84155  1.0000
  C   C1343     1.0  0.55789  0.03301  0.78848  1.0000
  C   C1344     1.0  0.63767  0.34923  0.87214  1.0000
  H   H1660     1.0  0.55358  0.09186  0.75092  1.0000
  H   H1661     1.0  0.62333  0.12752  0.74698  1.0000
  C   C1345     1.0  0.62958  0.24529  0.81855  1.0000
  H   H1662     1.0  0.42836  0.00395  0.74126  1.0000
  C   C1346     1.0  0.60830  0.01541  0.78064  1.0000
  C   C1347     1.0  0.36149  0.35498  0.98408  1.0000
  H   H1663     1.0  0.51382  0.04813  0.84525  1.0000
  H   H1664     1.0  0.65070  0.42181  0.85088  1.0000
  S   S371      1.0  0.60506  0.02779  0.79617  1.0000
  N   N91       1.0  0.51981  0.02296  0.83864  1.0000
  C   C1348     1.0  0.56569  0.01544  0.79275  1.0000
  H   H1665     1.0  0.58458  0.22182  0.90333  1.0000
  H   H1666     1.0  0.56113  0.28115  0.93742  1.0000
  H   H1667     1.0  0.64992  0.20315  0.90248  1.0000
  H   H1668     1.0  0.58130  0.11745  0.97949  1.0000
  H   H1669     1.0  0.64103  0.39489  0.95139  1.0000
  H   H1670     1.0  0.61285  0.12540  0.93651  1.0000
  C   C1349     1.0  0.65199  0.36415  0.93015  1.0000
  H   H1671     1.0  0.61318  0.02013  0.73704  1.0000
  H   H1672     1.0  0.36745  0.36615  0.97635  1.0000
  C   C1350     1.0  0.54224  0.10321  0.83563  1.0000
  H   H1673     1.0  0.47681  0.13762  0.83138  1.0000
  C   C1351     1.0  0.64767  0.24455  0.86139  1.0000
  H   H1674     1.0  0.64879  0.22591  0.89482  1.0000
  Fe  Fe187     1.0  0.60019  0.08513  0.75210  1.0000
  C   C1352     1.0  0.63587  0.25604  0.92389  1.0000
  C   C1353     1.0  0.57491  0.01430  0.83551  1.0000
  H   H1675     1.0  0.56073  0.04226  0.79389  1.0000
  H   H1676     1.0  0.65507  0.31069  0.89277  1.0000
  C   C1354     1.0  0.54907  0.00277  0.84281  1.0000
  Fe  Fe188     1.0  0.60167  0.09305  0.78555  1.0000
  H   H1677     1.0  0.50389  0.23947  0.97514  1.0000
  C   C1355     1.0  0.58097  0.12945  0.92641  1.0000
  C   C1356     1.0  0.56227  0.14741  0.84717  1.0000
  H   H1678     1.0  0.61476  0.15000  0.82668  1.0000
  H   H1679     1.0  0.40687  0.38694  0.90164  1.0000
  H   H1680     1.0  0.57318  0.16562  0.82523  1.0000
  H   H1681     1.0  0.46287  0.24447  0.98355  1.0000
  S   S372      1.0  0.51568  0.06207  0.73920  1.0000
  S   S373      1.0  0.61849  0.07310  0.77033  1.0000
  C   C1357     1.0  0.55838  0.25023  0.97646  1.0000
  N   N92       1.0  0.65103  0.36740  0.96002  1.0000
  C   C1358     1.0  0.62083  0.35300  0.94132  1.0000
  C   C1359     1.0  0.48187  0.15080  0.79772  1.0000
  H   H1682     1.0  0.48475  0.15782  0.80608  1.0000
  S   S374      1.0  0.53911  0.09506  0.78684  1.0000
  H   H1683     1.0  0.62152  0.10629  0.74715  1.0000
  H   H1684     1.0  0.55801  0.33170  0.97169  1.0000
  H   H1685     1.0  0.41904  0.38015  0.91814  1.0000
  H   H1686     1.0  0.39207  0.48613  0.98073  1.0000
  C   C1360     1.0  0.56271  0.00357  0.78522  1.0000
  H   H1687     1.0  0.50402  0.24539  0.80730  1.0000
  C   C1361     1.0  0.62032  0.23456  0.83221  1.0000
  H   H1688     1.0  0.53672  0.09136  0.84070  1.0000
  C   C1362     1.0  0.62841  0.26893  0.93350  1.0000
  C   C1363     1.0  0.63661  0.27018  0.94587  1.0000
  H   H1689     1.0  0.63071  0.28001  0.95346  1.0000
  H   H1690     1.0  0.56418  0.21765  0.93118  1.0000
  H   H1691     1.0  0.56727  0.23506  0.93798  1.0000
  H   H1692     1.0  0.61625  0.27782  0.93151  1.0000
  H   H1693     1.0  0.59867  0.25304  0.95106  1.0000
  H   H1694     1.0  0.42685  0.31352  0.94457  1.0000
  H   H1695     1.0  0.41577  0.12067  0.97927  1.0000
  S   S375      1.0  0.59857  0.30338  0.90494  1.0000
  C   C1364     1.0  0.55212  0.11637  0.94688  1.0000
  N   N93       1.0  0.48337  0.13196  0.80588  1.0000
  H   H1696     1.0  0.47416  0.11690  0.83138  1.0000
  C   C1365     1.0  0.41937  0.37869  0.90497  1.0000
  H   H1697     1.0  0.43012  0.38440  0.89570  1.0000
  H   H1698     1.0  0.35123  0.43519  0.91179  1.0000
  C   C1366     1.0  0.60885  0.10488  0.82608  1.0000
  C   C1367     1.0  0.57054  0.14360  0.81766  1.0000
  H   H1699     1.0  0.57695  0.09174  0.83170  1.0000
  H   H1700     1.0  0.54948  0.10258  0.82210  1.0000
  C   C1368     1.0  0.47799  0.12338  0.79520  1.0000
  H   H1701     1.0  0.39448  0.35962  0.91427  1.0000
  H   H1702     1.0  0.40670  0.35464  0.93068  1.0000
  H   H1703     1.0  0.43406  0.35628  0.93344  1.0000
  C   C1369     1.0  0.55126  0.00894  0.77351  1.0000
  C   C1370     1.0  0.55824  0.12132  0.84111  1.0000
  H   H1704     1.0  0.57634  0.14801  0.80405  1.0000
  Fe  Fe189     1.0  0.34790  0.41834  0.88716  1.0000
  C   C1371     1.0  0.47056  0.32931  0.91681  1.0000
  S   S376      1.0  0.58214  0.06713  0.76541  1.0000
  H   H1705     1.0  0.56623  0.07715  0.84935  1.0000
  N   N94       1.0  0.64627  0.21338  0.87601  1.0000
  H   H1706     1.0  0.51988  0.15257  0.96008  1.0000
  C   C1372     1.0  0.46052  0.10521  0.79171  1.0000
  H   H1707     1.0  0.49658  0.13126  0.77133  1.0000
  C   C1373     1.0  0.40747  0.35308  0.91744  1.0000
  N   N95       1.0  0.55328  0.10426  0.84683  1.0000
  C   C1374     1.0  0.56925  0.09028  0.84530  1.0000
  C   C1375     1.0  0.56264  0.12118  0.95472  1.0000
  H   H1708     1.0  0.43642  0.20616  0.97089  1.0000
  H   H1709     1.0  0.59059  0.23810  0.90965  1.0000
  H   H1710     1.0  0.52047  0.25792  0.80086  1.0000
  N   N96       1.0  0.42157  0.36030  0.90428  1.0000
  H   H1711     1.0  0.57787  0.09065  0.85353  1.0000
  H   H1712     1.0  0.58399  0.24305  0.88922  1.0000
  C   C1376     1.0  0.62400  0.38065  0.83858  1.0000
  H   H1713     1.0  0.50608  0.12931  0.81568  1.0000
  H   H1714     1.0  0.40949  0.33894  0.91823  1.0000
  C   C1377     1.0  0.57031  0.12468  0.91868  1.0000
  C   C1378     1.0  0.57754  0.12766  0.94479  1.0000
  H   H1715     1.0  0.51080  0.12559  0.79418  1.0000
  H   H1716     1.0  0.45271  0.99691  0.75403  1.0000
  C   C1379     1.0  0.41940  0.36038  0.88682  1.0000
  C   C1380     1.0  0.43854  0.34979  0.90821  1.0000
  C   C1381     1.0  0.61013  0.12518  0.84228  1.0000
  C   C1382     1.0  0.54348  0.10081  0.86520  1.0000
  H   H1717     1.0  0.51991  0.27615  0.83717  1.0000
  H   H1718     1.0  0.59911  0.10663  0.96504  1.0000
  C   C1383     1.0  0.60893  0.98814  0.77378  1.0000
  H   H1719     1.0  0.59176  0.13455  0.91763  1.0000
  C   C1384     1.0  0.48615  0.12448  0.77734  1.0000
  H   H1720     1.0  0.50350  0.10949  0.81251  1.0000
  H   H1721     1.0  0.42176  0.20820  0.95720  1.0000
  S   S377      1.0  0.58993  0.32222  0.86604  1.0000
  H   H1722     1.0  0.44415  0.20944  0.89462  1.0000
  H   H1723     1.0  0.55159  0.09940  0.87461  1.0000
  H   H1724     1.0  0.53872  0.08857  0.86884  1.0000
  H   H1725     1.0  0.53189  0.11150  0.86746  1.0000
  H   H1726     1.0  0.56866  0.00112  0.74271  1.0000
  C   C1385     1.0  0.63129  0.17571  0.93276  1.0000
  H   H1727     1.0  0.47585  0.32183  0.89241  1.0000
  S   S378      1.0  0.50714  0.30322  0.97971  1.0000
  H   H1728     1.0  0.64508  0.17127  0.92799  1.0000
  N   N97       1.0  0.58815  0.13314  0.95340  1.0000
  C   C1386     1.0  0.59275  0.11936  0.96873  1.0000
  H   H1729     1.0  0.61076  0.03699  0.75867  1.0000
  C   C1387     1.0  0.41081  0.25694  0.94439  1.0000
  C   C1388     1.0  0.43570  0.20542  0.95772  1.0000
  H   H1730     1.0  0.44142  0.21625  0.94857  1.0000
  C   C1389     1.0  0.45084  0.33949  0.89697  1.0000
  H   H1731     1.0  0.41982  0.34708  0.88573  1.0000
  H   H1732     1.0  0.42954  0.36577  0.87620  1.0000
  C   C1390     1.0  0.65166  0.24460  0.92640  1.0000
  H   H1733     1.0  0.50654  0.23226  0.85421  1.0000
  H   H1734     1.0  0.46368  0.26967  0.96165  1.0000
  Fe  Fe190     1.0  0.49508  0.04826  0.75674  1.0000
  C   C1391     1.0  0.43911  0.17460  0.96907  1.0000
  H   H1735     1.0  0.43652  0.16059  0.94596  1.0000
  C   C1392     1.0  0.54334  0.02698  0.76956  1.0000
  H   H1736     1.0  0.56571  0.14703  0.96888  1.0000
  C   C1393     1.0  0.53442  0.00318  0.75559  1.0000
  H   H1737     1.0  0.63903  0.35246  0.98437  1.0000
  C   C1394     1.0  0.34443  0.47632  0.88716  1.0000
  H   H1738     1.0  0.46654  0.18804  0.96409  1.0000
  H   H1739     1.0  0.50264  0.03251  0.82056  1.0000
  C   C1395     1.0  0.49830  0.26288  0.83124  1.0000
  H   H1740     1.0  0.50072  0.27527  0.82207  1.0000
  C   C1396     1.0  0.63044  0.40705  0.84026  1.0000
  C   C1397     1.0  0.57792  0.14915  0.95942  1.0000
  H   H1741     1.0  0.52192  0.00821  0.76404  1.0000
  N   N98       1.0  0.44505  0.18812  0.95383  1.0000
  H   H1742     1.0  0.54992  0.28371  0.98337  1.0000
  C   C1398     1.0  0.61150  0.01389  0.75074  1.0000
  C   C1399     1.0  0.45871  0.33905  0.92822  1.0000
  H   H1743     1.0  0.49566  0.03858  0.85022  1.0000
  H   H1744     1.0  0.34216  0.48344  0.87438  1.0000
  C   C1400     1.0  0.60823  0.10880  0.84196  1.0000
  H   H1745     1.0  0.43749  0.18284  0.89207  1.0000
  H   H1746     1.0  0.61621  0.14306  0.79873  1.0000
  H   H1747     1.0  0.57426  0.15985  0.94832  1.0000
  H   H1748     1.0  0.62601  0.41867  0.84541  1.0000
  C   C1401     1.0  0.62655  0.26311  0.81802  1.0000
  C   C1402     1.0  0.46383  0.18622  0.95224  1.0000
  C   C1403     1.0  0.43833  0.17163  0.93527  1.0000
  H   H1749     1.0  0.50671  0.08704  0.78930  1.0000
  N   N99       1.0  0.51327  0.24797  0.82848  1.0000
  C   C1404     1.0  0.50824  0.23197  0.84037  1.0000
  H   H1750     1.0  0.64295  0.09609  0.76651  1.0000
  Fe  Fe191     1.0  0.61402  0.28039  0.89386  1.0000
  C   C1405     1.0  0.61456  0.27023  0.83140  1.0000
  C   C1406     1.0  0.50988  0.03545  0.84985  1.0000
  S   S379      1.0  0.52359  0.26530  0.95521  1.0000
  C   C1407     1.0  0.44232  0.18668  0.93718  1.0000
  H   H1751     1.0  0.47120  0.17308  0.95024  1.0000
  H   H1752     1.0  0.60772  0.09216  0.82587  1.0000
  C   C1408     1.0  0.51612  0.24640  0.81025  1.0000
  H   H1753     1.0  0.52615  0.23460  0.80754  1.0000
  H   H1754     1.0  0.46921  0.19596  0.94107  1.0000
  H   H1755     1.0  0.43383  0.15862  0.91793  1.0000
  C   C1409     1.0  0.61385  0.13349  0.81078  1.0000
  C   C1410     1.0  0.52950  0.24999  0.83154  1.0000
  C   C1411     1.0  0.53079  0.26521  0.83569  1.0000
  H   H1756     1.0  0.51801  0.21988  0.83811  1.0000
  H   H1757     1.0  0.46262  0.98905  0.78940  1.0000
  S   S380      1.0  0.62854  0.29617  0.87022  1.0000
  S   S381      1.0  0.46750  0.06277  0.76354  1.0000
  C   C1412     1.0  0.41639  0.31890  0.95432  1.0000
  C   C1413     1.0  0.56038  0.23825  0.83253  1.0000
  C   C1414     1.0  0.39931  0.31862  0.95511  1.0000
  C   C1415     1.0  0.65358  0.21331  0.89071  1.0000
  C   C1416     1.0  0.52052  0.07457  0.75067  1.0000
  C   C1417     1.0  0.65198  0.22674  0.86056  1.0000
  H   H1758     1.0  0.55882  0.11997  0.96866  1.0000
  Fe  Fe192     1.0  0.50716  0.27643  0.97806  1.0000
  C   C1418     1.0  0.34945  0.45808  0.92053  1.0000
  H   H1759     1.0  0.54768  0.11454  0.92277  1.0000
  C   C1419     1.0  0.54665  0.03873  0.77705  1.0000
  C   C1420     1.0  0.57159  0.28388  0.94179  1.0000
  C   C1421     1.0  0.43668  0.17033  0.91914  1.0000
  H   H1760     1.0  0.44851  0.21163  0.92213  1.0000
  S   S382      1.0  0.64356  0.30804  0.97257  1.0000
  C   C1422     1.0  0.57189  0.25860  0.96580  1.0000
  C   C1423     1.0  0.54484  0.23662  0.82993  1.0000
  C   C1424     1.0  0.54645  0.26677  0.83811  1.0000
  H   H1761     1.0  0.54716  0.27848  0.84124  1.0000
  H   H1762     1.0  0.56731  0.05389  0.74014  1.0000
  C   C1425     1.0  0.55595  0.11811  0.92888  1.0000
  S   S383      1.0  0.40316  0.42480  0.95367  1.0000
  H   H1763     1.0  0.48657  0.22428  0.96622  1.0000
  C   C1426     1.0  0.44472  0.20012  0.92194  1.0000
  H   H1764     1.0  0.60878  0.34849  0.94568  1.0000
  S   S384      1.0  0.61250  0.29214  0.83148  1.0000
  C   C1427     1.0  0.44186  0.12473  0.97131  1.0000
  C   C1428     1.0  0.61161  0.11728  0.81045  1.0000
  Fe  Fe193     1.0  0.61101  0.31946  0.88000  1.0000
  N   N100      1.0  0.56966  0.27779  0.96093  1.0000
  H   H1765     1.0  0.57319  0.12616  0.90462  1.0000
  H   H1766     1.0  0.49768  0.07303  0.77122  1.0000
  C   C1429     1.0  0.53590  0.08062  0.74464  1.0000
  H   H1767     1.0  0.60180  0.12265  0.97463  1.0000
  H   H1768     1.0  0.57188  0.22776  0.83141  1.0000
  H   H1769     1.0  0.57329  0.25467  0.83837  1.0000
  H   H1770     1.0  0.60237  0.14811  0.93061  1.0000
  S   S385      1.0  0.63925  0.17357  0.96409  1.0000
  S   S386      1.0  0.58357  0.07571  0.80218  1.0000
  C   C1430     1.0  0.64346  0.36281  0.94793  1.0000
  C   C1431     1.0  0.56479  0.99018  0.75335  1.0000
  H   H1771     1.0  0.50103  0.19958  0.95084  1.0000
  H   H1772     1.0  0.38903  0.24475  0.95302  1.0000
  H   H1773     1.0  0.46186  0.33887  0.94033  1.0000
  C   C1432     1.0  0.43876  0.18392  0.90456  1.0000
  C   C1433     1.0  0.60815  0.99760  0.78600  1.0000
  Fe  Fe194     1.0  0.56819  0.08714  0.78117  1.0000
  H   H1774     1.0  0.41057  0.38748  0.96139  1.0000
  C   C1434     1.0  0.65134  0.43249  0.81643  1.0000
  S   S387      1.0  0.61315  0.11296  0.79009  1.0000
  C   C1435     1.0  0.50983  0.07719  0.76666  1.0000
  C   C1436     1.0  0.60470  0.13691  0.94175  1.0000
  H   H1775     1.0  0.38078  0.46142  0.95376  1.0000
  C   C1437     1.0  0.38882  0.33360  0.97940  1.0000
  C   C1438     1.0  0.65685  0.36844  0.86833  1.0000
  C   C1439     1.0  0.62779  0.35673  0.95329  1.0000
  H   H1776     1.0  0.64901  0.27095  0.84774  1.0000
  H   H1777     1.0  0.63076  0.37136  0.88376  1.0000
  C   C1440     1.0  0.41994  0.32631  0.96592  1.0000
  C   C1441     1.0  0.44263  0.19884  0.90600  1.0000
  C   C1442     1.0  0.53118  0.08934  0.77186  1.0000
  C   C1443     1.0  0.61021  0.02343  0.76295  1.0000
  C   C1444     1.0  0.54139  0.08775  0.75535  1.0000
  C   C1445     1.0  0.64016  0.36613  0.97795  1.0000
  C   C1446     1.0  0.65180  0.19544  0.87293  1.0000
  H   H1778     1.0  0.60627  0.39905  0.85290  1.0000
  S   S388      1.0  0.59277  0.32387  0.97747  1.0000
  C   C1447     1.0  0.38011  0.47325  0.95828  1.0000
  C   C1448     1.0  0.53864  0.01973  0.83803  1.0000
  H   H1779     1.0  0.51175  0.03019  0.86348  1.0000
  H   H1780     1.0  0.65182  0.36153  0.90489  1.0000
  C   C1449     1.0  0.42678  0.25496  0.96651  1.0000
  H   H1781     1.0  0.64630  0.19451  0.86226  1.0000
  H   H1782     1.0  0.42519  0.17477  0.97053  1.0000
  C   C1450     1.0  0.38569  0.32601  0.96730  1.0000
  H   H1783     1.0  0.40907  0.26166  0.93103  1.0000
  C   C1451     1.0  0.55238  0.28729  0.96889  1.0000
  H   H1784     1.0  0.64811  0.32860  0.85821  1.0000
  C   C1452     1.0  0.34730  0.47620  0.91599  1.0000
  H   H1785     1.0  0.59641  0.27731  0.96016  1.0000
  C   C1453     1.0  0.56507  0.03105  0.83075  1.0000
  H   H1786     1.0  0.51440  0.00078  0.85923  1.0000
  C   C1454     1.0  0.55848  0.32242  0.98404  1.0000
  C   C1455     1.0  0.42428  0.26065  0.94909  1.0000
  H   H1787     1.0  0.64558  0.23396  0.98088  1.0000
  N   N101      1.0  0.44079  0.25877  0.97201  1.0000
  H   H1788     1.0  0.61258  0.14065  0.94865  1.0000
  H   H1789     1.0  0.63400  0.27124  0.80758  1.0000
  C   C1456     1.0  0.59012  0.22952  0.96352  1.0000
  H   H1790     1.0  0.44604  0.28080  0.95099  1.0000
  H   H1791     1.0  0.43325  0.32657  0.96530  1.0000
  S   S389      1.0  0.43971  0.04139  0.74621  1.0000
  H   H1792     1.0  0.57895  0.03187  0.74150  1.0000
  H   H1793     1.0  0.52427  0.02165  0.81182  1.0000
  C   C1457     1.0  0.39413  0.48484  0.92918  1.0000
  H   H1794     1.0  0.58162  0.29731  0.96284  1.0000
  C   C1458     1.0  0.41114  0.47042  0.95091  1.0000
  C   C1459     1.0  0.61038  0.99641  0.75613  1.0000
  H   H1795     1.0  0.56979  0.99021  0.78833  1.0000
  H   H1796     1.0  0.62062  0.35470  0.96665  1.0000
  C   C1460     1.0  0.42701  0.12161  0.96868  1.0000
  C   C1461     1.0  0.61899  0.39596  0.84458  1.0000
  H   H1797     1.0  0.39516  0.47235  0.92569  1.0000
  C   C1462     1.0  0.34457  0.48534  0.89934  1.0000
  N   N102      1.0  0.64770  0.10975  0.73949  1.0000
  H   H1798     1.0  0.64449  0.32036  0.92899  1.0000
  C   C1463     1.0  0.65302  0.25736  0.84706  1.0000
  H   H1799     1.0  0.49840  0.01010  0.84617  1.0000
  H   H1800     1.0  0.57816  0.20779  0.97694  1.0000
  H   H1801     1.0  0.57148  0.04189  0.82570  1.0000
  H   H1802     1.0  0.41350  0.45812  0.94652  1.0000
  C   C1464     1.0  0.64738  0.40305  0.82981  1.0000
  C   C1465     1.0  0.56074  0.23211  0.98038  1.0000
  H   H1803     1.0  0.44690  0.16127  0.96807  1.0000
  H   H1804     1.0  0.63938  0.23976  0.80851  1.0000
  H   H1805     1.0  0.38059  0.46873  0.97231  1.0000
  H   H1806     1.0  0.62232  0.20789  0.89314  1.0000
  H   H1807     1.0  0.39666  0.31276  0.94608  1.0000
  H   H1808     1.0  0.63933  0.43873  0.82469  1.0000
  S   S390      1.0  0.46109  0.33126  0.97827  1.0000
  H   H1809     1.0  0.63989  0.24880  0.87304  1.0000
  C   C1466     1.0  0.45279  0.26769  0.95733  1.0000
  C   C1467     1.0  0.58296  0.28290  0.96641  1.0000
  H   H1810     1.0  0.64790  0.43185  0.80443  1.0000
  H   H1811     1.0  0.65194  0.29816  0.93931  1.0000
  H   H1812     1.0  0.54180  0.28480  0.96453  1.0000
  Fe  Fe195     1.0  0.64771  0.27902  0.97977  1.0000
  H   H1813     1.0  0.62695  0.37467  0.97799  1.0000
  C   C1468     1.0  0.40645  0.33346  0.97837  1.0000
  H   H1814     1.0  0.51874  0.99739  0.83731  1.0000
  C   C1469     1.0  0.46147  0.99145  0.74284  1.0000
  H   H1815     1.0  0.62440  0.05853  0.73776  1.0000
  H   H1816     1.0  0.41169  0.46646  0.96495  1.0000
  N   N103      1.0  0.39430  0.48216  0.94787  1.0000
  C   C1470     1.0  0.64046  0.37637  0.82823  1.0000
  H   H1817     1.0  0.45615  0.23275  0.97194  1.0000
  H   H1818     1.0  0.53209  0.99291  0.75059  1.0000
  C   C1471     1.0  0.45136  0.24228  0.98048  1.0000
  C   C1472     1.0  0.65063  0.30713  0.92654  1.0000
  H   H1819     1.0  0.35637  0.35088  0.97503  1.0000
  C   C1473     1.0  0.64566  0.22027  0.98141  1.0000
  C   C1474     1.0  0.65277  0.25921  0.94782  1.0000
  H   H1820     1.0  0.64445  0.36419  0.82400  1.0000
  C   C1475     1.0  0.62704  0.21744  0.88132  1.0000
  H   H1821     1.0  0.62172  0.23052  0.88439  1.0000
  C   C1476     1.0  0.41495  0.24542  0.97882  1.0000
  C   C1477     1.0  0.43307  0.27009  0.98470  1.0000
  C   C1478     1.0  0.40156  0.24170  0.97397  1.0000
  H   H1822     1.0  0.39267  0.23442  0.98362  1.0000
  S   S391      1.0  0.47817  0.28034  0.98520  1.0000
  H   H1823     1.0  0.57473  0.98717  0.84510  1.0000
  Fe  Fe196     1.0  0.45579  0.77581  0.02635  1.0000
  S   S392      1.0  0.47349  0.75028  0.03496  1.0000
  C   C1479     1.0  0.59777  0.98564  0.06607  1.0000
  Fe  Fe197     1.0  0.46422  0.79288  0.05099  1.0000
  S   S393      1.0  0.48207  0.76824  0.06176  1.0000
  S   S394      1.0  0.46303  0.81863  0.05697  1.0000
  Fe  Fe198     1.0  0.49184  0.76619  0.03383  1.0000
  S   S395      1.0  0.52013  0.75868  0.02187  1.0000
  Fe  Fe199     1.0  0.46178  0.75481  0.06175  1.0000
  S   S396      1.0  0.45355  0.73358  0.08426  1.0000
  S   S397      1.0  0.47533  0.79149  0.02285  1.0000
  S   S398      1.0  0.44275  0.77961  0.05344  1.0000
  Fe  Fe200     1.0  0.57790  0.79854  0.04252  1.0000
  S   S399      1.0  0.60216  0.80019  0.04868  1.0000
  S   S400      1.0  0.55660  0.78775  0.06218  1.0000
  H   H1824     1.0  0.42394  0.75207  0.99752  1.0000
  S   S401      1.0  0.61279  0.81881  0.00687  1.0000
  Fe  Fe201     1.0  0.61519  0.79162  0.02357  1.0000
  S   S402      1.0  0.64082  0.77219  0.02175  1.0000
  Fe  Fe202     1.0  0.59765  0.82715  0.03181  1.0000
  H   H1825     1.0  0.52644  0.68520  0.08313  1.0000
  S   S403      1.0  0.59121  0.78752  0.01902  1.0000
  S   S404      1.0  0.57207  0.82614  0.02765  1.0000
  Fe  Fe203     1.0  0.62365  0.65197  0.00720  1.0000
  H   H1826     1.0  0.49792  0.70791  0.09196  1.0000
  H   H1827     1.0  0.56015  0.86889  0.12422  1.0000
  Fe  Fe204     1.0  0.62660  0.68454  0.01573  1.0000
  H   H1828     1.0  0.55533  0.74997  0.02620  1.0000
  S   S405      1.0  0.64397  0.69279  0.02733  1.0000
  H   H1829     1.0  0.42272  0.74315  0.02570  1.0000
  H   H1830     1.0  0.56503  0.97746  0.17117  1.0000
  H   H1831     1.0  0.50524  0.73668  0.08451  1.0000
  S   S406      1.0  0.61250  0.66327  0.03102  1.0000
  S   S407      1.0  0.63943  0.67197  0.99298  1.0000
  Fe  Fe205     1.0  0.45819  0.65490  0.04709  1.0000
  S   S408      1.0  0.47563  0.62812  0.04898  1.0000
  S   S409      1.0  0.44297  0.66532  0.07078  1.0000
  Fe  Fe206     1.0  0.46306  0.66155  0.00820  1.0000
  S   S410      1.0  0.48133  0.63581  0.00652  1.0000
  S   S411      1.0  0.60073  0.66635  0.99495  1.0000
  Fe  Fe207     1.0  0.46229  0.62509  0.02976  1.0000
  S   S412      1.0  0.45655  0.59969  0.02971  1.0000
  Fe  Fe208     1.0  0.49314  0.64106  0.02566  1.0000
  S   S413      1.0  0.52226  0.63321  0.02322  1.0000
  S   S414      1.0  0.44314  0.65063  0.03020  1.0000
  S   S415      1.0  0.47656  0.66808  0.02506  1.0000
  C   C1480     1.0  0.46016  0.89539  0.07890  1.0000
  N   N104      1.0  0.51566  0.70932  0.06687  1.0000
  H   H1832     1.0  0.65057  0.78452  0.06884  1.0000
  H   H1833     1.0  0.40854  0.63669  0.09302  1.0000
  S   S416      1.0  0.55681  0.89242  0.17239  1.0000
  C   C1481     1.0  0.58896  0.92792  0.18447  1.0000
  C   C1482     1.0  0.54183  0.86945  0.09120  1.0000
  Fe  Fe209     1.0  0.46727  0.84910  0.13767  1.0000
  S   S417      1.0  0.49247  0.85673  0.12369  1.0000
  S   S418      1.0  0.45941  0.82712  0.13240  1.0000
  Fe  Fe210     1.0  0.45930  0.87283  0.16294  1.0000
  S   S419      1.0  0.48402  0.88202  0.15112  1.0000
  Fe  Fe211     1.0  0.47779  0.88389  0.12573  1.0000
  S   S420      1.0  0.48317  0.90777  0.10552  1.0000
  Fe  Fe212     1.0  0.49626  0.85422  0.15042  1.0000
  S   S421      1.0  0.52251  0.84094  0.15611  1.0000
  S   S422      1.0  0.45193  0.87667  0.13740  1.0000
  S   S423      1.0  0.47216  0.84456  0.16452  1.0000
  H   H1834     1.0  0.63032  0.79919  0.06554  1.0000
  H   H1835     1.0  0.47601  0.95278  0.16251  1.0000
  C   C1483     1.0  0.47345  0.92605  0.11479  1.0000
  C   C1484     1.0  0.46071  0.92476  0.13020  1.0000
  C   C1485     1.0  0.45306  0.93922  0.13775  1.0000
  C   C1486     1.0  0.45827  0.95500  0.13010  1.0000
  H   H1836     1.0  0.63219  0.60508  0.05352  1.0000
  C   C1487     1.0  0.47860  0.94187  0.10703  1.0000
  H   H1837     1.0  0.45655  0.91267  0.13627  1.0000
  H   H1838     1.0  0.44312  0.93811  0.14960  1.0000
  H   H1839     1.0  0.55718  0.96283  0.19087  1.0000
  H   H1840     1.0  0.48841  0.94296  0.09509  1.0000
  C   C1488     1.0  0.42715  0.85243  0.22890  1.0000
  C   C1489     1.0  0.52642  0.71902  0.07063  1.0000
  S   S424      1.0  0.38003  0.59142  0.03868  1.0000
  C   C1490     1.0  0.54935  0.81173  0.09696  1.0000
  C   C1491     1.0  0.54717  0.87716  0.16965  1.0000
  C   C1492     1.0  0.52917  0.87876  0.17482  1.0000
  C   C1493     1.0  0.52140  0.86745  0.17104  1.0000
  C   C1494     1.0  0.53175  0.85420  0.16261  1.0000
  C   C1495     1.0  0.54980  0.85191  0.15858  1.0000
  C   C1496     1.0  0.55746  0.86362  0.16169  1.0000
  H   H1841     1.0  0.52128  0.88881  0.18156  1.0000
  H   H1842     1.0  0.50750  0.86877  0.17491  1.0000
  H   H1843     1.0  0.55790  0.84144  0.15245  1.0000
  H   H1844     1.0  0.57136  0.86209  0.15790  1.0000
  S   S425      1.0  0.36321  0.54003  0.00759  1.0000
  C   C1497     1.0  0.59255  0.61606  0.99874  1.0000
  C   C1498     1.0  0.51906  0.73269  0.07974  1.0000
  H   H1845     1.0  0.61126  0.97239  0.21249  1.0000
  C   C1499     1.0  0.62805  0.86994  0.22191  1.0000
  C   C1500     1.0  0.43531  0.59846  0.03018  1.0000
  C   C1501     1.0  0.42102  0.61208  0.03346  1.0000
  C   C1502     1.0  0.40413  0.61009  0.03520  1.0000
  C   C1503     1.0  0.40142  0.59455  0.03355  1.0000
  C   C1504     1.0  0.41577  0.58126  0.02943  1.0000
  C   C1505     1.0  0.43265  0.58317  0.02791  1.0000
  H   H1846     1.0  0.42291  0.62391  0.03524  1.0000
  H   H1847     1.0  0.41385  0.56921  0.02815  1.0000
  H   H1848     1.0  0.44366  0.57260  0.02530  1.0000
  H   H1849     1.0  0.43767  0.98097  0.18306  1.0000
  H   H1850     1.0  0.62843  0.97626  0.21899  1.0000
  C   C1506     1.0  0.63229  0.95340  0.12744  1.0000
  S   S426      1.0  0.60430  0.70178  0.00396  1.0000
  H   H1851     1.0  0.39936  0.61187  0.99813  1.0000
  N   N105      1.0  0.44566  0.98576  0.21270  1.0000
  H   H1852     1.0  0.47059  0.90231  0.07475  1.0000
  N   N106      1.0  0.65267  0.80717  0.04746  1.0000
  H   H1853     1.0  0.52726  0.71425  0.03939  1.0000
  C   C1507     1.0  0.52948  0.74202  0.08260  1.0000
  H   H1854     1.0  0.44831  0.90649  0.10129  1.0000
  H   H1855     1.0  0.45730  0.71221  0.00333  1.0000
  H   H1856     1.0  0.53592  0.65097  0.98752  1.0000
  H   H1857     1.0  0.54683  0.62100  0.99100  1.0000
  C   C1508     1.0  0.55122  0.67152  0.02726  1.0000
  C   C1509     1.0  0.55982  0.65431  0.02671  1.0000
  C   C1510     1.0  0.55063  0.64252  0.02609  1.0000
  C   C1511     1.0  0.53292  0.64794  0.02565  1.0000
  C   C1512     1.0  0.52436  0.66519  0.02613  1.0000
  C   C1513     1.0  0.65096  0.84275  0.07827  1.0000
  H   H1858     1.0  0.57347  0.64997  0.02707  1.0000
  H   H1859     1.0  0.55728  0.62917  0.02597  1.0000
  H   H1860     1.0  0.51079  0.66956  0.02562  1.0000
  C   C1514     1.0  0.55242  0.85360  0.06758  1.0000
  H   H1861     1.0  0.49948  0.76822  0.99527  1.0000
  C   C1515     1.0  0.64084  0.75033  0.02321  1.0000
  C   C1516     1.0  0.54087  0.86680  0.21908  1.0000
  H   H1862     1.0  0.46985  0.97642  0.22159  1.0000
  C   C1517     1.0  0.64237  0.71509  0.02529  1.0000
  C   C1518     1.0  0.62743  0.72782  0.02198  1.0000
  C   C1519     1.0  0.62662  0.74544  0.02108  1.0000
  N   N107      1.0  0.56736  0.95144  0.16847  1.0000
  H   H1863     1.0  0.32968  0.61162  0.99165  1.0000
  H   H1864     1.0  0.61643  0.72407  0.02048  1.0000
  H   H1865     1.0  0.61510  0.75517  0.01861  1.0000
  C   C1520     1.0  0.46442  0.81949  0.07780  1.0000
  C   C1521     1.0  0.46927  0.83382  0.07973  1.0000
  C   C1522     1.0  0.46820  0.83616  0.09640  1.0000
  C   C1523     1.0  0.46241  0.82404  0.11123  1.0000
  C   C1524     1.0  0.45821  0.80938  0.10927  1.0000
  C   C1525     1.0  0.45926  0.80706  0.09261  1.0000
  H   H1866     1.0  0.47347  0.84335  0.06826  1.0000
  H   H1867     1.0  0.47147  0.84751  0.09779  1.0000
  H   H1868     1.0  0.45371  0.79995  0.12070  1.0000
  H   H1869     1.0  0.45543  0.79601  0.09126  1.0000
  C   C1526     1.0  0.45072  0.71498  0.07965  1.0000
  C   C1527     1.0  0.44039  0.70464  0.09248  1.0000
  C   C1528     1.0  0.43811  0.68953  0.08952  1.0000
  C   C1529     1.0  0.44646  0.68435  0.07385  1.0000
  C   C1530     1.0  0.45708  0.69449  0.06106  1.0000
  C   C1531     1.0  0.45904  0.70990  0.06387  1.0000
  H   H1870     1.0  0.43401  0.70840  0.10474  1.0000
  H   H1871     1.0  0.42993  0.68174  0.09948  1.0000
  H   H1872     1.0  0.46379  0.69046  0.04907  1.0000
  H   H1873     1.0  0.46736  0.71753  0.05406  1.0000
  C   C1532     1.0  0.53058  0.76732  0.03225  1.0000
  C   C1533     1.0  0.52112  0.78061  0.04092  1.0000
  C   C1534     1.0  0.52905  0.78668  0.05041  1.0000
  C   C1535     1.0  0.54664  0.77993  0.05062  1.0000
  C   C1536     1.0  0.55632  0.76712  0.04137  1.0000
  C   C1537     1.0  0.54819  0.76059  0.03244  1.0000
  H   H1874     1.0  0.50768  0.78636  0.04027  1.0000
  H   H1875     1.0  0.52162  0.79684  0.05724  1.0000
  H   H1876     1.0  0.56989  0.76172  0.04174  1.0000
  C   C1538     1.0  0.47110  0.95631  0.11474  1.0000
  C   C1539     1.0  0.64543  0.96612  0.08331  1.0000
  H   H1877     1.0  0.64980  0.66798  0.06144  1.0000
  C   C1540     1.0  0.61813  0.93136  0.18102  1.0000
  S   S427      1.0  0.56237  0.68638  0.02852  1.0000
  C   C1541     1.0  0.45927  0.88423  0.06930  1.0000
  H   H1878     1.0  0.62884  0.92981  0.12341  1.0000
  H   H1879     1.0  0.34837  0.49308  0.99438  1.0000
  H   H1880     1.0  0.64977  0.85153  0.08647  1.0000
  H   H1881     1.0  0.42774  0.85144  0.21580  1.0000
  Fe  Fe213     1.0  0.62165  0.88610  0.14853  1.0000
  S   S428      1.0  0.63401  0.62318  0.00770  1.0000
  S   S429      1.0  0.52239  0.98228  0.14982  1.0000
  C   C1542     1.0  0.64784  0.65543  0.06044  1.0000
  S   S430      1.0  0.35095  0.57819  0.01778  1.0000
  H   H1882     1.0  0.40832  0.57569  0.06513  1.0000
  H   H1883     1.0  0.43913  0.95369  0.17640  1.0000
  H   H1884     1.0  0.57477  0.96914  0.14379  1.0000
  C   C1543     1.0  0.52984  0.88400  0.11613  1.0000
  H   H1885     1.0  0.62413  0.96346  0.07538  1.0000
  C   C1544     1.0  0.52472  0.87171  0.08889  1.0000
  C   C1545     1.0  0.52165  0.86466  0.07662  1.0000
  C   C1546     1.0  0.53548  0.85556  0.06602  1.0000
  H   H1886     1.0  0.53317  0.88856  0.12614  1.0000
  H   H1887     1.0  0.54244  0.86289  0.20705  1.0000
  H   H1888     1.0  0.52233  0.87382  0.12342  1.0000
  H   H1889     1.0  0.51348  0.87908  0.09624  1.0000
  H   H1890     1.0  0.50847  0.86654  0.07513  1.0000
  H   H1891     1.0  0.53312  0.85032  0.05634  1.0000
  H   H1892     1.0  0.40662  0.73020  0.03241  1.0000
  H   H1893     1.0  0.55349  0.77226  0.99242  1.0000
  N   N108      1.0  0.39658  0.58603  0.08810  1.0000
  C   C1547     1.0  0.38044  0.59574  0.08175  1.0000
  C   C1548     1.0  0.40835  0.59790  0.08474  1.0000
  C   C1549     1.0  0.40241  0.61343  0.09111  1.0000
  C   C1550     1.0  0.42594  0.59439  0.07553  1.0000
  C   C1551     1.0  0.41331  0.62479  0.08823  1.0000
  C   C1552     1.0  0.43673  0.60578  0.07286  1.0000
  C   C1553     1.0  0.43043  0.62095  0.07913  1.0000
  H   H1894     1.0  0.37219  0.60539  0.08948  1.0000
  H   H1895     1.0  0.38354  0.60294  0.06797  1.0000
  H   H1896     1.0  0.37213  0.58694  0.08212  1.0000
  H   H1897     1.0  0.39503  0.56279  0.08155  1.0000
  H   H1898     1.0  0.43169  0.58311  0.06991  1.0000
  C   C1554     1.0  0.56940  0.95727  0.14923  1.0000
  H   H1899     1.0  0.45004  0.60291  0.06564  1.0000
  H   H1900     1.0  0.43884  0.62979  0.07688  1.0000
  C   C1555     1.0  0.65577  0.73757  0.02623  1.0000
  H   H1901     1.0  0.57741  0.82051  0.11540  1.0000
  C   C1556     1.0  0.60658  0.83557  0.08890  1.0000
  H   H1902     1.0  0.56886  0.72249  0.06188  1.0000
  C   C1557     1.0  0.58463  0.94441  0.17308  1.0000
  H   H1903     1.0  0.55538  0.74557  0.07851  1.0000
  H   H1904     1.0  0.50922  0.79025  0.99659  1.0000
  S   S431      1.0  0.39292  0.56033  0.00625  1.0000
  C   C1558     1.0  0.64460  0.60688  0.05407  1.0000
  H   H1905     1.0  0.61509  0.85197  0.21866  1.0000
  H   H1906     1.0  0.65025  0.95212  0.08682  1.0000
  C   C1559     1.0  0.44434  0.89087  0.21507  1.0000
  C   C1560     1.0  0.55989  0.61977  0.99237  1.0000
  H   H1907     1.0  0.60574  0.97712  0.05698  1.0000
  C   C1561     1.0  0.58292  0.60350  0.00766  1.0000
  H   H1908     1.0  0.54348  0.94418  0.17031  1.0000
  H   H1909     1.0  0.52688  0.69030  0.02698  1.0000
  H   H1910     1.0  0.41247  0.64888  0.98877  1.0000
  H   H1911     1.0  0.64056  0.64946  0.07334  1.0000
  C   C1562     1.0  0.39305  0.49301  0.02235  1.0000
  C   C1563     1.0  0.65709  0.82492  0.08389  1.0000
  C   C1564     1.0  0.53349  0.67693  0.02697  1.0000
  H   H1912     1.0  0.50612  0.95296  0.20747  1.0000
  N   N109      1.0  0.43089  0.71867  0.01732  1.0000
  H   H1913     1.0  0.43075  0.65991  0.00059  1.0000
  H   H1914     1.0  0.44891  0.92555  0.19600  1.0000
  C   C1565     1.0  0.62660  0.86647  0.19381  1.0000
  H   H1915     1.0  0.46903  0.88254  0.05754  1.0000
  S   S432      1.0  0.60479  0.86720  0.15391  1.0000
  C   C1566     1.0  0.42076  0.72958  0.03004  1.0000
  H   H1916     1.0  0.58736  0.87251  0.22394  1.0000
  C   C1567     1.0  0.55371  0.87353  0.22142  1.0000
  C   C1568     1.0  0.64352  0.79337  0.05875  1.0000
  C   C1569     1.0  0.49778  0.71137  0.07783  1.0000
  H   H1917     1.0  0.60788  0.98143  0.18325  1.0000
  Fe  Fe214     1.0  0.59106  0.67955  0.01727  1.0000
  S   S433      1.0  0.60948  0.85051  0.11355  1.0000
  H   H1918     1.0  0.55325  0.81718  0.14108  1.0000
  C   C1570     1.0  0.60552  0.92155  0.18828  1.0000
  C   C1571     1.0  0.42176  0.74244  0.99219  1.0000
  H   H1919     1.0  0.49603  0.96018  0.15393  1.0000
  C   C1572     1.0  0.60891  0.95198  0.11540  1.0000
  N   N110      1.0  0.41900  0.86723  0.09681  1.0000
  C   C1573     1.0  0.40209  0.87979  0.09602  1.0000
  C   C1574     1.0  0.42057  0.85428  0.08660  1.0000
  C   C1575     1.0  0.41889  0.85762  0.11518  1.0000
  C   C1576     1.0  0.43315  0.87685  0.09036  1.0000
  H   H1920     1.0  0.58786  0.59259  0.01745  1.0000
  C   C1577     1.0  0.43422  0.88867  0.09955  1.0000
  S   S434      1.0  0.44875  0.97264  0.14034  1.0000
  C   C1578     1.0  0.64617  0.62324  0.05459  1.0000
  H   H1921     1.0  0.39109  0.87307  0.10043  1.0000
  H   H1922     1.0  0.39937  0.88917  0.10444  1.0000
  H   H1923     1.0  0.40184  0.88754  0.08246  1.0000
  H   H1924     1.0  0.41971  0.86056  0.07280  1.0000
  H   H1925     1.0  0.41005  0.84692  0.09202  1.0000
  H   H1926     1.0  0.43302  0.84437  0.08676  1.0000
  H   H1927     1.0  0.40929  0.84919  0.12011  1.0000
  H   H1928     1.0  0.43183  0.84902  0.11647  1.0000
  H   H1929     1.0  0.41562  0.86636  0.12432  1.0000
  H   H1930     1.0  0.34999  0.50777  0.00600  1.0000
  H   H1931     1.0  0.42482  0.89096  0.11129  1.0000
  H   H1932     1.0  0.55732  0.89766  0.10314  1.0000
  C   C1579     1.0  0.55216  0.81565  0.12870  1.0000
  H   H1933     1.0  0.42869  0.61633  0.99228  1.0000
  C   C1580     1.0  0.50293  0.94389  0.18650  1.0000
  H   H1934     1.0  0.49922  0.92715  0.23011  1.0000
  C   C1581     1.0  0.65233  0.81962  0.05764  1.0000
  H   H1935     1.0  0.51396  0.78223  0.10590  1.0000
  C   C1582     1.0  0.46934  0.87247  0.20036  1.0000
  H   H1936     1.0  0.63942  0.65937  0.05079  1.0000
  H   H1937     1.0  0.49879  0.90559  0.16387  1.0000
  S   S435      1.0  0.62604  0.89074  0.11933  1.0000
  H   H1938     1.0  0.64648  0.96613  0.17479  1.0000
  C   C1583     1.0  0.51427  0.71592  0.04840  1.0000
  H   H1939     1.0  0.55883  0.59590  0.01179  1.0000
  C   C1584     1.0  0.55498  0.72507  0.06718  1.0000
  C   C1585     1.0  0.44924  0.72019  0.01293  1.0000
  C   C1586     1.0  0.60444  0.83540  0.07250  1.0000
  C   C1587     1.0  0.59761  0.95432  0.16640  1.0000
  C   C1588     1.0  0.64063  0.96625  0.18875  1.0000
  H   H1940     1.0  0.60862  0.82349  0.09855  1.0000
  C   C1589     1.0  0.43037  0.70025  0.02615  1.0000
  H   H1941     1.0  0.65786  0.58048  0.05278  1.0000
  C   C1590     1.0  0.64423  0.81544  0.03230  1.0000
  H   H1942     1.0  0.52357  0.75265  0.08920  1.0000
  C   C1591     1.0  0.52366  0.69034  0.06983  1.0000
  H   H1943     1.0  0.36957  0.50730  0.03610  1.0000
  S   S436      1.0  0.59879  0.94042  0.10752  1.0000
  C   C1592     1.0  0.55610  0.93863  0.17452  1.0000
  S   S437      1.0  0.40467  0.50905  0.01888  1.0000
  C   C1593     1.0  0.37560  0.49577  0.03088  1.0000
  H   H1944     1.0  0.47561  0.86595  0.18976  1.0000
  H   H1945     1.0  0.51509  0.68272  0.06833  1.0000
  Fe  Fe215     1.0  0.58751  0.81530  0.00430  1.0000
  C   C1594     1.0  0.62372  0.94367  0.12234  1.0000
  S   S438      1.0  0.64254  0.88433  0.16236  1.0000
  C   C1595     1.0  0.54467  0.71583  0.06403  1.0000
  Fe  Fe216     1.0  0.58267  0.89062  0.15364  1.0000
  C   C1596     1.0  0.54741  0.73807  0.07655  1.0000
  H   H1946     1.0  0.56325  0.84697  0.05899  1.0000
  S   S439      1.0  0.58352  0.89594  0.12507  1.0000
  H   H1947     1.0  0.39311  0.62052  0.03821  1.0000
  C   C1597     1.0  0.63027  0.97290  0.07672  1.0000
  C   C1598     1.0  0.55715  0.86353  0.11460  1.0000
  C   C1599     1.0  0.51744  0.92952  0.15324  1.0000
  C   C1600     1.0  0.61415  0.94777  0.17021  1.0000
  H   H1948     1.0  0.56894  0.85886  0.08036  1.0000
  H   H1949     1.0  0.60880  0.90867  0.19647  1.0000
  H   H1950     1.0  0.64392  0.94696  0.13251  1.0000
  C   C1601     1.0  0.65800  0.81350  0.07366  1.0000
  C   C1602     1.0  0.64653  0.83796  0.05210  1.0000
  H   H1951     1.0  0.49071  0.86156  0.21342  1.0000
  H   H1952     1.0  0.43471  0.69627  0.03874  1.0000
  Fe  Fe217     1.0  0.36879  0.56642  0.99604  1.0000
  H   H1953     1.0  0.38489  0.58912  0.11446  1.0000
  C   C1603     1.0  0.63687  0.87864  0.18525  1.0000
  S   S440      1.0  0.63674  0.98359  0.13213  1.0000
  C   C1604     1.0  0.47786  0.86995  0.21381  1.0000
  H   H1954     1.0  0.57517  0.74296  0.00133  1.0000
  C   C1605     1.0  0.49912  0.92812  0.21665  1.0000
  Fe  Fe218     1.0  0.38574  0.53477  0.02011  1.0000
  C   C1606     1.0  0.49122  0.91913  0.16013  1.0000
  H   H1955     1.0  0.49031  0.70297  0.07582  1.0000
  C   C1607     1.0  0.62590  0.97139  0.12589  1.0000
  C   C1608     1.0  0.44592  0.87517  0.07479  1.0000
  C   C1609     1.0  0.44289  0.95352  0.18818  1.0000
  S   S441      1.0  0.36979  0.54409  0.04417  1.0000
  C   C1610     1.0  0.42413  0.72465  0.00107  1.0000
  C   C1611     1.0  0.49518  0.91480  0.21209  1.0000
  H   H1956     1.0  0.45502  0.71573  0.02469  1.0000
  H   H1957     1.0  0.43124  0.89871  0.21569  1.0000
  C   C1612     1.0  0.56576  0.81755  0.11426  1.0000
  H   H1958     1.0  0.58003  0.91942  0.19004  1.0000
  C   C1613     1.0  0.55454  0.89133  0.09416  1.0000
  H   H1959     1.0  0.50821  0.73008  0.04575  1.0000
  H   H1960     1.0  0.55305  0.91235  0.22999  1.0000
  C   C1614     1.0  0.44844  0.93766  0.19918  1.0000
  Fe  Fe219     1.0  0.34749  0.55100  0.03062  1.0000
  H   H1961     1.0  0.64255  0.88852  0.22080  1.0000
  H   H1962     1.0  0.59048  0.97615  0.10955  1.0000
  H   H1963     1.0  0.60039  0.87856  0.05389  1.0000
  C   C1615     1.0  0.39190  0.57879  0.10710  1.0000
  H   H1964     1.0  0.59097  0.89098  0.22863  1.0000
  C   C1616     1.0  0.63817  0.88225  0.21335  1.0000
  H   H1965     1.0  0.55681  0.96069  0.14509  1.0000
  C   C1617     1.0  0.58103  0.88593  0.22580  1.0000
  H   H1966     1.0  0.43924  0.69107  0.01810  1.0000
  H   H1967     1.0  0.53530  0.78536  0.09519  1.0000
  H   H1968     1.0  0.64199  0.78479  0.05113  1.0000
  H   H1969     1.0  0.64183  0.84395  0.04019  1.0000
  H   H1970     1.0  0.65467  0.58817  0.01026  1.0000
  C   C1618     1.0  0.60201  0.86654  0.06371  1.0000
  H   H1971     1.0  0.60377  0.87887  0.08312  1.0000
  S   S442      1.0  0.64683  0.94063  0.22961  1.0000
  H   H1972     1.0  0.34265  0.62035  0.01089  1.0000
  H   H1973     1.0  0.63285  0.95607  0.19391  1.0000
  C   C1619     1.0  0.45246  0.88267  0.20110  1.0000
  H   H1974     1.0  0.49134  0.90534  0.19230  1.0000
  H   H1975     1.0  0.44606  0.86673  0.06672  1.0000
  C   C1620     1.0  0.60236  0.85085  0.05976  1.0000
  C   C1621     1.0  0.60388  0.86677  0.08024  1.0000
  H   H1976     1.0  0.45117  0.80691  0.99233  1.0000
  H   H1977     1.0  0.60498  0.61489  0.00167  1.0000
  Fe  Fe220     1.0  0.37490  0.57044  0.02902  1.0000
  H   H1978     1.0  0.38328  0.56953  0.11014  1.0000
  H   H1979     1.0  0.60469  0.82328  0.06964  1.0000
  C   C1622     1.0  0.61076  0.97955  0.11947  1.0000
  C   C1623     1.0  0.52511  0.78663  0.10719  1.0000
  Fe  Fe221     1.0  0.60697  0.87372  0.12477  1.0000
  C   C1624     1.0  0.49468  0.91610  0.19480  1.0000
  C   C1625     1.0  0.50297  0.94265  0.20389  1.0000
  C   C1626     1.0  0.45272  0.95300  0.21837  1.0000
  C   C1627     1.0  0.44757  0.89772  0.09390  1.0000
  H   H1980     1.0  0.62408  0.95526  0.16429  1.0000
  H   H1981     1.0  0.56722  0.88665  0.08570  1.0000
  C   C1628     1.0  0.40437  0.57110  0.07946  1.0000
  C   C1629     1.0  0.56434  0.81562  0.09839  1.0000
  H   H1982     1.0  0.50096  0.81324  0.09345  1.0000
  H   H1983     1.0  0.53050  0.77739  0.11830  1.0000
  S   S443      1.0  0.60046  0.85099  0.03873  1.0000
  C   C1630     1.0  0.60228  0.96984  0.11430  1.0000
  H   H1984     1.0  0.56241  0.92685  0.16902  1.0000
  C   C1631     1.0  0.34798  0.62259  0.99697  1.0000
  H   H1985     1.0  0.41698  0.69808  0.02915  1.0000
  H   H1986     1.0  0.50615  0.70919  0.04487  1.0000
  S   S444      1.0  0.44251  0.77294  0.00700  1.0000
  H   H1987     1.0  0.52114  0.89541  0.10931  1.0000
  H   H1988     1.0  0.51858  0.92985  0.13928  1.0000
  C   C1632     1.0  0.58549  0.75051  0.99540  1.0000
  H   H1989     1.0  0.63110  0.92609  0.18357  1.0000
  H   H1990     1.0  0.48999  0.72489  0.07455  1.0000
  H   H1991     1.0  0.50652  0.95518  0.17705  1.0000
  H   H1992     1.0  0.57495  0.81699  0.08714  1.0000
  H   H1993     1.0  0.52215  0.81519  0.08187  1.0000
  H   H1994     1.0  0.52528  0.91676  0.15904  1.0000
  C   C1633     1.0  0.53517  0.80978  0.11139  1.0000
  H   H1995     1.0  0.51617  0.85981  0.23022  1.0000
  C   C1634     1.0  0.61986  0.98165  0.20944  1.0000
  H   H1996     1.0  0.57001  0.85832  0.10687  1.0000
  C   C1635     1.0  0.51291  0.81640  0.09448  1.0000
  H   H1997     1.0  0.50898  0.79569  0.13709  1.0000
  H   H1998     1.0  0.55277  0.93456  0.18898  1.0000
  C   C1636     1.0  0.49852  0.93078  0.18142  1.0000
  H   H1999     1.0  0.48889  0.95057  0.14134  1.0000
  C   C1637     1.0  0.55821  0.96652  0.17651  1.0000
  C   C1638     1.0  0.56665  0.60531  0.00441  1.0000
  H   H2000     1.0  0.38928  0.61692  0.09835  1.0000
  H   H2001     1.0  0.59796  0.74143  0.99125  1.0000
  S   S445      1.0  0.59925  0.90893  0.15081  1.0000
  Fe  Fe222     1.0  0.60226  0.91243  0.12221  1.0000
  H   H2002     1.0  0.57810  0.94686  0.14260  1.0000
  N   N111      1.0  0.51984  0.80470  0.10974  1.0000
  N   N112      1.0  0.49908  0.93214  0.16284  1.0000
  H   H2003     1.0  0.52367  0.93984  0.15346  1.0000
  C   C1639     1.0  0.64294  0.88624  0.19507  1.0000
  H   H2004     1.0  0.54645  0.90154  0.08560  1.0000
  C   C1640     1.0  0.50533  0.80530  0.12530  1.0000
  H   H2005     1.0  0.50089  0.81849  0.12819  1.0000
  C   C1641     1.0  0.48958  0.94964  0.15496  1.0000
  H   H2006     1.0  0.59522  0.96708  0.15784  1.0000
  H   H2007     1.0  0.50959  0.83026  0.09545  1.0000
  C   C1642     1.0  0.46962  0.87773  0.22801  1.0000
  H   H2008     1.0  0.54910  0.81003  0.08446  1.0000
  C   C1643     1.0  0.65387  0.97718  0.08627  1.0000
  N   N113      1.0  0.54562  0.87696  0.10384  1.0000
  H   H2009     1.0  0.40374  0.57167  0.11240  1.0000
  H   H2010     1.0  0.56744  0.78122  0.99924  1.0000
  H   H2011     1.0  0.49374  0.80210  0.12343  1.0000
  C   C1644     1.0  0.44672  0.96943  0.20770  1.0000
  H   H2012     1.0  0.52461  0.81142  0.99649  1.0000
  C   C1645     1.0  0.55558  0.86043  0.07994  1.0000
  S   S446      1.0  0.44130  0.88448  0.18498  1.0000
  H   H2013     1.0  0.52698  0.81086  0.13910  1.0000
  H   H2014     1.0  0.49085  0.92111  0.14618  1.0000
  H   H2015     1.0  0.47754  0.92004  0.16761  1.0000
  H   H2016     1.0  0.41594  0.56247  0.08443  1.0000
  H   H2017     1.0  0.55110  0.70648  0.05599  1.0000
  H   H2018     1.0  0.55095  0.85241  0.12195  1.0000
  C   C1646     1.0  0.53702  0.81193  0.12737  1.0000
  C   C1647     1.0  0.60638  0.85121  0.09283  1.0000
  C   C1648     1.0  0.62262  0.86176  0.21212  1.0000
  H   H2019     1.0  0.56475  0.87456  0.21065  1.0000
  C   C1649     1.0  0.52605  0.86508  0.23211  1.0000
  H   H2020     1.0  0.38877  0.51287  0.98988  1.0000
  C   C1650     1.0  0.65646  0.72004  0.02746  1.0000
  H   H2021     1.0  0.58742  0.75539  0.00597  1.0000
  N   N114      1.0  0.63004  0.98364  0.19119  1.0000
  H   H2022     1.0  0.45051  0.73391  0.00711  1.0000
  H   H2023     1.0  0.32956  0.53559  0.00664  1.0000
  H   H2024     1.0  0.57789  0.89422  0.21327  1.0000
  H   H2025     1.0  0.62215  0.86032  0.18630  1.0000
  H   H2026     1.0  0.42476  0.72441  0.04285  1.0000
  N   N115      1.0  0.32869  0.51719  0.99266  1.0000
  H   H2027     1.0  0.64098  0.86315  0.05810  1.0000
  H   H2028     1.0  0.53595  0.68717  0.06025  1.0000
  C   C1651     1.0  0.45333  0.93740  0.21425  1.0000
  C   C1652     1.0  0.45298  0.88851  0.22850  1.0000
  H   H2029     1.0  0.47503  0.96851  0.10864  1.0000
  H   H2030     1.0  0.49238  0.90340  0.22205  1.0000
  C   C1653     1.0  0.56542  0.77762  0.98792  1.0000
  H   H2031     1.0  0.65151  0.96203  0.19575  1.0000
  H   H2032     1.0  0.54480  0.97173  0.17413  1.0000
  C   C1654     1.0  0.44205  0.96922  0.19226  1.0000
  H   H2033     1.0  0.59455  0.97719  0.07929  1.0000
  H   H2034     1.0  0.36829  0.63345  0.99851  1.0000
  H   H2035     1.0  0.45723  0.60172  0.99477  1.0000
  C   C1655     1.0  0.43516  0.98562  0.23067  1.0000
  C   C1656     1.0  0.64596  0.84927  0.06231  1.0000
  H   H2036     1.0  0.54959  0.66284  0.99073  1.0000
  C   C1657     1.0  0.65606  0.61442  0.00865  1.0000
  H   H2037     1.0  0.45692  0.95207  0.23007  1.0000
  H   H2038     1.0  0.63046  0.82211  0.03650  1.0000
  C   C1658     1.0  0.34056  0.50281  0.00223  1.0000
  H   H2039     1.0  0.64415  0.80571  0.02524  1.0000
  C   C1659     1.0  0.40925  0.60663  0.98793  1.0000
  H   H2040     1.0  0.63453  0.63345  0.05453  1.0000
  H   H2041     1.0  0.45763  0.92504  0.22283  1.0000
  C   C1660     1.0  0.36246  0.62991  0.98999  1.0000
  H   H2042     1.0  0.65108  0.89549  0.18848  1.0000
  H   H2043     1.0  0.45470  0.84349  0.22680  1.0000
  H   H2044     1.0  0.42209  0.98333  0.23196  1.0000
  H   H2045     1.0  0.65115  0.82509  0.02249  1.0000
  H   H2046     1.0  0.33323  0.49564  0.01443  1.0000
  H   H2047     1.0  0.65620  0.97346  0.22428  1.0000
  H   H2048     1.0  0.39951  0.86195  0.23446  1.0000
  H   H2049     1.0  0.42249  0.69924  0.99853  1.0000
  H   H2050     1.0  0.33547  0.57363  0.98629  1.0000
  C   C1661     1.0  0.42106  0.71300  0.99286  1.0000
  C   C1662     1.0  0.43141  0.66331  0.98680  1.0000
  C   C1663     1.0  0.58606  0.63042  0.98642  1.0000
  C   C1664     1.0  0.44236  0.84799  0.23511  1.0000
  C   C1665     1.0  0.44718  0.78506  0.98552  1.0000
  H   H2051     1.0  0.46482  0.58224  0.98670  1.0000
  C   C1666     1.0  0.34067  0.61774  0.98611  1.0000
  H   H2052     1.0  0.48440  0.78755  0.98672  1.0000
  H   H2053     1.0  0.64690  0.75407  0.98555  1.0000
  H   H2054     1.0  0.40741  0.94317  0.32094  1.0000
  Fe  Fe223     1.0  0.48770  0.89181  0.29371  1.0000
  S   S447      1.0  0.48743  0.90559  0.26602  1.0000
  S   S448      1.0  0.51283  0.88276  0.30289  1.0000
  Fe  Fe224     1.0  0.44913  0.89103  0.30215  1.0000
  S   S449      1.0  0.44575  0.90497  0.27492  1.0000
  S   S450      1.0  0.42906  0.87900  0.32357  1.0000
  Fe  Fe225     1.0  0.47142  0.88755  0.26636  1.0000
  H   H2055     1.0  0.65602  0.94159  0.28564  1.0000
  Fe  Fe226     1.0  0.46209  0.92170  0.27722  1.0000
  S   S451      1.0  0.45839  0.95029  0.26541  1.0000
  S   S452      1.0  0.47373  0.87225  0.29330  1.0000
  S   S453      1.0  0.46341  0.90922  0.30521  1.0000
  Fe  Fe227     1.0  0.34040  0.91257  0.37859  1.0000
  C   C1667     1.0  0.52392  0.87017  0.24755  1.0000
  S   S454      1.0  0.35291  0.92086  0.35022  1.0000
  Fe  Fe228     1.0  0.33881  0.88666  0.41341  1.0000
  H   H2056     1.0  0.54786  0.96669  0.27442  1.0000
  S   S455      1.0  0.35056  0.86006  0.42758  1.0000
  H   H2057     1.0  0.37444  0.88780  0.43673  1.0000
  C   C1668     1.0  0.35237  0.95639  0.38990  1.0000
  S   S456      1.0  0.38202  0.94110  0.48376  1.0000
  C   C1669     1.0  0.42637  0.97800  0.30561  1.0000
  H   H2058     1.0  0.45432  0.84694  0.25524  1.0000
  S   S457      1.0  0.35530  0.90604  0.39959  1.0000
  S   S458      1.0  0.61406  0.92892  0.27211  1.0000
  C   C1670     1.0  0.65291  0.94083  0.26067  1.0000
  C   C1671     1.0  0.59007  0.94605  0.30606  1.0000
  C   C1672     1.0  0.57108  0.97953  0.29457  1.0000
  Fe  Fe229     1.0  0.62147  0.88754  0.25550  1.0000
  H   H2059     1.0  0.35218  0.97205  0.42423  1.0000
  H   H2060     1.0  0.38435  0.83582  0.47297  1.0000
  H   H2061     1.0  0.54223  0.94324  0.30055  1.0000
  C   C1673     1.0  0.56238  0.96557  0.30041  1.0000
  C   C1674     1.0  0.65701  0.89810  0.32727  1.0000
  Fe  Fe230     1.0  0.62569  0.90157  0.28457  1.0000
  H   H2062     1.0  0.42139  0.96845  0.47832  1.0000
  C   C1675     1.0  0.39427  0.92968  0.38424  1.0000
  C   C1676     1.0  0.41017  0.95554  0.32023  1.0000
  C   C1677     1.0  0.35819  0.96957  0.37623  1.0000
  H   H2063     1.0  0.47731  0.97750  0.25186  1.0000
  C   C1678     1.0  0.35120  0.87174  0.47243  1.0000
  H   H2064     1.0  0.56903  0.89710  0.29172  1.0000
  C   C1679     1.0  0.65441  0.82547  0.30495  1.0000
  H   H2065     1.0  0.35948  0.96905  0.36286  1.0000
  C   C1680     1.0  0.35384  0.97129  0.41089  1.0000
  C   C1681     1.0  0.42275  0.96206  0.30659  1.0000
  C   C1682     1.0  0.40846  0.89153  0.33126  1.0000
  C   C1683     1.0  0.39839  0.88458  0.34724  1.0000
  C   C1684     1.0  0.38154  0.89374  0.35339  1.0000
  C   C1685     1.0  0.37449  0.90976  0.34339  1.0000
  C   C1686     1.0  0.38461  0.91680  0.32745  1.0000
  C   C1687     1.0  0.40163  0.90780  0.32146  1.0000
  H   H2066     1.0  0.40358  0.87197  0.35484  1.0000
  H   H2067     1.0  0.37383  0.88817  0.36566  1.0000
  H   H2068     1.0  0.37919  0.92919  0.31967  1.0000
  H   H2069     1.0  0.40928  0.91322  0.30910  1.0000
  C   C1688     1.0  0.46858  0.95959  0.27551  1.0000
  H   H2070     1.0  0.64841  0.92103  0.35997  1.0000
  C   C1689     1.0  0.44191  0.85007  0.25162  1.0000
  C   C1690     1.0  0.65439  0.94074  0.33695  1.0000
  C   C1691     1.0  0.47553  0.96197  0.30161  1.0000
  C   C1692     1.0  0.46819  0.95388  0.29339  1.0000
  C   C1693     1.0  0.59816  0.96007  0.30031  1.0000
  H   H2071     1.0  0.58148  0.88032  0.25876  1.0000
  H   H2072     1.0  0.47457  0.95794  0.31556  1.0000
  H   H2073     1.0  0.46147  0.94383  0.30114  1.0000
  N   N116      1.0  0.38756  0.90839  0.43303  1.0000
  H   H2074     1.0  0.36078  0.90926  0.43446  1.0000
  H   H2075     1.0  0.33593  0.88226  0.45273  1.0000
  N   N117      1.0  0.56532  0.88588  0.24011  1.0000
  H   H2076     1.0  0.54640  0.90498  0.25303  1.0000
  C   C1694     1.0  0.47679  0.97313  0.26572  1.0000
  H   H2077     1.0  0.39454  0.93139  0.43429  1.0000
  C   C1695     1.0  0.39211  0.91097  0.41378  1.0000
  H   H2078     1.0  0.40797  0.96202  0.45876  1.0000
  C   C1696     1.0  0.65598  0.96659  0.23768  1.0000
  C   C1697     1.0  0.54403  0.89114  0.29702  1.0000
  C   C1698     1.0  0.52698  0.89708  0.29450  1.0000
  C   C1699     1.0  0.52172  0.91406  0.28503  1.0000
  C   C1700     1.0  0.53367  0.92488  0.27782  1.0000
  H   H2079     1.0  0.54806  0.87812  0.30456  1.0000
  H   H2080     1.0  0.50845  0.91887  0.28333  1.0000
  H   H2081     1.0  0.63693  0.83061  0.28009  1.0000
  S   S459      1.0  0.61016  0.91395  0.24085  1.0000
  H   H2082     1.0  0.40195  0.91665  0.36297  1.0000
  H   H2083     1.0  0.63745  0.86901  0.29592  1.0000
  H   H2084     1.0  0.52648  0.97851  0.28267  1.0000
  H   H2085     1.0  0.34949  0.94564  0.38694  1.0000
  H   H2086     1.0  0.65079  0.92776  0.26511  1.0000
  C   C1701     1.0  0.39062  0.92775  0.40234  1.0000
  H   H2087     1.0  0.42977  0.95470  0.29669  1.0000
  C   C1702     1.0  0.33871  0.95854  0.47111  1.0000
  C   C1703     1.0  0.35548  0.85948  0.44736  1.0000
  S   S460      1.0  0.48014  0.87245  0.24538  1.0000
  H   H2088     1.0  0.64376  0.82115  0.31572  1.0000
  H   H2089     1.0  0.40147  0.85035  0.29218  1.0000
  H   H2090     1.0  0.52958  0.93796  0.27042  1.0000
  C   C1704     1.0  0.37210  0.90067  0.43993  1.0000
  H   H2091     1.0  0.44654  0.89446  0.23948  1.0000
  C   C1705     1.0  0.57249  0.94863  0.30596  1.0000
  H   H2092     1.0  0.40494  0.88721  0.38210  1.0000
  H   H2093     1.0  0.36816  0.89855  0.45437  1.0000
  H   H2094     1.0  0.43622  0.98249  0.29473  1.0000
  H   H2095     1.0  0.38059  0.92233  0.45369  1.0000
  C   C1706     1.0  0.41130  0.85849  0.23939  1.0000
  C   C1707     1.0  0.36886  0.84619  0.45339  1.0000
  H   H2096     1.0  0.37168  0.93397  0.43508  1.0000
  H   H2097     1.0  0.45043  0.86514  0.27400  1.0000
  H   H2098     1.0  0.59759  0.93303  0.31032  1.0000
  C   C1708     1.0  0.34941  0.95771  0.40721  1.0000
  C   C1709     1.0  0.55599  0.90184  0.28961  1.0000
  S   S461      1.0  0.64389  0.89513  0.26001  1.0000
  C   C1710     1.0  0.40215  0.89631  0.44075  1.0000
  S   S462      1.0  0.56614  0.93173  0.26940  1.0000
  C   C1711     1.0  0.39948  0.91511  0.37699  1.0000
  C   C1712     1.0  0.36129  0.98388  0.37992  1.0000
  H   H2099     1.0  0.40460  0.88289  0.43880  1.0000
  Fe  Fe231     1.0  0.33319  0.92482  0.41196  1.0000
  C   C1713     1.0  0.55095  0.91862  0.27977  1.0000
  S   S463      1.0  0.33860  0.94349  0.42406  1.0000
  H   H2100     1.0  0.39111  0.96002  0.34337  1.0000
  H   H2101     1.0  0.56720  0.93712  0.31012  1.0000
  C   C1714     1.0  0.53609  0.95330  0.30840  1.0000
  H   H2102     1.0  0.53769  0.97835  0.32434  1.0000
  H   H2103     1.0  0.62747  0.85345  0.27942  1.0000
  C   C1715     1.0  0.37372  0.84593  0.46861  1.0000
  H   H2104     1.0  0.41439  0.90103  0.43501  1.0000
  Fe  Fe232     1.0  0.59442  0.91788  0.26710  1.0000
  S   S464      1.0  0.60456  0.89085  0.28155  1.0000
  H   H2105     1.0  0.39271  0.94260  0.37580  1.0000
  C   C1716     1.0  0.55771  0.90411  0.24188  1.0000
  C   C1717     1.0  0.53662  0.87695  0.25005  1.0000
  H   H2106     1.0  0.35192  0.96139  0.46710  1.0000
  H   H2107     1.0  0.39941  0.89487  0.45515  1.0000
  H   H2108     1.0  0.39838  0.88326  0.41374  1.0000
  H   H2109     1.0  0.38631  0.93962  0.40701  1.0000
  H   H2110     1.0  0.65630  0.95532  0.40001  1.0000
  C   C1718     1.0  0.41065  0.86043  0.25601  1.0000
  H   H2111     1.0  0.51230  0.86886  0.25765  1.0000
  N   N118      1.0  0.54356  0.96901  0.30085  1.0000
  H   H2112     1.0  0.44951  0.84278  0.28462  1.0000
  H   H2113     1.0  0.64627  0.90392  0.33644  1.0000
  H   H2114     1.0  0.40206  0.88087  0.28026  1.0000
  H   H2115     1.0  0.37577  0.83628  0.44607  1.0000
  C   C1719     1.0  0.40110  0.96499  0.33291  1.0000
  S   S465      1.0  0.63208  0.89820  0.31073  1.0000
  N   N119      1.0  0.42501  0.85971  0.27977  1.0000
  C   C1720     1.0  0.41506  0.84801  0.29364  1.0000
  C   C1721     1.0  0.44232  0.85657  0.28389  1.0000
  C   C1722     1.0  0.41607  0.87805  0.28041  1.0000
  S   S466      1.0  0.62159  0.86517  0.24479  1.0000
  H   H2116     1.0  0.62236  0.83748  0.29878  1.0000
  H   H2117     1.0  0.56048  0.87587  0.26812  1.0000
  C   C1723     1.0  0.58868  0.97676  0.29457  1.0000
  C   C1724     1.0  0.38346  0.92478  0.43918  1.0000
  H   H2118     1.0  0.33774  0.95227  0.46109  1.0000
  C   C1725     1.0  0.53388  0.98204  0.31151  1.0000
  H   H2119     1.0  0.42128  0.83409  0.29351  1.0000
  H   H2120     1.0  0.41427  0.84993  0.30684  1.0000
  C   C1726     1.0  0.39750  0.89640  0.40592  1.0000
  H   H2121     1.0  0.44122  0.85927  0.29679  1.0000
  H   H2122     1.0  0.52191  0.95639  0.30854  1.0000
  H   H2123     1.0  0.65845  0.97593  0.46427  1.0000
  H   H2124     1.0  0.42215  0.88725  0.26911  1.0000
  C   C1727     1.0  0.48335  0.97576  0.29190  1.0000
  H   H2125     1.0  0.53420  0.88084  0.26224  1.0000
  H   H2126     1.0  0.62971  0.85339  0.31460  1.0000
  H   H2127     1.0  0.41658  0.88134  0.29256  1.0000
  C   C1728     1.0  0.34647  0.87213  0.45704  1.0000
  H   H2128     1.0  0.39805  0.86520  0.26364  1.0000
  Fe  Fe233     1.0  0.63100  0.92195  0.24745  1.0000
  H   H2129     1.0  0.61185  0.95798  0.30015  1.0000
  C   C1729     1.0  0.40118  0.89850  0.38781  1.0000
  C   C1730     1.0  0.42598  0.85664  0.26250  1.0000
  C   C1731     1.0  0.54050  0.97604  0.28287  1.0000
  C   C1732     1.0  0.36511  0.85886  0.47800  1.0000
  S   S467      1.0  0.32575  0.89117  0.39117  1.0000
  H   H2130     1.0  0.64825  0.93646  0.32924  1.0000
  C   C1733     1.0  0.40465  0.98093  0.33210  1.0000
  H   H2131     1.0  0.34413  0.88144  0.47991  1.0000
  H   H2132     1.0  0.53759  0.94750  0.32208  1.0000
  N   N120      1.0  0.64804  0.84247  0.29364  1.0000
  H   H2133     1.0  0.44139  0.97538  0.24063  1.0000
  H   H2134     1.0  0.33789  0.94862  0.48366  1.0000
  C   C1734     1.0  0.65249  0.94993  0.24347  1.0000
  C   C1735     1.0  0.57116  0.87546  0.25636  1.0000
  C   C1736     1.0  0.63312  0.84091  0.28768  1.0000
  C   C1737     1.0  0.64133  0.85588  0.30423  1.0000
  H   H2135     1.0  0.65102  0.85669  0.31098  1.0000
  H   H2136     1.0  0.39756  0.98506  0.43452  1.0000
  C   C1738     1.0  0.65846  0.95401  0.42598  1.0000
  C   C1739     1.0  0.65617  0.94858  0.27225  1.0000
  C   C1740     1.0  0.35985  0.98435  0.39723  1.0000
  C   C1741     1.0  0.41750  0.97906  0.46784  1.0000
  C   C1742     1.0  0.65440  0.93212  0.35425  1.0000
  H   H2137     1.0  0.56726  0.91005  0.24423  1.0000
  C   C1743     1.0  0.65375  0.89439  0.31289  1.0000
  H   H2138     1.0  0.65346  0.94228  0.43154  1.0000
  C   C1744     1.0  0.40982  0.97511  0.45657  1.0000
  H   H2139     1.0  0.57658  0.86155  0.25569  1.0000
  C   C1745     1.0  0.48444  0.98099  0.27388  1.0000
  H   H2140     1.0  0.65180  0.84751  0.25725  1.0000
  H   H2141     1.0  0.32609  0.98096  0.44491  1.0000
  C   C1746     1.0  0.55204  0.87868  0.23712  1.0000
  H   H2142     1.0  0.51960  0.98337  0.31416  1.0000
  C   C1747     1.0  0.32676  0.98686  0.45533  1.0000
  Fe  Fe234     1.0  0.43957  0.89753  0.60407  1.0000
  S   S468      1.0  0.45750  0.91562  0.59858  1.0000
  S   S469      1.0  0.43228  0.89421  0.58066  1.0000
  Fe  Fe235     1.0  0.44046  0.88619  0.64267  1.0000
  S   S470      1.0  0.45794  0.90348  0.64040  1.0000
  S   S471      1.0  0.43433  0.86879  0.66910  1.0000
  Fe  Fe236     1.0  0.44106  0.92299  0.62330  1.0000
  S   S472      1.0  0.43153  0.95017  0.62698  1.0000
  Fe  Fe237     1.0  0.47268  0.89429  0.61621  1.0000
  S   S473      1.0  0.50153  0.88436  0.61315  1.0000
  S   S474      1.0  0.42194  0.90669  0.62762  1.0000
  S   S475      1.0  0.45642  0.87534  0.61956  1.0000
  Fe  Fe238     1.0  0.57622  0.92749  0.60119  1.0000
  S   S476      1.0  0.58510  0.93900  0.61803  1.0000
  S   S477      1.0  0.54903  0.93799  0.59632  1.0000
  Fe  Fe239     1.0  0.61194  0.90422  0.59179  1.0000
  S   S478      1.0  0.62390  0.91320  0.60825  1.0000
  S   S479      1.0  0.62648  0.88475  0.57529  1.0000
  Fe  Fe240     1.0  0.59888  0.91170  0.62812  1.0000
  S   S480      1.0  0.59322  0.90195  0.65728  1.0000
  H   H2143     1.0  0.34936  0.96597  0.49388  1.0000
  H   H2144     1.0  0.51704  0.88687  0.69281  1.0000
  S   S481      1.0  0.58827  0.89999  0.61271  1.0000
  S   S482      1.0  0.59899  0.93084  0.57893  1.0000
  C   C1748     1.0  0.54318  0.95270  0.69156  1.0000
  H   H2145     1.0  0.38898  0.98622  0.63782  1.0000
  S   S483      1.0  0.63042  0.92109  0.70543  1.0000
  H   H2146     1.0  0.37440  0.93724  0.58556  1.0000
  Fe  Fe241     1.0  0.35909  0.89904  0.53682  1.0000
  S   S484      1.0  0.38147  0.89342  0.51463  1.0000
  S   S485      1.0  0.36006  0.89577  0.56510  1.0000
  C   C1749     1.0  0.35342  0.95919  0.55559  1.0000
  H   H2147     1.0  0.53175  0.95348  0.70205  1.0000
  Fe  Fe242     1.0  0.36307  0.88351  0.50596  1.0000
  S   S486      1.0  0.37239  0.85879  0.49630  1.0000
  Fe  Fe243     1.0  0.36927  0.91932  0.49964  1.0000
  S   S487      1.0  0.34158  0.88677  0.52947  1.0000
  S   S488      1.0  0.34829  0.92580  0.52228  1.0000
  C   C1750     1.0  0.39238  0.93790  0.51377  1.0000
  H   H2148     1.0  0.39401  0.92401  0.51562  1.0000
  H   H2149     1.0  0.40070  0.93552  0.53730  1.0000
  H   H2150     1.0  0.50044  0.94752  0.70844  1.0000
  H   H2151     1.0  0.55507  0.90602  0.71727  1.0000
  C   C1751     1.0  0.47280  0.98021  0.68699  1.0000
  C   C1752     1.0  0.39448  0.95687  0.60325  1.0000
  H   H2152     1.0  0.46448  0.92085  0.67222  1.0000
  C   C1753     1.0  0.38595  0.97711  0.63185  1.0000
  N   N121      1.0  0.38452  0.98498  0.61348  1.0000
  C   C1754     1.0  0.55542  0.96240  0.68953  1.0000
  H   H2153     1.0  0.56319  0.93104  0.65926  1.0000
  S   S489      1.0  0.35297  0.90906  0.48890  1.0000
  H   H2154     1.0  0.37369  0.97334  0.63988  1.0000
  C   C1755     1.0  0.63845  0.98326  0.61607  1.0000
  H   H2155     1.0  0.49207  0.94636  0.62586  1.0000
  H   H2156     1.0  0.60578  0.94872  0.66880  1.0000
  C   C1756     1.0  0.47474  0.96593  0.63913  1.0000
  H   H2157     1.0  0.56664  0.92495  0.72808  1.0000
  H   H2158     1.0  0.64264  0.90947  0.54699  1.0000
  C   C1757     1.0  0.43052  0.89750  0.68167  1.0000
  C   C1758     1.0  0.57434  0.98575  0.58653  1.0000
  S   S490      1.0  0.51999  0.90291  0.72120  1.0000
  C   C1759     1.0  0.60358  0.90781  0.67025  1.0000
  C   C1760     1.0  0.59546  0.90782  0.68774  1.0000
  C   C1761     1.0  0.60358  0.91191  0.69861  1.0000
  C   C1762     1.0  0.62008  0.91562  0.69215  1.0000
  C   C1763     1.0  0.62823  0.91559  0.67466  1.0000
  C   C1764     1.0  0.61988  0.91195  0.66365  1.0000
  H   H2159     1.0  0.58283  0.90465  0.69289  1.0000
  H   H2160     1.0  0.59720  0.91193  0.71204  1.0000
  H   H2161     1.0  0.64096  0.91853  0.66959  1.0000
  H   H2162     1.0  0.62627  0.91188  0.65021  1.0000
  C   C1765     1.0  0.41154  0.89674  0.57652  1.0000
  C   C1766     1.0  0.41063  0.89634  0.55979  1.0000
  C   C1767     1.0  0.39482  0.89661  0.55610  1.0000
  C   C1768     1.0  0.37974  0.89697  0.56920  1.0000
  C   C1769     1.0  0.38049  0.89783  0.58589  1.0000
  C   C1770     1.0  0.39631  0.89789  0.58953  1.0000
  H   H2163     1.0  0.42230  0.89554  0.54963  1.0000
  H   H2164     1.0  0.39446  0.89607  0.54319  1.0000
  H   H2165     1.0  0.36886  0.89819  0.59610  1.0000
  H   H2166     1.0  0.39680  0.89832  0.60244  1.0000
  C   C1771     1.0  0.51373  0.89977  0.61022  1.0000
  C   C1772     1.0  0.50758  0.91744  0.60330  1.0000
  C   C1773     1.0  0.51842  0.92917  0.59934  1.0000
  C   C1774     1.0  0.53524  0.92333  0.60261  1.0000
  C   C1775     1.0  0.54100  0.90584  0.61030  1.0000
  C   C1776     1.0  0.53038  0.89404  0.61386  1.0000
  H   H2167     1.0  0.49475  0.92190  0.60041  1.0000
  H   H2168     1.0  0.51391  0.94272  0.59353  1.0000
  H   H2169     1.0  0.55365  0.90135  0.61342  1.0000
  H   H2170     1.0  0.53509  0.88040  0.61937  1.0000
  H   H2171     1.0  0.47229  0.89068  0.68402  1.0000
  H   H2172     1.0  0.46839  0.93679  0.62050  1.0000
  C   C1777     1.0  0.43579  0.87936  0.68448  1.0000
  C   C1778     1.0  0.39620  0.94441  0.52603  1.0000
  S   S491      1.0  0.49152  0.97302  0.64228  1.0000
  H   H2173     1.0  0.55100  0.96925  0.60451  1.0000
  H   H2174     1.0  0.42532  0.90494  0.67030  1.0000
  S   S492      1.0  0.61987  0.96359  0.58686  1.0000
  C   C1779     1.0  0.57986  0.98247  0.68626  1.0000
  H   H2175     1.0  0.35050  0.96269  0.59110  1.0000
  S   S493      1.0  0.59581  0.95410  0.72724  1.0000
  H   H2176     1.0  0.48158  0.91828  0.65356  1.0000
  H   H2177     1.0  0.44656  0.85585  0.70157  1.0000
  H   H2178     1.0  0.48734  0.92474  0.69484  1.0000
  C   C1780     1.0  0.54482  0.90535  0.65851  1.0000
  H   H2179     1.0  0.55260  0.97042  0.69880  1.0000
  H   H2180     1.0  0.63207  0.94560  0.64518  1.0000
  C   C1781     1.0  0.65276  0.89935  0.55229  1.0000
  H   H2181     1.0  0.44219  0.97546  0.48721  1.0000
  H   H2182     1.0  0.58489  0.94740  0.65544  1.0000
  H   H2183     1.0  0.49289  0.88021  0.68942  1.0000
  C   C1782     1.0  0.44240  0.86988  0.69937  1.0000
  H   H2184     1.0  0.40237  0.93336  0.59350  1.0000
  C   C1783     1.0  0.39404  0.96236  0.52382  1.0000
  C   C1784     1.0  0.38471  0.96723  0.49681  1.0000
  N   N122      1.0  0.41438  0.84934  0.63113  1.0000
  C   C1785     1.0  0.43306  0.84058  0.62726  1.0000
  C   C1786     1.0  0.41300  0.86793  0.63020  1.0000
  C   C1787     1.0  0.40696  0.84133  0.64941  1.0000
  C   C1788     1.0  0.40547  0.84818  0.61816  1.0000
  C   C1789     1.0  0.38969  0.84235  0.62297  1.0000
  C   C1790     1.0  0.41197  0.85402  0.60006  1.0000
  C   C1791     1.0  0.38100  0.84261  0.61035  1.0000
  C   C1792     1.0  0.40323  0.85413  0.58759  1.0000
  C   C1793     1.0  0.38770  0.84860  0.59271  1.0000
  H   H2185     1.0  0.44028  0.84716  0.61466  1.0000
  H   H2186     1.0  0.43987  0.84064  0.63731  1.0000
  H   H2187     1.0  0.43469  0.82680  0.62675  1.0000
  H   H2188     1.0  0.39918  0.87516  0.63252  1.0000
  H   H2189     1.0  0.41956  0.87454  0.61722  1.0000
  H   H2190     1.0  0.41905  0.86950  0.64012  1.0000
  H   H2191     1.0  0.39334  0.84825  0.65382  1.0000
  H   H2192     1.0  0.40740  0.82730  0.65100  1.0000
  H   H2193     1.0  0.41431  0.84211  0.65870  1.0000
  H   H2194     1.0  0.38365  0.83779  0.63637  1.0000
  H   H2195     1.0  0.42356  0.85920  0.59535  1.0000
  H   H2196     1.0  0.36886  0.83838  0.61424  1.0000
  H   H2197     1.0  0.40825  0.85910  0.57387  1.0000
  H   H2198     1.0  0.38073  0.84924  0.58296  1.0000
  H   H2199     1.0  0.53776  0.92581  0.63695  1.0000
  C   C1794     1.0  0.52101  0.89550  0.68050  1.0000
  C   C1795     1.0  0.53301  0.91741  0.64918  1.0000
  H   H2200     1.0  0.55865  0.90436  0.65357  1.0000
  C   C1796     1.0  0.39199  0.94459  0.59585  1.0000
  H   H2201     1.0  0.49527  0.96103  0.67866  1.0000
  C   C1797     1.0  0.42896  0.97384  0.56642  1.0000
  H   H2202     1.0  0.35836  0.93187  0.55701  1.0000
  H   H2203     1.0  0.49689  0.97451  0.58427  1.0000
  C   C1798     1.0  0.38687  0.94928  0.49903  1.0000
  C   C1799     1.0  0.60069  0.95755  0.67800  1.0000
  C   C1800     1.0  0.44404  0.96900  0.64128  1.0000
  C   C1801     1.0  0.53238  0.97414  0.64548  1.0000
  C   C1802     1.0  0.54854  0.97451  0.61585  1.0000
  N   N123      1.0  0.48980  0.90787  0.67802  1.0000
  C   C1803     1.0  0.43796  0.89671  0.70874  1.0000
  S   S494      1.0  0.39894  0.97035  0.53920  1.0000
  C   C1804     1.0  0.57321  0.94960  0.66538  1.0000
  C   C1805     1.0  0.48642  0.89059  0.67969  1.0000
  C   C1806     1.0  0.44801  0.95557  0.63254  1.0000
  C   C1807     1.0  0.48673  0.96611  0.68965  1.0000
  H   H2204     1.0  0.64822  0.90566  0.48897  1.0000
  C   C1808     1.0  0.46529  0.94707  0.62742  1.0000
  Fe  Fe244     1.0  0.60905  0.93966  0.59686  1.0000
  N   N124      1.0  0.65600  0.96502  0.69898  1.0000
  C   C1809     1.0  0.44372  0.87858  0.71139  1.0000
  C   C1810     1.0  0.62739  0.96606  0.60380  1.0000
  C   C1811     1.0  0.51515  0.91852  0.65536  1.0000
  H   H2205     1.0  0.54805  0.88553  0.68171  1.0000
  N   N125      1.0  0.58463  0.97041  0.67434  1.0000
  H   H2206     1.0  0.43065  0.97550  0.64535  1.0000
  C   C1812     1.0  0.47851  0.92096  0.66680  1.0000
  C   C1813     1.0  0.54624  0.91540  0.72447  1.0000
  H   H2207     1.0  0.41264  0.97963  0.60496  1.0000
  H   H2208     1.0  0.44868  0.87123  0.72292  1.0000
  H   H2209     1.0  0.49109  0.90209  0.70517  1.0000
  C   C1814     1.0  0.45743  0.97404  0.64477  1.0000
  H   H2210     1.0  0.59834  0.94921  0.69137  1.0000
  H   H2211     1.0  0.59356  0.97269  0.64645  1.0000
  H   H2212     1.0  0.61139  0.96390  0.67682  1.0000
  H   H2213     1.0  0.45845  0.95595  0.59179  1.0000
  C   C1815     1.0  0.63334  0.98095  0.60204  1.0000
  S   S495      1.0  0.43784  0.90822  0.72396  1.0000
  C   C1816     1.0  0.58854  0.98087  0.65627  1.0000
  H   H2214     1.0  0.45838  0.98228  0.60641  1.0000
  H   H2215     1.0  0.42079  0.98125  0.50054  1.0000
  C   C1817     1.0  0.37621  0.94674  0.59140  1.0000
  C   C1818     1.0  0.43852  0.96165  0.57793  1.0000
  C   C1819     1.0  0.65763  0.88747  0.51086  1.0000
  C   C1820     1.0  0.48963  0.95856  0.70641  1.0000
  H   H2216     1.0  0.52290  0.96918  0.65654  1.0000
  C   C1821     1.0  0.47851  0.96502  0.72061  1.0000
  C   C1822     1.0  0.45212  0.96564  0.58213  1.0000
  H   H2217     1.0  0.48131  0.95876  0.73338  1.0000
  H   H2218     1.0  0.57779  0.97540  0.70015  1.0000
  N   N126      1.0  0.45189  0.98510  0.73384  1.0000
  H   H2219     1.0  0.64664  0.89246  0.52041  1.0000
  C   C1823     1.0  0.33893  0.97720  0.49566  1.0000
  H   H2220     1.0  0.63190  0.95698  0.71015  1.0000
  H   H2221     1.0  0.39644  0.96512  0.63305  1.0000
  N   N127      1.0  0.57624  0.88299  0.57248  1.0000
  C   C1824     1.0  0.57862  0.90082  0.57024  1.0000
  C   C1825     1.0  0.58033  0.87258  0.58951  1.0000
  C   C1826     1.0  0.58906  0.87535  0.55839  1.0000
  C   C1827     1.0  0.55848  0.88262  0.57188  1.0000
  C   C1828     1.0  0.55398  0.86648  0.57438  1.0000
  C   C1829     1.0  0.54522  0.89797  0.56894  1.0000
  C   C1830     1.0  0.53719  0.86573  0.57435  1.0000
  C   C1831     1.0  0.52853  0.89705  0.56875  1.0000
  C   C1832     1.0  0.52448  0.88098  0.57159  1.0000
  H   H2222     1.0  0.56977  0.90718  0.58076  1.0000
  H   H2223     1.0  0.59206  0.90064  0.57076  1.0000
  H   H2224     1.0  0.57640  0.90926  0.55742  1.0000
  H   H2225     1.0  0.57038  0.87720  0.60052  1.0000
  H   H2226     1.0  0.59323  0.87337  0.59081  1.0000
  H   H2227     1.0  0.58089  0.85851  0.59142  1.0000
  H   H2228     1.0  0.58620  0.88255  0.54539  1.0000
  H   H2229     1.0  0.60255  0.87581  0.55827  1.0000
  H   H2230     1.0  0.58916  0.86145  0.55991  1.0000
  H   H2231     1.0  0.56332  0.85428  0.57673  1.0000
  H   H2232     1.0  0.54717  0.91085  0.56733  1.0000
  H   H2233     1.0  0.53384  0.85326  0.57688  1.0000
  H   H2234     1.0  0.51841  0.90883  0.56716  1.0000
  H   H2235     1.0  0.51130  0.88035  0.57222  1.0000
  H   H2236     1.0  0.65808  0.86265  0.58437  1.0000
  C   C1833     1.0  0.53882  0.89460  0.67426  1.0000
  H   H2237     1.0  0.50679  0.92811  0.64744  1.0000
  C   C1834     1.0  0.38135  0.97198  0.60600  1.0000
  C   C1835     1.0  0.50859  0.90740  0.67119  1.0000
  C   C1836     1.0  0.54596  0.94141  0.68070  1.0000
  C   C1837     1.0  0.48439  0.91215  0.69543  1.0000
  C   C1838     1.0  0.45696  0.98189  0.57443  1.0000
  H   H2238     1.0  0.53675  0.93344  0.68272  1.0000
  Fe  Fe245     1.0  0.33291  0.91316  0.51299  1.0000
  C   C1839     1.0  0.62682  0.95340  0.61939  1.0000
  H   H2239     1.0  0.43514  0.94912  0.58389  1.0000
  C   C1840     1.0  0.63242  0.95546  0.63317  1.0000
  H   H2240     1.0  0.47976  0.93441  0.66562  1.0000
  H   H2241     1.0  0.62197  0.94204  0.62099  1.0000
  H   H2242     1.0  0.48215  0.96090  0.59391  1.0000
  C   C1841     1.0  0.63710  0.96783  0.70040  1.0000
  H   H2243     1.0  0.36673  0.95882  0.55557  1.0000
  H   H2244     1.0  0.40679  0.95440  0.60684  1.0000
  C   C1842     1.0  0.43139  0.90610  0.69385  1.0000
  H   H2245     1.0  0.65771  0.94910  0.57932  1.0000
  S   S496      1.0  0.64290  0.97383  0.64961  1.0000
  C   C1843     1.0  0.36524  0.97354  0.60172  1.0000
  H   H2246     1.0  0.63413  0.96847  0.68775  1.0000
  H   H2247     1.0  0.45430  0.98413  0.65190  1.0000
  C   C1844     1.0  0.56087  0.94002  0.66754  1.0000
  C   C1845     1.0  0.65384  0.97981  0.72280  1.0000
  C   C1846     1.0  0.36281  0.96108  0.59449  1.0000
  C   C1847     1.0  0.34106  0.97479  0.55499  1.0000
  C   C1848     1.0  0.48567  0.97092  0.58208  1.0000
  C   C1849     1.0  0.34862  0.94399  0.55648  1.0000
  H   H2248     1.0  0.57997  0.97162  0.59086  1.0000
  C   C1850     1.0  0.38818  0.97377  0.50926  1.0000
  H   H2249     1.0  0.42683  0.92010  0.69178  1.0000
  H   H2250     1.0  0.41826  0.97075  0.56341  1.0000
  H   H2251     1.0  0.47020  0.91319  0.70075  1.0000
  H   H2252     1.0  0.49104  0.88659  0.66696  1.0000
  C   C1851     1.0  0.33147  0.94434  0.55646  1.0000
  C   C1852     1.0  0.53657  0.96800  0.63031  1.0000
  H   H2253     1.0  0.49032  0.96472  0.57069  1.0000
  C   C1853     1.0  0.63797  0.97049  0.63161  1.0000
  C   C1854     1.0  0.57092  0.96109  0.67633  1.0000
  C   C1855     1.0  0.64830  0.88610  0.56667  1.0000
  C   C1856     1.0  0.47868  0.95242  0.63050  1.0000
  H   H2254     1.0  0.53021  0.95838  0.62959  1.0000
  C   C1857     1.0  0.46389  0.97907  0.71846  1.0000
  Fe  Fe246     1.0  0.61374  0.92788  0.73052  1.0000
  H   H2255     1.0  0.59082  0.97991  0.61321  1.0000
  H   H2256     1.0  0.32871  0.93198  0.55735  1.0000
  H   H2257     1.0  0.62975  0.98010  0.70464  1.0000
  C   C1858     1.0  0.55278  0.92608  0.73058  1.0000
  H   H2258     1.0  0.65364  0.97222  0.52287  1.0000
  N   N128      1.0  0.47103  0.98627  0.57934  1.0000
  H   H2259     1.0  0.34966  0.98111  0.51516  1.0000
  C   C1859     1.0  0.52831  0.91663  0.72800  1.0000
  H   H2260     1.0  0.47066  0.98609  0.67388  1.0000
  H   H2261     1.0  0.38022  0.97608  0.48556  1.0000
  H   H2262     1.0  0.35439  0.98443  0.60351  1.0000
  C   C1860     1.0  0.46149  0.98667  0.70111  1.0000
  C   C1861     1.0  0.32554  0.98312  0.48601  1.0000
  C   C1862     1.0  0.43224  0.98637  0.49209  1.0000
  H   H2263     1.0  0.34474  0.98650  0.55482  1.0000
  C   C1863     1.0  0.33927  0.98583  0.50801  1.0000
  C   C1864     1.0  0.65851  0.89493  0.49317  1.0000
  H   H2264     1.0  0.64079  0.72672  0.98413  1.0000
  Fe  Fe247     1.0  0.60452  0.92157  0.76987  1.0000
  H   H2265     1.0  0.48539  0.88791  0.85000  1.0000
  S   S497      1.0  0.60636  0.90661  0.79736  1.0000
  C   C1865     1.0  0.37108  0.50360  0.85599  1.0000
  H   H2266     1.0  0.45261  0.73815  0.83297  1.0000
  S   S498      1.0  0.58594  0.94761  0.76957  1.0000
  H   H2267     1.0  0.60757  0.75968  0.93334  1.0000
  S   S499      1.0  0.49123  0.89523  0.76801  1.0000
  H   H2268     1.0  0.39198  0.51676  0.92768  1.0000
  H   H2269     1.0  0.62839  0.63875  0.95448  1.0000
  S   S500      1.0  0.45066  0.89431  0.77049  1.0000
  C   C1866     1.0  0.51609  0.79630  0.98411  1.0000
  H   H2270     1.0  0.36641  0.57935  0.93414  1.0000
  Fe  Fe248     1.0  0.47666  0.87551  0.76892  1.0000
  S   S501      1.0  0.48503  0.84967  0.78681  1.0000
  C   C1867     1.0  0.62532  0.59810  0.96590  1.0000
  C   C1868     1.0  0.52647  0.80050  0.95287  1.0000
  Fe  Fe249     1.0  0.44759  0.80440  0.87620  1.0000
  S   S502      1.0  0.46012  0.77665  0.87473  1.0000
  S   S503      1.0  0.43336  0.82343  0.85625  1.0000
  Fe  Fe250     1.0  0.45739  0.80070  0.91035  1.0000
  S   S504      1.0  0.47019  0.77246  0.91240  1.0000
  S   S505      1.0  0.45838  0.81555  0.92915  1.0000
  Fe  Fe251     1.0  0.48154  0.78072  0.88408  1.0000
  S   S506      1.0  0.50991  0.76955  0.87591  1.0000
  Fe  Fe252     1.0  0.44767  0.77050  0.90323  1.0000
  S   S507      1.0  0.43445  0.74807  0.91659  1.0000
  S   S508      1.0  0.47039  0.80924  0.88245  1.0000
  S   S509      1.0  0.43344  0.79812  0.90407  1.0000
  Fe  Fe253     1.0  0.61036  0.80715  0.89057  1.0000
  S   S510      1.0  0.59546  0.78630  0.90295  1.0000
  S   S511      1.0  0.62526  0.81064  0.90824  1.0000
  Fe  Fe254     1.0  0.59968  0.81470  0.85593  1.0000
  S   S512      1.0  0.58400  0.79413  0.86579  1.0000
  S   S513      1.0  0.59909  0.82815  0.82765  1.0000
  Fe  Fe255     1.0  0.57471  0.80460  0.88999  1.0000
  S   S514      1.0  0.54759  0.80723  0.90592  1.0000
  Fe  Fe256     1.0  0.60614  0.77736  0.87800  1.0000
  S   S515      1.0  0.61670  0.74833  0.88128  1.0000
  S   S516      1.0  0.58845  0.82661  0.87940  1.0000
  S   S517      1.0  0.62293  0.79688  0.86626  1.0000
  H   H2271     1.0  0.37998  0.49826  0.86525  1.0000
  Fe  Fe257     1.0  0.57839  0.67388  0.88329  1.0000
  S   S518      1.0  0.56335  0.65661  0.87988  1.0000
  S   S519      1.0  0.57149  0.70247  0.87087  1.0000
  Fe  Fe258     1.0  0.59662  0.64481  0.90877  1.0000
  S   S520      1.0  0.58292  0.62512  0.90794  1.0000
  S   S521      1.0  0.61493  0.63671  0.92684  1.0000
  Fe  Fe259     1.0  0.58852  0.63642  0.87916  1.0000
  Fe  Fe260     1.0  0.55925  0.64699  0.90879  1.0000
  S   S522      1.0  0.53289  0.64692  0.92638  1.0000
  S   S523      1.0  0.60405  0.65466  0.87985  1.0000
  S   S524      1.0  0.57251  0.66568  0.91236  1.0000
  S   S525      1.0  0.61603  0.70009  0.95457  1.0000
  Fe  Fe261     1.0  0.42117  0.63608  0.89661  1.0000
  S   S526      1.0  0.43238  0.62203  0.92027  1.0000
  S   S527      1.0  0.40004  0.62851  0.88925  1.0000
  Fe  Fe262     1.0  0.43833  0.66676  0.88970  1.0000
  S   S528      1.0  0.45022  0.65533  0.91303  1.0000
  S   S529      1.0  0.44529  0.69186  0.87312  1.0000
  Fe  Fe263     1.0  0.45694  0.63033  0.90443  1.0000
  S   S530      1.0  0.48417  0.61382  0.90365  1.0000
  Fe  Fe264     1.0  0.42471  0.64836  0.92659  1.0000
  S   S531      1.0  0.41096  0.65110  0.95367  1.0000
  S   S532      1.0  0.44658  0.64213  0.87991  1.0000
  S   S533      1.0  0.41200  0.66210  0.90406  1.0000
  Fe  Fe265     1.0  0.36566  0.54557  0.90279  1.0000
  S   S534      1.0  0.35177  0.53476  0.92969  1.0000
  S   S535      1.0  0.39184  0.55105  0.90042  1.0000
  H   H2272     1.0  0.42665  0.79648  0.84609  1.0000
  Fe  Fe266     1.0  0.34675  0.51546  0.91834  1.0000
  H   H2273     1.0  0.53988  0.97188  0.77400  1.0000
  S   S536      1.0  0.36316  0.52410  0.89225  1.0000
  H   H2274     1.0  0.55013  0.70424  0.90541  1.0000
  H   H2275     1.0  0.56827  0.78544  0.95171  1.0000
  H   H2276     1.0  0.38821  0.54279  0.93788  1.0000
  H   H2277     1.0  0.46225  0.70991  0.95267  1.0000
  H   H2278     1.0  0.59845  0.77904  0.98254  1.0000
  C   C1869     1.0  0.48715  0.97095  0.78437  1.0000
  H   H2279     1.0  0.34842  0.51701  0.96874  1.0000
  C   C1870     1.0  0.57360  0.66003  0.96109  1.0000
  H   H2280     1.0  0.40279  0.51453  0.85785  1.0000
  H   H2281     1.0  0.52748  0.68100  0.90482  1.0000
  C   C1871     1.0  0.61654  0.60477  0.85726  1.0000
  C   C1872     1.0  0.39773  0.60681  0.89340  1.0000
  C   C1873     1.0  0.38250  0.60394  0.89114  1.0000
  C   C1874     1.0  0.38033  0.58692  0.89380  1.0000
  C   C1875     1.0  0.39353  0.57259  0.89845  1.0000
  C   C1876     1.0  0.40869  0.57544  0.90092  1.0000
  C   C1877     1.0  0.41073  0.59248  0.89858  1.0000
  H   H2282     1.0  0.37239  0.61494  0.88712  1.0000
  H   H2283     1.0  0.36862  0.58492  0.89183  1.0000
  H   H2284     1.0  0.41896  0.56442  0.90452  1.0000
  H   H2285     1.0  0.42253  0.59452  0.90035  1.0000
  C   C1878     1.0  0.52339  0.93993  0.74261  1.0000
  C   C1879     1.0  0.42186  0.66121  0.96214  1.0000
  C   C1880     1.0  0.43249  0.67225  0.95104  1.0000
  C   C1881     1.0  0.44284  0.67855  0.95778  1.0000
  C   C1882     1.0  0.56584  0.81061  0.82220  1.0000
  H   H2286     1.0  0.43272  0.67599  0.93727  1.0000
  C   C1883     1.0  0.61723  0.65466  0.93272  1.0000
  C   C1884     1.0  0.62402  0.65183  0.94738  1.0000
  C   C1885     1.0  0.62448  0.66593  0.95342  1.0000
  C   C1886     1.0  0.61787  0.68295  0.94499  1.0000
  C   C1887     1.0  0.61154  0.68589  0.92994  1.0000
  C   C1888     1.0  0.61118  0.67168  0.92382  1.0000
  S   S537      1.0  0.61031  0.98572  0.74034  1.0000
  H   H2287     1.0  0.51452  0.94966  0.74926  1.0000
  H   H2288     1.0  0.60642  0.69906  0.92337  1.0000
  H   H2289     1.0  0.60595  0.67390  0.91243  1.0000
  C   C1889     1.0  0.51976  0.63674  0.92072  1.0000
  C   C1890     1.0  0.52679  0.62571  0.90905  1.0000
  C   C1891     1.0  0.51588  0.61807  0.90444  1.0000
  C   C1892     1.0  0.49790  0.62186  0.91106  1.0000
  C   C1893     1.0  0.49101  0.63260  0.92299  1.0000
  C   C1894     1.0  0.50191  0.63994  0.92789  1.0000
  H   H2290     1.0  0.54062  0.62302  0.90362  1.0000
  H   H2291     1.0  0.52134  0.60958  0.89537  1.0000
  H   H2292     1.0  0.47730  0.63519  0.92854  1.0000
  H   H2293     1.0  0.49643  0.64833  0.93706  1.0000
  C   C1895     1.0  0.60359  0.73581  0.87890  1.0000
  H   H2294     1.0  0.56352  0.98017  0.74729  1.0000
  C   C1896     1.0  0.59867  0.70726  0.88119  1.0000
  C   C1897     1.0  0.58380  0.71514  0.87427  1.0000
  C   C1898     1.0  0.57872  0.73336  0.86988  1.0000
  C   C1899     1.0  0.58852  0.74369  0.87230  1.0000
  H   H2295     1.0  0.56728  0.73949  0.86443  1.0000
  H   H2296     1.0  0.58461  0.75770  0.86871  1.0000
  C   C1900     1.0  0.61171  0.81388  0.92836  1.0000
  C   C1901     1.0  0.59366  0.81774  0.93040  1.0000
  C   C1902     1.0  0.58288  0.82047  0.94639  1.0000
  C   C1903     1.0  0.59003  0.81895  0.96059  1.0000
  C   C1904     1.0  0.60810  0.81477  0.95870  1.0000
  C   C1905     1.0  0.61893  0.81242  0.94252  1.0000
  H   H2297     1.0  0.58797  0.81901  0.91953  1.0000
  H   H2298     1.0  0.56896  0.82380  0.94772  1.0000
  C   C1906     1.0  0.43877  0.73161  0.90510  1.0000
  C   C1907     1.0  0.44938  0.73293  0.88840  1.0000
  C   C1908     1.0  0.45138  0.72065  0.87871  1.0000
  C   C1909     1.0  0.44308  0.70672  0.88579  1.0000
  C   C1910     1.0  0.43292  0.70500  0.90272  1.0000
  C   C1911     1.0  0.43070  0.71749  0.91233  1.0000
  H   H2299     1.0  0.45589  0.74351  0.88279  1.0000
  H   H2300     1.0  0.45922  0.72208  0.86562  1.0000
  H   H2301     1.0  0.42643  0.69429  0.90828  1.0000
  H   H2302     1.0  0.42255  0.71629  0.92530  1.0000
  C   C1912     1.0  0.52036  0.77734  0.88716  1.0000
  C   C1913     1.0  0.53841  0.77251  0.88512  1.0000
  C   C1914     1.0  0.54684  0.78078  0.89208  1.0000
  C   C1915     1.0  0.53723  0.79411  0.90067  1.0000
  C   C1916     1.0  0.51913  0.79776  0.90408  1.0000
  C   C1917     1.0  0.51071  0.78924  0.89748  1.0000
  H   H2303     1.0  0.54591  0.76279  0.87777  1.0000
  H   H2304     1.0  0.56076  0.77700  0.89056  1.0000
  H   H2305     1.0  0.51160  0.80785  0.91099  1.0000
  H   H2306     1.0  0.49678  0.79254  0.89983  1.0000
  C   C1918     1.0  0.47033  0.84250  0.80585  1.0000
  C   C1919     1.0  0.45248  0.84971  0.80800  1.0000
  C   C1920     1.0  0.44112  0.84376  0.82351  1.0000
  C   C1921     1.0  0.44761  0.83063  0.83684  1.0000
  C   C1922     1.0  0.46545  0.82338  0.83462  1.0000
  C   C1923     1.0  0.47677  0.82929  0.81914  1.0000
  H   H2307     1.0  0.44741  0.85970  0.79766  1.0000
  H   H2308     1.0  0.42730  0.84929  0.82514  1.0000
  H   H2309     1.0  0.47052  0.81311  0.84477  1.0000
  H   H2310     1.0  0.49056  0.82359  0.81744  1.0000
  C   C1924     1.0  0.60504  0.88457  0.80535  1.0000
  C   C1925     1.0  0.60498  0.87430  0.79436  1.0000
  C   C1926     1.0  0.60327  0.85697  0.80136  1.0000
  C   C1927     1.0  0.60173  0.84977  0.81932  1.0000
  C   C1928     1.0  0.60189  0.86001  0.83027  1.0000
  C   C1929     1.0  0.60353  0.87736  0.82329  1.0000
  H   H2311     1.0  0.60644  0.87967  0.78049  1.0000
  H   H2312     1.0  0.60339  0.84901  0.79280  1.0000
  H   H2313     1.0  0.60079  0.85458  0.84411  1.0000
  H   H2314     1.0  0.60366  0.88521  0.83184  1.0000
  H   H2315     1.0  0.55501  0.97278  0.78535  1.0000
  C   C1930     1.0  0.57016  0.74889  0.93938  1.0000
  H   H2316     1.0  0.65397  0.57729  0.97686  1.0000
  C   C1931     1.0  0.63935  0.58863  0.93932  1.0000
  H   H2317     1.0  0.54981  0.84231  0.86843  1.0000
  C   C1932     1.0  0.38124  0.53035  0.84546  1.0000
  H   H2318     1.0  0.33606  0.49521  0.97045  1.0000
  C   C1933     1.0  0.57036  0.77161  0.95273  1.0000
  H   H2319     1.0  0.46712  0.84544  0.88739  1.0000
  H   H2320     1.0  0.43543  0.97446  0.75781  1.0000
  H   H2321     1.0  0.56802  0.74502  0.92866  1.0000
  C   C1934     1.0  0.45648  0.62433  0.96423  1.0000
  C   C1935     1.0  0.54959  0.78938  0.84004  1.0000
  H   H2322     1.0  0.36500  0.57359  0.84661  1.0000
  C   C1936     1.0  0.47669  0.87919  0.85365  1.0000
  C   C1937     1.0  0.44469  0.97042  0.74612  1.0000
  C   C1938     1.0  0.41665  0.71876  0.97651  1.0000
  H   H2323     1.0  0.52984  0.76497  0.95322  1.0000
  S   S538      1.0  0.59687  0.62063  0.85873  1.0000
  H   H2324     1.0  0.38177  0.49361  0.92603  1.0000
  C   C1939     1.0  0.64710  0.63441  0.88551  1.0000
  C   C1940     1.0  0.54962  0.82764  0.85045  1.0000
  N   N129      1.0  0.37811  0.51584  0.84018  1.0000
  H   H2325     1.0  0.41191  0.74056  0.95508  1.0000
  C   C1941     1.0  0.44267  0.67370  0.97564  1.0000
  N   N130      1.0  0.58070  0.76498  0.98064  1.0000
  Fe  Fe267     1.0  0.45730  0.89961  0.74117  1.0000
  H   H2326     1.0  0.53691  0.72363  0.88256  1.0000
  S   S539      1.0  0.59395  0.91455  0.75078  1.0000
  H   H2327     1.0  0.49351  0.73606  0.90787  1.0000
  C   C1942     1.0  0.56936  0.63280  0.98298  1.0000
  Fe  Fe268     1.0  0.49442  0.90012  0.73912  1.0000
  H   H2328     1.0  0.60274  0.69323  0.88444  1.0000
  C   C1943     1.0  0.63961  0.58754  0.83921  1.0000
  H   H2329     1.0  0.65483  0.63431  0.82884  1.0000
  H   H2330     1.0  0.40521  0.49042  0.92047  1.0000
  H   H2331     1.0  0.36404  0.51065  0.82408  1.0000
  N   N131      1.0  0.52303  0.70817  0.90532  1.0000
  H   H2332     1.0  0.64334  0.73031  0.90866  1.0000
  C   C1944     1.0  0.39460  0.50628  0.83078  1.0000
  Fe  Fe269     1.0  0.33814  0.54191  0.88649  1.0000
  H   H2333     1.0  0.48885  0.77785  0.95348  1.0000
  C   C1945     1.0  0.34082  0.57547  0.93731  1.0000
  N   N132      1.0  0.37124  0.62936  0.94197  1.0000
  C   C1946     1.0  0.37236  0.64775  0.93401  1.0000
  C   C1947     1.0  0.38906  0.61828  0.94022  1.0000
  C   C1948     1.0  0.36201  0.62423  0.93162  1.0000
  C   C1949     1.0  0.36274  0.62739  0.96069  1.0000
  H   H2334     1.0  0.64173  0.71960  0.93086  1.0000
  C   C1950     1.0  0.34785  0.62010  0.96822  1.0000
  H   H2335     1.0  0.65241  0.60527  0.97719  1.0000
  H   H2336     1.0  0.34228  0.49937  0.89590  1.0000
  H   H2337     1.0  0.62967  0.66353  0.96485  1.0000
  H   H2338     1.0  0.38095  0.65206  0.93955  1.0000
  H   H2339     1.0  0.37795  0.64972  0.91972  1.0000
  H   H2340     1.0  0.35932  0.65667  0.93596  1.0000
  H   H2341     1.0  0.39741  0.62231  0.94630  1.0000
  H   H2342     1.0  0.39569  0.61885  0.92633  1.0000
  H   H2343     1.0  0.38882  0.60439  0.94642  1.0000
  H   H2344     1.0  0.34845  0.63203  0.93231  1.0000
  H   H2345     1.0  0.36858  0.62616  0.91757  1.0000
  H   H2346     1.0  0.36187  0.61014  0.93608  1.0000
  H   H2347     1.0  0.57586  0.98436  0.76002  1.0000
  C   C1951     1.0  0.64099  0.73750  0.97279  1.0000
  H   H2348     1.0  0.43775  0.96495  0.73974  1.0000
  C   C1952     1.0  0.40514  0.59713  0.97860  1.0000
  H   H2349     1.0  0.48537  0.68293  0.95383  1.0000
  N   N133      1.0  0.50106  0.66471  0.86558  1.0000
  C   C1953     1.0  0.49012  0.66375  0.88343  1.0000
  C   C1954     1.0  0.48989  0.66658  0.85337  1.0000
  C   C1955     1.0  0.51385  0.64778  0.86555  1.0000
  C   C1956     1.0  0.50915  0.67991  0.86052  1.0000
  C   C1957     1.0  0.52746  0.67839  0.85601  1.0000
  C   C1958     1.0  0.49857  0.69695  0.86014  1.0000
  C   C1959     1.0  0.53458  0.69308  0.85153  1.0000
  C   C1960     1.0  0.50581  0.71155  0.85563  1.0000
  C   C1961     1.0  0.52379  0.70961  0.85132  1.0000
  H   H2350     1.0  0.49789  0.66268  0.89303  1.0000
  H   H2351     1.0  0.47908  0.67524  0.88438  1.0000
  H   H2352     1.0  0.48414  0.65222  0.88775  1.0000
  H   H2353     1.0  0.48382  0.65519  0.85668  1.0000
  H   H2354     1.0  0.49749  0.66781  0.83970  1.0000
  H   H2355     1.0  0.47892  0.67818  0.85371  1.0000
  H   H2356     1.0  0.52246  0.64531  0.87479  1.0000
  H   H2357     1.0  0.50731  0.63661  0.86978  1.0000
  H   H2358     1.0  0.52205  0.64718  0.85233  1.0000
  H   H2359     1.0  0.53661  0.66601  0.85589  1.0000
  H   H2360     1.0  0.48456  0.69903  0.86342  1.0000
  H   H2361     1.0  0.54860  0.69161  0.84835  1.0000
  H   H2362     1.0  0.49740  0.72442  0.85553  1.0000
  H   H2363     1.0  0.56274  0.79020  0.97839  1.0000
  H   H2364     1.0  0.50929  0.94997  0.77969  1.0000
  H   H2365     1.0  0.51487  0.69596  0.88990  1.0000
  H   H2366     1.0  0.65607  0.61188  0.92175  1.0000
  C   C1962     1.0  0.65262  0.60604  0.95025  1.0000
  H   H2367     1.0  0.47827  0.59782  0.98111  1.0000
  C   C1963     1.0  0.39110  0.51508  0.94145  1.0000
  H   H2368     1.0  0.60743  0.76441  0.96794  1.0000
  C   C1964     1.0  0.38897  0.53027  0.94711  1.0000
  H   H2369     1.0  0.63792  0.62918  0.89669  1.0000
  H   H2370     1.0  0.44927  0.78230  0.94426  1.0000
  H   H2371     1.0  0.47124  0.58452  0.95455  1.0000
  C   C1965     1.0  0.62537  0.59760  0.87103  1.0000
  H   H2372     1.0  0.56731  0.63436  0.95046  1.0000
  C   C1966     1.0  0.50620  0.70893  0.91803  1.0000
  H   H2373     1.0  0.54566  0.63546  0.96358  1.0000
  C   C1967     1.0  0.62361  0.59943  0.84153  1.0000
  H   H2374     1.0  0.49189  0.93041  0.77787  1.0000
  C   C1968     1.0  0.54024  0.81837  0.84543  1.0000
  H   H2375     1.0  0.60836  0.97454  0.77800  1.0000
  C   C1969     1.0  0.37065  0.54751  0.84268  1.0000
  C   C1970     1.0  0.53729  0.70429  0.91465  1.0000
  S   S540      1.0  0.34778  0.48734  0.93122  1.0000
  H   H2376     1.0  0.38666  0.54124  0.96877  1.0000
  N   N134      1.0  0.40902  0.77206  0.86826  1.0000
  C   C1971     1.0  0.40293  0.75585  0.87795  1.0000
  C   C1972     1.0  0.41331  0.77907  0.88100  1.0000
  C   C1973     1.0  0.39441  0.78480  0.86115  1.0000
  H   H2377     1.0  0.39874  0.75019  0.86937  1.0000
  H   H2378     1.0  0.41325  0.74584  0.88397  1.0000
  H   H2379     1.0  0.39162  0.75823  0.88889  1.0000
  H   H2380     1.0  0.42477  0.77023  0.88595  1.0000
  H   H2381     1.0  0.40245  0.78045  0.89254  1.0000
  H   H2382     1.0  0.41637  0.79215  0.87533  1.0000
  H   H2383     1.0  0.39131  0.78039  0.85091  1.0000
  H   H2384     1.0  0.38243  0.78671  0.87151  1.0000
  H   H2385     1.0  0.39738  0.79790  0.85519  1.0000
  H   H2386     1.0  0.54117  0.82631  0.96899  1.0000
  C   C1974     1.0  0.53435  0.81684  0.96877  1.0000
  C   C1975     1.0  0.39204  0.49855  0.95331  1.0000
  H   H2387     1.0  0.63490  0.72388  0.95754  1.0000
  Fe  Fe270     1.0  0.57716  0.94156  0.74893  1.0000
  H   H2388     1.0  0.45223  0.88062  0.81501  1.0000
  C   C1976     1.0  0.47763  0.86656  0.86920  1.0000
  C   C1977     1.0  0.46663  0.85498  0.87513  1.0000
  H   H2389     1.0  0.48672  0.86591  0.87692  1.0000
  H   H2390     1.0  0.40392  0.49908  0.83937  1.0000
  H   H2391     1.0  0.41586  0.76171  0.96920  1.0000
  N   N135      1.0  0.55276  0.89079  0.78935  1.0000
  C   C1978     1.0  0.56624  0.87954  0.77859  1.0000
  C   C1979     1.0  0.54513  0.90690  0.77761  1.0000
  C   C1980     1.0  0.56156  0.89604  0.80004  1.0000
  C   C1981     1.0  0.53910  0.88125  0.79984  1.0000
  C   C1982     1.0  0.53563  0.87647  0.81839  1.0000
  C   C1983     1.0  0.52914  0.87592  0.79145  1.0000
  C   C1984     1.0  0.52288  0.86706  0.82779  1.0000
  C   C1985     1.0  0.51656  0.86642  0.80098  1.0000
  C   C1986     1.0  0.51339  0.86200  0.81911  1.0000
  H   H2392     1.0  0.56110  0.87650  0.76884  1.0000
  H   H2393     1.0  0.57722  0.88585  0.77109  1.0000
  H   H2394     1.0  0.57181  0.86697  0.78689  1.0000
  H   H2395     1.0  0.54003  0.90420  0.76762  1.0000
  H   H2396     1.0  0.55494  0.91479  0.77018  1.0000
  H   H2397     1.0  0.53427  0.91537  0.78505  1.0000
  H   H2398     1.0  0.56847  0.88452  0.80855  1.0000
  H   H2399     1.0  0.51352  0.75281  0.96507  1.0000
  H   H2400     1.0  0.53114  0.87890  0.77738  1.0000
  H   H2401     1.0  0.52050  0.86349  0.84190  1.0000
  C   C1987     1.0  0.65556  0.97944  0.73942  1.0000
  H   H2402     1.0  0.50364  0.85455  0.82641  1.0000
  H   H2403     1.0  0.52681  0.75769  0.97649  1.0000
  H   H2404     1.0  0.61986  0.60155  0.88330  1.0000
  H   H2405     1.0  0.50714  0.78566  0.94000  1.0000
  C   C1988     1.0  0.47689  0.72435  0.93002  1.0000
  H   H2406     1.0  0.63604  0.76019  0.89883  1.0000
  H   H2407     1.0  0.64511  0.58391  0.82678  1.0000
  C   C1989     1.0  0.48547  0.94316  0.78046  1.0000
  H   H2408     1.0  0.46969  0.62706  0.96062  1.0000
  H   H2409     1.0  0.44425  0.76539  0.97457  1.0000
  Fe  Fe271     1.0  0.46576  0.91433  0.76730  1.0000
  C   C1990     1.0  0.49252  0.72415  0.91763  1.0000
  C   C1991     1.0  0.45920  0.96502  0.78661  1.0000
  S   S541      1.0  0.57593  0.82135  0.98069  1.0000
  H   H2410     1.0  0.51280  0.68195  0.93248  1.0000
  C   C1992     1.0  0.38910  0.51346  0.97642  1.0000
  C   C1993     1.0  0.36554  0.52167  0.82850  1.0000
  C   C1994     1.0  0.46907  0.59890  0.95244  1.0000
  C   C1995     1.0  0.64864  0.58050  0.85273  1.0000
  C   C1996     1.0  0.56705  0.76648  0.93929  1.0000
  H   H2411     1.0  0.55082  0.65414  0.94799  1.0000
  H   H2412     1.0  0.52943  0.72089  0.84793  1.0000
  H   H2413     1.0  0.61372  0.81354  0.96960  1.0000
  C   C1997     1.0  0.63786  0.73593  0.95740  1.0000
  H   H2414     1.0  0.47551  0.87632  0.81085  1.0000
  H   H2415     1.0  0.54270  0.87968  0.82595  1.0000
  C   C1998     1.0  0.45481  0.85578  0.86541  1.0000
  H   H2416     1.0  0.40111  0.51539  0.81972  1.0000
  H   H2417     1.0  0.57171  0.90326  0.79177  1.0000
  C   C1999     1.0  0.42437  0.76936  0.85388  1.0000
  H   H2418     1.0  0.50307  0.92976  0.73999  1.0000
  H   H2419     1.0  0.34260  0.57581  0.92369  1.0000
  C   C2000     1.0  0.35432  0.57758  0.94323  1.0000
  H   H2420     1.0  0.45124  0.68680  0.94903  1.0000
  C   C2001     1.0  0.52286  0.81850  0.85480  1.0000
  H   H2421     1.0  0.61251  0.74638  0.91778  1.0000
  C   C2002     1.0  0.63837  0.74968  0.94223  1.0000
  H   H2422     1.0  0.51514  0.81109  0.85234  1.0000
  C   C2003     1.0  0.39753  0.54071  0.86007  1.0000
  C   C2004     1.0  0.35251  0.57669  0.96087  1.0000
  C   C2005     1.0  0.43198  0.78355  0.84371  1.0000
  H   H2423     1.0  0.42733  0.74132  0.85637  1.0000
  H   H2424     1.0  0.50933  0.86236  0.79417  1.0000
  H   H2425     1.0  0.63289  0.80954  0.94095  1.0000
  H   H2426     1.0  0.61681  0.60479  0.83090  1.0000
  H   H2427     1.0  0.46305  0.89657  0.80055  1.0000
  C   C2006     1.0  0.61605  0.74758  0.92952  1.0000
  C   C2007     1.0  0.43476  0.59275  0.96190  1.0000
  H   H2428     1.0  0.35226  0.52734  0.83526  1.0000
  H   H2429     1.0  0.50229  0.82672  0.87563  1.0000
  C   C2008     1.0  0.43217  0.75291  0.84949  1.0000
  C   C2009     1.0  0.46458  0.88051  0.84353  1.0000
  C   C2010     1.0  0.45373  0.86834  0.84988  1.0000
  H   H2430     1.0  0.65040  0.61568  0.84522  1.0000
  H   H2431     1.0  0.44408  0.86856  0.84306  1.0000
  H   H2432     1.0  0.55225  0.90482  0.80825  1.0000
  N   N136      1.0  0.63464  0.74784  0.92620  1.0000
  H   H2433     1.0  0.35847  0.51023  0.86320  1.0000
  H   H2434     1.0  0.44960  0.63181  0.95349  1.0000
  H   H2435     1.0  0.44375  0.91228  0.84202  1.0000
  H   H2436     1.0  0.43437  0.89952  0.83414  1.0000
  C   C2011     1.0  0.65190  0.57591  0.96451  1.0000
  H   H2437     1.0  0.62937  0.77489  0.91280  1.0000
  C   C2012     1.0  0.44519  0.90630  0.83093  1.0000
  H   H2438     1.0  0.47494  0.91248  0.83142  1.0000
  C   C2013     1.0  0.45421  0.81096  0.96447  1.0000
  S   S542      1.0  0.37002  0.57864  0.96784  1.0000
  H   H2439     1.0  0.65179  0.61285  0.87424  1.0000
  H   H2440     1.0  0.38890  0.56752  0.86195  1.0000
  C   C2014     1.0  0.44668  0.78136  0.83032  1.0000
  N   N137      1.0  0.46246  0.89433  0.82758  1.0000
  H   H2441     1.0  0.44313  0.91711  0.81932  1.0000
  C   C2015     1.0  0.60858  0.71758  0.88342  1.0000
  H   H2442     1.0  0.56762  0.67128  0.95164  1.0000
  C   C2016     1.0  0.63820  0.76225  0.91089  1.0000
  C   C2017     1.0  0.32541  0.57247  0.94896  1.0000
  H   H2443     1.0  0.48216  0.60172  0.94985  1.0000
  H   H2444     1.0  0.45233  0.79244  0.82296  1.0000
  C   C2018     1.0  0.47584  0.90493  0.82174  1.0000
  N   N138      1.0  0.50699  0.77937  0.96769  1.0000
  C   C2019     1.0  0.64135  0.58526  0.86884  1.0000
  C   C2020     1.0  0.51536  0.82737  0.86826  1.0000
  N   N139      1.0  0.56157  0.64830  0.97078  1.0000
  H   H2445     1.0  0.46553  0.76339  0.81608  1.0000
  N   N140      1.0  0.45712  0.60543  0.96764  1.0000
  C   C2021     1.0  0.44683  0.75087  0.83599  1.0000
  C   C2022     1.0  0.46341  0.88656  0.81295  1.0000
  H   H2446     1.0  0.48917  0.89669  0.81902  1.0000
  C   C2023     1.0  0.64528  0.73134  0.92128  1.0000
  H   H2447     1.0  0.53982  0.67042  0.97199  1.0000
  C   C2024     1.0  0.64454  0.76680  0.95917  1.0000
  S   S543      1.0  0.34196  0.56440  0.89450  1.0000
  C   C2025     1.0  0.45412  0.76504  0.82648  1.0000
  H   H2448     1.0  0.47414  0.91482  0.80945  1.0000
  H   H2449     1.0  0.40763  0.53810  0.86728  1.0000
  C   C2026     1.0  0.51986  0.76296  0.96550  1.0000
  H   H2450     1.0  0.61818  0.61088  0.95927  1.0000
  H   H2451     1.0  0.62023  0.71141  0.88851  1.0000
  N   N141      1.0  0.54816  0.80816  0.83178  1.0000
  H   H2452     1.0  0.44626  0.84671  0.87002  1.0000
  C   C2027     1.0  0.44989  0.78766  0.95463  1.0000
  H   H2453     1.0  0.49033  0.79949  0.95242  1.0000
  H   H2454     1.0  0.54269  0.81906  0.94103  1.0000
  H   H2455     1.0  0.46649  0.73596  0.92949  1.0000
  H   H2456     1.0  0.52419  0.80991  0.82435  1.0000
  S   S544      1.0  0.45440  0.93469  0.78330  1.0000
  S   S545      1.0  0.47033  0.92122  0.73822  1.0000
  C   C2028     1.0  0.39470  0.52735  0.85449  1.0000
  H   H2457     1.0  0.45710  0.82367  0.96160  1.0000
  C   C2029     1.0  0.59551  0.77362  0.97291  1.0000
  C   C2030     1.0  0.54129  0.93830  0.73972  1.0000
  H   H2458     1.0  0.59292  0.78465  0.96173  1.0000
  H   H2459     1.0  0.53496  0.82746  0.81293  1.0000
  H   H2460     1.0  0.46402  0.60520  0.94029  1.0000
  C   C2031     1.0  0.48747  0.69447  0.94374  1.0000
  H   H2461     1.0  0.44518  0.96915  0.78896  1.0000
  H   H2462     1.0  0.57919  0.72262  0.95294  1.0000
  C   C2032     1.0  0.52505  0.83593  0.87315  1.0000
  H   H2463     1.0  0.53669  0.78623  0.84659  1.0000
  H   H2464     1.0  0.62645  0.59968  0.97855  1.0000
  C   C2033     1.0  0.53712  0.81322  0.81872  1.0000
  H   H2465     1.0  0.54316  0.80634  0.80785  1.0000
  Fe  Fe272     1.0  0.60612  0.95835  0.74790  1.0000
  C   C2034     1.0  0.55616  0.64277  0.95770  1.0000
  H   H2466     1.0  0.57123  0.80335  0.81158  1.0000
  H   H2467     1.0  0.56299  0.82807  0.84438  1.0000
  H   H2468     1.0  0.53846  0.69129  0.92376  1.0000
  Fe  Fe273     1.0  0.32793  0.55241  0.92104  1.0000
  C   C2035     1.0  0.33690  0.57421  0.97261  1.0000
  C   C2036     1.0  0.57969  0.74130  0.96664  1.0000
  H   H2469     1.0  0.52783  0.79758  0.94045  1.0000
  H   H2470     1.0  0.61274  0.73637  0.94011  1.0000
  H   H2471     1.0  0.64468  0.56536  0.96805  1.0000
  H   H2472     1.0  0.56588  0.82457  0.81612  1.0000
  H   H2473     1.0  0.65185  0.76363  0.90811  1.0000
  C   C2037     1.0  0.49802  0.78587  0.95280  1.0000
  H   H2474     1.0  0.48572  0.76693  0.98260  1.0000
  C   C2038     1.0  0.64441  0.75288  0.97363  1.0000
  H   H2475     1.0  0.63187  0.57827  0.94310  1.0000
  C   C2039     1.0  0.54211  0.83612  0.86422  1.0000
  H   H2476     1.0  0.34190  0.61547  0.96071  1.0000
  H   H2477     1.0  0.61696  0.58862  0.96899  1.0000
  H   H2478     1.0  0.38118  0.63766  0.96745  1.0000
  H   H2479     1.0  0.39239  0.49623  0.82543  1.0000
  H   H2480     1.0  0.64165  0.77674  0.93306  1.0000
  C   C2040     1.0  0.41789  0.59005  0.96574  1.0000
  H   H2481     1.0  0.52280  0.73566  0.89798  1.0000
  C   C2041     1.0  0.45365  0.80405  0.95086  1.0000
  H   H2482     1.0  0.36971  0.53153  0.81669  1.0000
  S   S546      1.0  0.54893  0.95101  0.74852  1.0000
  S   S547      1.0  0.62578  0.93293  0.74969  1.0000
  H   H2483     1.0  0.45492  0.95954  0.75113  1.0000
  C   C2042     1.0  0.46735  0.94850  0.78323  1.0000
  C   C2043     1.0  0.43934  0.60256  0.97107  1.0000
  C   C2044     1.0  0.39104  0.49822  0.97099  1.0000
  H   H2484     1.0  0.55754  0.78520  0.85018  1.0000
  C   C2045     1.0  0.57670  0.75917  0.96690  1.0000
  H   H2485     1.0  0.64823  0.57982  0.87937  1.0000
  H   H2486     1.0  0.53803  0.69380  0.88568  1.0000
  H   H2487     1.0  0.51959  0.84183  0.88432  1.0000
  H   H2488     1.0  0.41464  0.58242  0.95873  1.0000
  C   C2046     1.0  0.49531  0.95423  0.78147  1.0000
  C   C2047     1.0  0.46908  0.97633  0.78685  1.0000
  C   C2048     1.0  0.51691  0.92879  0.73720  1.0000
  C   C2049     1.0  0.47441  0.70961  0.94309  1.0000
  C   C2050     1.0  0.45098  0.80146  0.98183  1.0000
  H   H2489     1.0  0.55583  0.78107  0.83038  1.0000
  H   H2490     1.0  0.57534  0.80562  0.83087  1.0000
  N   N142      1.0  0.64252  0.59242  0.95475  1.0000
  C   C2051     1.0  0.52595  0.69416  0.89604  1.0000
  H   H2491     1.0  0.53520  0.71422  0.92230  1.0000
  C   C2052     1.0  0.51622  0.79225  0.96829  1.0000
  C   C2053     1.0  0.38801  0.52946  0.96453  1.0000
  S   S548      1.0  0.49971  0.98482  0.78512  1.0000
  C   C2054     1.0  0.57641  0.73633  0.95305  1.0000
  C   C2055     1.0  0.44679  0.77817  0.97188  1.0000
  S   S549      1.0  0.48198  0.87890  0.73980  1.0000
  C   C2056     1.0  0.38693  0.55735  0.85713  1.0000
  C   C2057     1.0  0.36973  0.63230  0.97215  1.0000
  C   C2058     1.0  0.52413  0.72465  0.89196  1.0000
  C   C2059     1.0  0.49362  0.77539  0.98378  1.0000
  C   C2060     1.0  0.65827  0.61497  0.93281  1.0000
  C   C2061     1.0  0.50313  0.69407  0.93143  1.0000
  C   C2062     1.0  0.41488  0.73624  0.96796  1.0000
  H   H2492     1.0  0.58483  0.73084  0.97660  1.0000
  H   H2493     1.0  0.63164  0.60033  0.93176  1.0000
  H   H2494     1.0  0.51400  0.72827  0.88411  1.0000
  H   H2495     1.0  0.56239  0.77625  0.92852  1.0000
  H   H2496     1.0  0.35972  0.55099  0.83650  1.0000
  H   H2497     1.0  0.44392  0.58700  0.95168  1.0000
  C   C2063     1.0  0.37350  0.56072  0.84849  1.0000
  C   C2064     1.0  0.53521  0.81275  0.95311  1.0000
  C   C2065     1.0  0.65520  0.62508  0.87252  1.0000
  C   C2066     1.0  0.64153  0.76534  0.94368  1.0000
  C   C2067     1.0  0.33919  0.52616  0.97656  1.0000
  C   C2068     1.0  0.65028  0.65062  0.88387  1.0000
  H   H2498     1.0  0.36868  0.49231  0.85274  1.0000
  C   C2069     1.0  0.42610  0.60919  0.98439  1.0000
  H   H2499     1.0  0.59425  0.63961  0.98003  1.0000
  H   H2500     1.0  0.65176  0.58396  0.93047  1.0000
  C   C2070     1.0  0.54398  0.98087  0.77925  1.0000
  H   H2501     1.0  0.34733  0.53337  0.97946  1.0000
  H   H2502     1.0  0.64695  0.77885  0.95997  1.0000
  H   H2503     1.0  0.39205  0.59514  0.98143  1.0000
  H   H2504     1.0  0.33069  0.53579  0.96805  1.0000
  S   S550      1.0  0.45667  0.68047  0.98385  1.0000
  C   C2071     1.0  0.42087  0.65722  0.98010  1.0000
  H   H2505     1.0  0.44972  0.62987  0.97585  1.0000
  C   C2072     1.0  0.65639  0.61133  0.96363  1.0000
  S   S551      1.0  0.32949  0.54093  0.86315  1.0000
  C   C2073     1.0  0.52497  0.80848  0.98425  1.0000
  C   C2074     1.0  0.54607  0.65858  0.98064  1.0000
  C   C2075     1.0  0.46472  0.59639  0.98317  1.0000
  H   H2506     1.0  0.47182  0.98095  0.74824  1.0000
  C   C2076     1.0  0.41720  0.74810  0.97590  1.0000
  H   H2507     1.0  0.58551  0.65299  0.95340  1.0000
  H   H2508     1.0  0.41499  0.70949  0.97025  1.0000
  Fe  Fe274     1.0  0.61571  0.68726  0.98264  1.0000
  H   H2509     1.0  0.53295  0.98507  0.78973  1.0000
  H   H2510     1.0  0.64359  0.65795  0.89387  1.0000
  H   H2511     1.0  0.57742  0.66565  0.96998  1.0000
  H   H2512     1.0  0.70680  0.46828  0.03917  1.0000
  C   C2077     1.0  0.94998  0.47428  0.11813  1.0000
  H   H2513     1.0  0.94618  0.43449  0.05032  1.0000
  Fe  Fe275     1.0  0.73782  0.39758  0.01351  1.0000
  S   S552      1.0  0.71018  0.41281  0.01838  1.0000
  S   S553      1.0  0.75668  0.39014  0.03118  1.0000
  Fe  Fe276     1.0  0.70497  0.39457  0.00513  1.0000
  S   S554      1.0  0.68014  0.38441  0.01415  1.0000
  H   H2514     1.0  0.95168  0.46120  0.12701  1.0000
  H   H2515     1.0  0.78164  0.38288  0.99672  1.0000
  S   S555      1.0  0.73212  0.37786  0.00286  1.0000
  C   C2078     1.0  0.66103  0.34457  0.01186  1.0000
  H   H2516     1.0  0.92148  0.47074  0.02045  1.0000
  C   C2079     1.0  0.88732  0.46791  0.99046  1.0000
  Fe  Fe277     1.0  0.83513  0.42902  0.01204  1.0000
  S   S556      1.0  0.84645  0.40392  0.02896  1.0000
  S   S557      1.0  0.80736  0.44152  0.01002  1.0000
  Fe  Fe278     1.0  0.97011  0.39128  0.23239  1.0000
  S   S558      1.0  0.88503  0.41220  0.00898  1.0000
  C   C2080     1.0  0.79458  0.37550  0.99802  1.0000
  Fe  Fe279     1.0  0.86600  0.39998  0.00430  1.0000
  Fe  Fe280     1.0  0.98708  0.40902  0.10324  1.0000
  Fe  Fe281     1.0  0.86451  0.41838  0.03225  1.0000
  S   S559      1.0  0.86977  0.41697  0.05845  1.0000
  H   H2517     1.0  0.73283  0.47112  0.05803  1.0000
  S   S560      1.0  0.85101  0.44393  0.01780  1.0000
  H   H2518     1.0  0.79283  0.48371  0.00525  1.0000
  H   H2519     1.0  0.94986  0.44912  0.06084  1.0000
  S   S561      1.0  0.85349  0.42411  0.98719  1.0000
  H   H2520     1.0  0.96406  0.37412  0.18099  1.0000
  H   H2521     1.0  0.81806  0.44120  0.05653  1.0000
  H   H2522     1.0  0.95420  0.39425  0.15490  1.0000
  H   H2523     1.0  0.74568  0.44439  0.05161  1.0000
  C   C2081     1.0  0.92633  0.36308  0.08236  1.0000
  C   C2082     1.0  0.94439  0.41639  0.16673  1.0000
  C   C2083     1.0  0.98223  0.43616  0.17927  1.0000
  H   H2524     1.0  0.92044  0.46705  0.13968  1.0000
  H   H2525     1.0  0.98945  0.48498  0.17529  1.0000
  N   N143      1.0  0.66057  0.20773  0.98817  1.0000
  C   C2084     1.0  0.97899  0.48035  0.07546  1.0000
  H   H2526     1.0  0.74862  0.46917  0.02661  1.0000
  H   H2527     1.0  0.88026  0.34316  0.98571  1.0000
  Fe  Fe282     1.0  0.96583  0.44370  0.08717  1.0000
  S   S562      1.0  0.94047  0.43570  0.09857  1.0000
  S   S563      1.0  0.96482  0.47072  0.07092  1.0000
  H   H2528     1.0  0.96046  0.44864  0.03876  1.0000
  S   S564      1.0  0.96341  0.39768  0.11563  1.0000
  H   H2529     1.0  0.92861  0.44744  0.02632  1.0000
  Fe  Fe283     1.0  0.95481  0.41083  0.09012  1.0000
  S   S565      1.0  0.94581  0.39964  0.07258  1.0000
  Fe  Fe284     1.0  0.95119  0.42365  0.12283  1.0000
  S   S566      1.0  0.97976  0.41975  0.07713  1.0000
  S   S567      1.0  0.97531  0.43400  0.11200  1.0000
  H   H2530     1.0  0.94410  0.46082  0.01574  1.0000
  H   H2531     1.0  0.94327  0.46225  0.15454  1.0000
  H   H2532     1.0  0.94961  0.35048  0.06705  1.0000
  C   C2085     1.0  0.95820  0.38766  0.18115  1.0000
  H   H2533     1.0  0.89436  0.33744  0.05632  1.0000
  C   C2086     1.0  0.94833  0.41116  0.19638  1.0000
  H   H2534     1.0  0.85185  0.48431  0.99233  1.0000
  H   H2535     1.0  0.94667  0.41586  0.20794  1.0000
  C   C2087     1.0  0.71101  0.47283  0.02526  1.0000
  H   H2536     1.0  0.70225  0.33206  0.98953  1.0000
  C   C2088     1.0  0.79162  0.45050  0.05300  1.0000
  C   C2089     1.0  0.69119  0.33971  0.99686  1.0000
  H   H2537     1.0  0.87667  0.37190  0.03424  1.0000
  C   C2090     1.0  0.93180  0.45999  0.02558  1.0000
  C   C2091     1.0  0.66301  0.01094  0.16480  1.0000
  C   C2092     1.0  0.81172  0.35157  0.01567  1.0000
  C   C2093     1.0  0.77708  0.46485  0.05162  1.0000
  C   C2094     1.0  0.95260  0.39905  0.16638  1.0000
  C   C2095     1.0  0.67522  0.33460  0.00236  1.0000
  H   H2538     1.0  0.91662  0.47719  0.11829  1.0000
  H   H2539     1.0  0.74591  0.46962  0.07307  1.0000
  S   S568      1.0  0.93676  0.43065  0.14851  1.0000
  C   C2096     1.0  0.98877  0.45110  0.17549  1.0000
  H   H2540     1.0  0.78378  0.35889  0.02169  1.0000
  N   N144      1.0  0.76062  0.46339  0.04855  1.0000
  H   H2541     1.0  0.67317  0.02771  0.17350  1.0000
  H   H2542     1.0  0.91376  0.44178  0.23310  1.0000
  Fe  Fe285     1.0  0.87047  0.43686  0.99427  1.0000
  C   C2097     1.0  0.74527  0.47333  0.05905  1.0000
  H   H2543     1.0  0.79146  0.43776  0.05188  1.0000
  H   H2544     1.0  0.77202  0.46405  0.02153  1.0000
  C   C2098     1.0  0.89105  0.41448  0.06130  1.0000
  C   C2099     1.0  0.89335  0.41587  0.07720  1.0000
  C   C2100     1.0  0.91013  0.41227  0.08051  1.0000
  C   C2101     1.0  0.92473  0.40684  0.06805  1.0000
  C   C2102     1.0  0.92244  0.40591  0.05198  1.0000
  C   C2103     1.0  0.90571  0.41001  0.04849  1.0000
  H   H2545     1.0  0.88209  0.41937  0.08717  1.0000
  H   H2546     1.0  0.91172  0.41295  0.09297  1.0000
  H   H2547     1.0  0.93366  0.40170  0.04229  1.0000
  H   H2548     1.0  0.90413  0.40916  0.03614  1.0000
  C   C2104     1.0  0.75856  0.44512  0.05303  1.0000
  H   H2549     1.0  0.92363  0.36194  0.02177  1.0000
  C   C2105     1.0  0.88815  0.48489  0.01537  1.0000
  C   C2106     1.0  0.82599  0.36911  0.98956  1.0000
  S   S569      1.0  0.98892  0.40867  0.22130  1.0000
  H   H2550     1.0  0.91471  0.33588  0.04085  1.0000
  C   C2107     1.0  0.66081  0.22503  0.00900  1.0000
  H   H2551     1.0  0.90139  0.37612  0.09473  1.0000
  C   C2108     1.0  0.82689  0.35529  0.00415  1.0000
  C   C2109     1.0  0.94214  0.42242  0.18180  1.0000
  S   S570      1.0  0.67357  0.31628  0.99605  1.0000
  H   H2552     1.0  0.76820  0.43721  0.04420  1.0000
  C   C2110     1.0  0.90854  0.36990  0.08401  1.0000
  S   S571      1.0  0.74560  0.41459  0.98742  1.0000
  C   C2111     1.0  0.88743  0.45880  0.00770  1.0000
  C   C2112     1.0  0.88764  0.46729  0.02017  1.0000
  C   C2113     1.0  0.66279  0.35969  0.01555  1.0000
  C   C2114     1.0  0.80873  0.46840  0.05660  1.0000
  H   H2553     1.0  0.88697  0.44524  0.01164  1.0000
  H   H2554     1.0  0.88707  0.46026  0.03361  1.0000
  H   H2555     1.0  0.81241  0.34103  0.02715  1.0000
  H   H2556     1.0  0.87422  0.36611  0.05731  1.0000
  C   C2115     1.0  0.80714  0.45232  0.05552  1.0000
  C   C2116     1.0  0.67868  0.36498  0.00976  1.0000
  C   C2117     1.0  0.79495  0.48282  0.05478  1.0000
  H   H2557     1.0  0.93295  0.36408  0.09170  1.0000
  H   H2558     1.0  0.90355  0.37141  0.01508  1.0000
  C   C2118     1.0  0.91716  0.45740  0.05564  1.0000
  H   H2559     1.0  0.82078  0.46972  0.05861  1.0000
  C   C2119     1.0  0.71111  0.46283  0.01385  1.0000
  C   C2120     1.0  0.69290  0.35487  0.00043  1.0000
  C   C2121     1.0  0.71588  0.46896  0.99582  1.0000
  H   H2560     1.0  0.83947  0.34764  0.00663  1.0000
  H   H2561     1.0  0.98013  0.41527  0.16953  1.0000
  H   H2562     1.0  0.70690  0.45068  0.01900  1.0000
  H   H2563     1.0  0.70521  0.35874  0.99597  1.0000
  C   C2122     1.0  0.94223  0.47550  0.15520  1.0000
  C   C2123     1.0  0.77075  0.40445  0.02527  1.0000
  C   C2124     1.0  0.78691  0.39875  0.03004  1.0000
  C   C2125     1.0  0.79844  0.40992  0.02501  1.0000
  C   C2126     1.0  0.79378  0.42687  0.01530  1.0000
  C   C2127     1.0  0.77769  0.43254  0.01040  1.0000
  C   C2128     1.0  0.76610  0.42145  0.01561  1.0000
  H   H2564     1.0  0.79053  0.38564  0.03759  1.0000
  H   H2565     1.0  0.81076  0.40546  0.02895  1.0000
  N   N145      1.0  0.90092  0.36209  0.04302  1.0000
  H   H2566     1.0  0.75336  0.42624  0.01255  1.0000
  H   H2567     1.0  0.93520  0.34894  0.04525  1.0000
  H   H2568     1.0  0.97482  0.43171  0.19219  1.0000
  S   S572      1.0  0.96654  0.45386  0.23028  1.0000
  H   H2569     1.0  0.94917  0.46673  0.18034  1.0000
  C   C2129     1.0  0.79562  0.36157  0.01254  1.0000
  C   C2130     1.0  0.77946  0.48120  0.05202  1.0000
  C   C2131     1.0  0.90007  0.36962  0.07146  1.0000
  S   S573      1.0  0.87429  0.37328  0.99871  1.0000
  H   H2570     1.0  0.67097  0.17996  0.99195  1.0000
  C   C2132     1.0  0.94804  0.44789  0.04835  1.0000
  H   H2571     1.0  0.88141  0.38576  0.04488  1.0000
  C   C2133     1.0  0.92735  0.35496  0.05584  1.0000
  S   S574      1.0  0.96372  0.37914  0.21427  1.0000
  C   C2134     1.0  0.90932  0.36231  0.05680  1.0000
  C   C2135     1.0  0.98499  0.42699  0.16647  1.0000
  C   C2136     1.0  0.95626  0.39371  0.19611  1.0000
  C   C2137     1.0  0.90124  0.34385  0.04338  1.0000
  C   C2138     1.0  0.66006  0.19011  0.98714  1.0000
  H   H2572     1.0  0.93574  0.43581  0.18214  1.0000
  C   C2139     1.0  0.93571  0.35555  0.06835  1.0000
  H   H2573     1.0  0.91728  0.45844  0.06886  1.0000
  N   N146      1.0  0.93305  0.46144  0.04280  1.0000
  H   H2574     1.0  0.94846  0.47220  0.10583  1.0000
  H   H2575     1.0  0.77400  0.44561  0.00282  1.0000
  H   H2576     1.0  0.88640  0.37577  0.07331  1.0000
  H   H2577     1.0  0.89482  0.34323  0.03327  1.0000
  H   H2578     1.0  0.98611  0.45749  0.18612  1.0000
  H   H2579     1.0  0.75978  0.43864  0.06669  1.0000
  C   C2140     1.0  0.93548  0.47907  0.04129  1.0000
  C   C2141     1.0  0.88252  0.37189  0.04502  1.0000
  C   C2142     1.0  0.91043  0.36993  0.02560  1.0000
  H   H2580     1.0  0.91591  0.44396  0.05679  1.0000
  C   C2143     1.0  0.91914  0.47970  0.12995  1.0000
  H   H2581     1.0  0.81903  0.47312  0.01402  1.0000
  H   H2582     1.0  0.91189  0.38307  0.02533  1.0000
  H   H2583     1.0  0.90514  0.46611  0.05171  1.0000
  C   C2144     1.0  0.76035  0.47065  0.02988  1.0000
  C   C2145     1.0  0.66463  0.01875  0.17714  1.0000
  H   H2584     1.0  0.67036  0.01380  0.15152  1.0000
  C   C2146     1.0  0.95079  0.48435  0.03067  1.0000
  Fe  Fe286     1.0  0.71775  0.42861  0.99133  1.0000
  H   H2585     1.0  0.66206  0.23634  0.99843  1.0000
  C   C2147     1.0  0.94550  0.47791  0.17014  1.0000
  H   H2586     1.0  0.96223  0.47886  0.11516  1.0000
  H   H2587     1.0  0.96106  0.47558  0.02389  1.0000
  H   H2588     1.0  0.92060  0.47086  0.22067  1.0000
  C   C2148     1.0  0.80982  0.37983  0.98617  1.0000
  H   H2589     1.0  0.84143  0.47070  0.98696  1.0000
  C   C2149     1.0  0.91979  0.46509  0.23445  1.0000
  C   C2150     1.0  0.65973  0.20917  0.00603  1.0000
  H   H2590     1.0  0.77209  0.48498  0.98852  1.0000
  C   C2151     1.0  0.72123  0.48478  0.98930  1.0000
  H   H2591     1.0  0.76026  0.48478  0.02615  1.0000
  C   C2152     1.0  0.65995  0.22676  0.02574  1.0000
  H   H2592     1.0  0.66032  0.23913  0.02779  1.0000
  C   C2153     1.0  0.82021  0.48684  0.01153  1.0000
  H   H2593     1.0  0.83036  0.48664  0.01829  1.0000
  H   H2594     1.0  0.79376  0.02222  0.35250  1.0000
  H   H2595     1.0  0.84741  0.07544  0.47615  1.0000
  H   H2596     1.0  0.73683  0.98990  0.34161  1.0000
  C   C2154     1.0  0.86467  0.99607  0.38008  1.0000
  H   H2597     1.0  0.66133  0.98927  0.31352  1.0000
  S   S575      1.0  0.98592  0.41068  0.26130  1.0000
  H   H2598     1.0  0.68446  0.03783  0.48154  1.0000
  Fe  Fe287     1.0  0.96764  0.39268  0.26954  1.0000
  S   S576      1.0  0.95914  0.38433  0.29872  1.0000
  H   H2599     1.0  0.89132  0.12050  0.33628  1.0000
  C   C2155     1.0  0.94515  0.23330  0.47470  1.0000
  C   C2156     1.0  0.91550  0.44101  0.25913  1.0000
  Fe  Fe288     1.0  0.97125  0.28865  0.34972  1.0000
  H   H2600     1.0  0.74953  0.03074  0.41648  1.0000
  S   S577      1.0  0.95621  0.30479  0.32907  1.0000
  Fe  Fe289     1.0  0.97530  0.27465  0.38742  1.0000
  H   H2601     1.0  0.92348  0.20094  0.46665  1.0000
  H   H2602     1.0  0.67494  0.08019  0.28986  1.0000
  C   C2157     1.0  0.76626  0.02392  0.44333  1.0000
  H   H2603     1.0  0.82306  0.00418  0.39001  1.0000
  S   S578      1.0  0.97835  0.29984  0.36813  1.0000
  S   S579      1.0  0.96531  0.26466  0.37000  1.0000
  Fe  Fe290     1.0  0.95746  0.12039  0.40210  1.0000
  S   S580      1.0  0.94142  0.13503  0.38234  1.0000
  S   S581      1.0  0.94459  0.11303  0.43004  1.0000
  C   C2158     1.0  0.92271  0.46624  0.26273  1.0000
  S   S582      1.0  0.97810  0.13140  0.35325  1.0000
  S   S583      1.0  0.96330  0.27259  0.41611  1.0000
  Fe  Fe291     1.0  0.96275  0.14963  0.37071  1.0000
  S   S584      1.0  0.95452  0.17858  0.36121  1.0000
  Fe  Fe292     1.0  0.95801  0.11545  0.36684  1.0000
  S   S585      1.0  0.94732  0.10265  0.35222  1.0000
  H   H2604     1.0  0.99064  0.16923  0.36426  1.0000
  S   S586      1.0  0.97253  0.09951  0.38768  1.0000
  Fe  Fe293     1.0  0.70821  0.01410  0.37200  1.0000
  S   S587      1.0  0.73121  0.02218  0.35227  1.0000
  S   S588      1.0  0.68197  0.01475  0.36754  1.0000
  Fe  Fe294     1.0  0.72746  0.00304  0.40207  1.0000
  S   S589      1.0  0.75187  0.01026  0.38490  1.0000
  H   H2605     1.0  0.97938  0.23151  0.42778  1.0000
  Fe  Fe295     1.0  0.73407  0.03391  0.37275  1.0000
  S   S590      1.0  0.73733  0.06140  0.36618  1.0000
  Fe  Fe296     1.0  0.74680  0.99772  0.36640  1.0000
  S   S591      1.0  0.95201  0.16658  0.46694  1.0000
  S   S592      1.0  0.70971  0.02779  0.39156  1.0000
  H   H2606     1.0  0.93665  0.07191  0.39630  1.0000
  H   H2607     1.0  0.66297  0.08580  0.35094  1.0000
  C   C2159     1.0  0.88125  0.13323  0.35768  1.0000
  H   H2608     1.0  0.70083  0.02871  0.33268  1.0000
  H   H2609     1.0  0.82007  0.03365  0.34700  1.0000
  H   H2610     1.0  0.92881  0.41437  0.28483  1.0000
  H   H2611     1.0  0.74783  0.04991  0.42368  1.0000
  C   C2160     1.0  0.91599  0.44871  0.24147  1.0000
  S   S593      1.0  0.89802  0.00694  0.45474  1.0000
  Fe  Fe297     1.0  0.86110  0.06968  0.37898  1.0000
  S   S594      1.0  0.83273  0.07097  0.39065  1.0000
  S   S595      1.0  0.87241  0.08760  0.38697  1.0000
  Fe  Fe298     1.0  0.86460  0.03807  0.36463  1.0000
  S   S596      1.0  0.83646  0.03720  0.37486  1.0000
  S   S597      1.0  0.88234  0.01629  0.35231  1.0000
  Fe  Fe299     1.0  0.83154  0.06607  0.36549  1.0000
  S   S598      1.0  0.80968  0.08172  0.35218  1.0000
  Fe  Fe300     1.0  0.84031  0.04200  0.39892  1.0000
  S   S599      1.0  0.83005  0.02789  0.42600  1.0000
  S   S600      1.0  0.85950  0.06694  0.35292  1.0000
  S   S601      1.0  0.86880  0.04100  0.38943  1.0000
  C   C2161     1.0  0.99107  0.32396  0.42701  1.0000
  H   H2612     1.0  0.94295  0.13344  0.48055  1.0000
  C   C2162     1.0  0.78160  0.04484  0.42324  1.0000
  H   H2613     1.0  0.92590  0.47363  0.26997  1.0000
  C   C2163     1.0  0.98601  0.18317  0.36284  1.0000
  H   H2614     1.0  0.76341  0.00148  0.42404  1.0000
  C   C2164     1.0  0.90849  0.15136  0.34251  1.0000
  H   H2615     1.0  0.96619  0.46055  0.28817  1.0000
  H   H2616     1.0  0.86015  0.00736  0.38566  1.0000
  H   H2617     1.0  0.89166  0.00307  0.42351  1.0000
  C   C2165     1.0  0.84807  0.01846  0.43557  1.0000
  C   C2166     1.0  0.84728  0.02033  0.45220  1.0000
  C   C2167     1.0  0.86260  0.01646  0.45829  1.0000
  C   C2168     1.0  0.87866  0.01045  0.44788  1.0000
  C   C2169     1.0  0.87929  0.00772  0.43161  1.0000
  C   C2170     1.0  0.86396  0.01144  0.42561  1.0000
  H   H2618     1.0  0.83502  0.02578  0.45996  1.0000
  H   H2619     1.0  0.82867  0.08150  0.42582  1.0000
  N   N147      1.0  0.97981  0.07386  0.46140  1.0000
  H   H2620     1.0  0.86448  0.00938  0.41300  1.0000
  H   H2621     1.0  0.95739  0.26691  0.45317  1.0000
  C   C2171     1.0  0.72434  0.00365  0.44377  1.0000
  H   H2622     1.0  0.69102  0.04218  0.30472  1.0000
  C   C2172     1.0  0.78308  0.01711  0.41570  1.0000
  H   H2623     1.0  0.89117  0.44937  0.29643  1.0000
  C   C2173     1.0  0.72539  0.00791  0.47161  1.0000
  C   C2174     1.0  0.98333  0.32329  0.41403  1.0000
  C   C2175     1.0  0.68751  0.02993  0.33217  1.0000
  H   H2624     1.0  0.94888  0.24324  0.44686  1.0000
  H   H2625     1.0  0.98048  0.16273  0.41815  1.0000
  C   C2176     1.0  0.98647  0.06091  0.47622  1.0000
  H   H2626     1.0  0.84544  0.09328  0.41797  1.0000
  N   N148      1.0  0.69801  0.07507  0.33818  1.0000
  H   H2627     1.0  0.67299  0.01035  0.42637  1.0000
  C   C2177     1.0  0.68651  0.07830  0.31123  1.0000
  H   H2628     1.0  0.79325  0.03913  0.42914  1.0000
  Fe  Fe301     1.0  0.97152  0.42471  0.24007  1.0000
  H   H2629     1.0  0.78576  0.05170  0.40946  1.0000
  H   H2630     1.0  0.88855  0.10191  0.46264  1.0000
  H   H2631     1.0  0.92211  0.16154  0.30758  1.0000
  C   C2178     1.0  0.89674  0.15402  0.35843  1.0000
  C   C2179     1.0  0.75797  0.06588  0.36244  1.0000
  C   C2180     1.0  0.77233  0.05325  0.36755  1.0000
  C   C2181     1.0  0.78828  0.05793  0.36501  1.0000
  C   C2182     1.0  0.79000  0.07504  0.35671  1.0000
  C   C2183     1.0  0.77570  0.08741  0.35141  1.0000
  C   C2184     1.0  0.75974  0.08293  0.35447  1.0000
  H   H2632     1.0  0.77107  0.04004  0.37370  1.0000
  H   H2633     1.0  0.79923  0.04832  0.36924  1.0000
  H   H2634     1.0  0.77694  0.10061  0.34500  1.0000
  H   H2635     1.0  0.74875  0.09276  0.35052  1.0000
  C   C2185     1.0  0.92665  0.09810  0.36201  1.0000
  C   C2186     1.0  0.91948  0.08937  0.35423  1.0000
  C   C2187     1.0  0.90294  0.08571  0.36190  1.0000
  C   C2188     1.0  0.89351  0.09094  0.37730  1.0000
  C   C2189     1.0  0.90076  0.09953  0.38511  1.0000
  C   C2190     1.0  0.91727  0.10307  0.37753  1.0000
  H   H2636     1.0  0.92670  0.08550  0.34220  1.0000
  H   H2637     1.0  0.89739  0.07916  0.35574  1.0000
  H   H2638     1.0  0.89352  0.10373  0.39695  1.0000
  H   H2639     1.0  0.92267  0.10970  0.38369  1.0000
  C   C2191     1.0  0.92902  0.20994  0.46964  1.0000
  S   S602      1.0  0.98338  0.12372  0.48372  1.0000
  H   H2640     1.0  0.96328  0.05818  0.46002  1.0000
  C   C2192     1.0  0.96885  0.19099  0.36115  1.0000
  C   C2193     1.0  0.96304  0.20909  0.35901  1.0000
  C   C2194     1.0  0.97426  0.21936  0.35863  1.0000
  H   H2641     1.0  0.93008  0.03749  0.38104  1.0000
  H   H2642     1.0  0.97161  0.31287  0.48113  1.0000
  H   H2643     1.0  0.94982  0.21521  0.35762  1.0000
  H   H2644     1.0  0.96966  0.23331  0.35686  1.0000
  C   C2195     1.0  0.98474  0.21814  0.42648  1.0000
  C   C2196     1.0  0.94515  0.14601  0.43082  1.0000
  C   C2197     1.0  0.94312  0.12938  0.44045  1.0000
  C   C2198     1.0  0.94139  0.12524  0.45849  1.0000
  H   H2645     1.0  0.89812  0.42795  0.29208  1.0000
  H   H2646     1.0  0.82769  0.05886  0.45155  1.0000
  H   H2647     1.0  0.72736  0.00244  0.48470  1.0000
  C   C2199     1.0  0.80649  0.01350  0.35088  1.0000
  C   C2200     1.0  0.93966  0.14820  0.33307  1.0000
  C   C2201     1.0  0.95843  0.36221  0.30698  1.0000
  C   C2202     1.0  0.95526  0.35266  0.29695  1.0000
  C   C2203     1.0  0.95458  0.33506  0.30389  1.0000
  C   C2204     1.0  0.95741  0.32681  0.32071  1.0000
  C   C2205     1.0  0.96092  0.33630  0.33061  1.0000
  C   C2206     1.0  0.96123  0.35400  0.32383  1.0000
  H   H2648     1.0  0.95303  0.35889  0.28396  1.0000
  H   H2649     1.0  0.95180  0.32781  0.29620  1.0000
  H   H2650     1.0  0.96285  0.33014  0.34367  1.0000
  H   H2651     1.0  0.96361  0.36135  0.33166  1.0000
  C   C2207     1.0  0.97023  0.30918  0.44889  1.0000
  H   H2652     1.0  0.94113  0.14013  0.34620  1.0000
  C   C2208     1.0  0.77646  0.00247  0.41694  1.0000
  N   N149      1.0  0.92265  0.16082  0.33408  1.0000
  H   H2653     1.0  0.68315  0.06691  0.36431  1.0000
  H   H2654     1.0  0.95342  0.07234  0.47476  1.0000
  H   H2655     1.0  0.92274  0.44433  0.31258  1.0000
  C   C2209     1.0  0.90147  0.43715  0.29764  1.0000
  H   H2656     1.0  0.97135  0.33516  0.46972  1.0000
  C   C2210     1.0  0.86742  0.08883  0.47088  1.0000
  H   H2657     1.0  0.91333  0.46389  0.29878  1.0000
  H   H2658     1.0  0.87104  0.12607  0.36360  1.0000
  C   C2211     1.0  0.67577  0.02405  0.34725  1.0000
  C   C2212     1.0  0.98969  0.18717  0.43926  1.0000
  C   C2213     1.0  0.93593  0.22200  0.45543  1.0000
  C   C2214     1.0  0.69467  0.06195  0.35472  1.0000
  H   H2659     1.0  0.96740  0.09397  0.47586  1.0000
  C   C2215     1.0  0.83762  0.00878  0.34583  1.0000
  C   C2216     1.0  0.92380  0.07633  0.43793  1.0000
  C   C2217     1.0  0.93165  0.02397  0.41440  1.0000
  C   C2218     1.0  0.96624  0.46561  0.24537  1.0000
  H   H2660     1.0  0.71004  0.08855  0.34906  1.0000
  S   S603      1.0  0.98450  0.37407  0.25307  1.0000
  C   C2219     1.0  0.87987  0.09684  0.45849  1.0000
  C   C2220     1.0  0.96244  0.07127  0.46199  1.0000
  N   N150      1.0  0.84756  0.07386  0.44200  1.0000
  C   C2221     1.0  0.83537  0.06497  0.45644  1.0000
  C   C2222     1.0  0.83715  0.08721  0.43011  1.0000
  C   C2223     1.0  0.85924  0.06055  0.43248  1.0000
  C   C2224     1.0  0.85808  0.08217  0.44791  1.0000
  H   H2661     1.0  0.84249  0.05424  0.46548  1.0000
  C   C2225     1.0  0.87065  0.09079  0.43560  1.0000
  H   H2662     1.0  0.98871  0.32821  0.40042  1.0000
  H   H2663     1.0  0.93076  0.17825  0.30971  1.0000
  H   H2664     1.0  0.97733  0.25923  0.47339  1.0000
  C   C2226     1.0  0.71526  0.06792  0.32791  1.0000
  H   H2665     1.0  0.71524  0.05583  0.32432  1.0000
  H   H2666     1.0  0.84911  0.01384  0.34364  1.0000
  S   S604      1.0  0.72742  0.98953  0.43007  1.0000
  H   H2667     1.0  0.95145  0.24230  0.47672  1.0000
  C   C2227     1.0  0.94644  0.15817  0.43921  1.0000
  H   H2668     1.0  0.93529  0.22212  0.44232  1.0000
  H   H2669     1.0  0.85179  0.05376  0.42810  1.0000
  H   H2670     1.0  0.86788  0.06627  0.42055  1.0000
  H   H2671     1.0  0.90771  0.17949  0.31632  1.0000
  H   H2672     1.0  0.91275  0.42817  0.26388  1.0000
  H   H2673     1.0  0.80633  0.02795  0.40383  1.0000
  H   H2674     1.0  0.67751  0.99502  0.40463  1.0000
  C   C2228     1.0  0.92299  0.17370  0.34351  1.0000
  C   C2229     1.0  0.97775  0.26784  0.43009  1.0000
  C   C2230     1.0  0.69915  0.09111  0.34232  1.0000
  C   C2231     1.0  0.72233  0.02595  0.46508  1.0000
  H   H2675     1.0  0.92430  0.05980  0.38212  1.0000
  C   C2232     1.0  0.88335  0.14504  0.36582  1.0000
  H   H2676     1.0  0.87465  0.14708  0.37805  1.0000
  C   C2233     1.0  0.96559  0.48353  0.23989  1.0000
  C   C2234     1.0  0.97742  0.09161  0.46395  1.0000
  C   C2235     1.0  0.92293  0.45122  0.29871  1.0000
  C   C2236     1.0  0.91903  0.44945  0.27029  1.0000
  H   H2677     1.0  0.95177  0.30237  0.43906  1.0000
  H   H2678     1.0  0.94487  0.04636  0.38659  1.0000
  H   H2679     1.0  0.95076  0.15481  0.32775  1.0000
  H   H2680     1.0  0.76088  0.04692  0.40280  1.0000
  H   H2681     1.0  0.92530  0.01880  0.42804  1.0000
  H   H2682     1.0  0.94510  0.42590  0.28261  1.0000
  H   H2683     1.0  0.89105  0.10427  0.43123  1.0000
  H   H2684     1.0  0.90326  0.03329  0.40040  1.0000
  C   C2237     1.0  0.93086  0.04661  0.38846  1.0000
  H   H2685     1.0  0.69344  0.99154  0.33561  1.0000
  C   C2238     1.0  0.72034  0.02170  0.43752  1.0000
  H   H2686     1.0  0.93943  0.11252  0.46594  1.0000
  H   H2687     1.0  0.92395  0.08497  0.44574  1.0000
  C   C2239     1.0  0.80326  0.98942  0.39938  1.0000
  H   H2688     1.0  0.72570  0.06443  0.33539  1.0000
  H   H2689     1.0  0.98609  0.32350  0.48404  1.0000
  C   C2240     1.0  0.80805  0.99595  0.35150  1.0000
  H   H2690     1.0  0.91046  0.05968  0.45951  1.0000
  H   H2691     1.0  0.93370  0.18067  0.33683  1.0000
  C   C2241     1.0  0.97122  0.26541  0.44810  1.0000
  H   H2692     1.0  0.75751  0.01500  0.44567  1.0000
  C   C2242     1.0  0.83933  0.99120  0.34639  1.0000
  H   H2693     1.0  0.82586  0.07416  0.46410  1.0000
  H   H2694     1.0  0.82872  0.09784  0.43656  1.0000
  C   C2243     1.0  0.85650  0.08175  0.46576  1.0000
  H   H2695     1.0  0.71680  0.04678  0.44308  1.0000
  C   C2244     1.0  0.96633  0.45740  0.26284  1.0000
  C   C2245     1.0  0.98248  0.26140  0.45953  1.0000
  H   H2696     1.0  0.66720  0.99328  0.46428  1.0000
  H   H2697     1.0  0.86764  0.05058  0.44086  1.0000
  H   H2698     1.0  0.90959  0.04022  0.44232  1.0000
  H   H2699     1.0  0.67256  0.00267  0.31765  1.0000
  H   H2700     1.0  0.77320  0.05509  0.43025  1.0000
  H   H2701     1.0  0.94127  0.13897  0.32481  1.0000
  C   C2246     1.0  0.96253  0.30874  0.43581  1.0000
  H   H2702     1.0  0.71935  0.07758  0.31588  1.0000
  C   C2247     1.0  0.90422  0.04194  0.40823  1.0000
  H   H2703     1.0  0.96650  0.44370  0.26727  1.0000
  C   C2248     1.0  0.72646  0.99677  0.46095  1.0000
  C   C2249     1.0  0.89268  0.13014  0.34224  1.0000
  H   H2704     1.0  0.69257  0.05009  0.35236  1.0000
  C   C2250     1.0  0.97996  0.32231  0.47398  1.0000
  H   H2705     1.0  0.87244  0.09180  0.42180  1.0000
  H   H2706     1.0  0.97324  0.10169  0.45263  1.0000
  C   C2251     1.0  0.92302  0.47388  0.24508  1.0000
  C   C2252     1.0  0.68341  0.99978  0.43159  1.0000
  H   H2707     1.0  0.94532  0.02355  0.41443  1.0000
  C   C2253     1.0  0.91617  0.06209  0.44566  1.0000
  C   C2254     1.0  0.93196  0.42398  0.29002  1.0000
  C   C2255     1.0  0.94335  0.13709  0.46673  1.0000
  C   C2256     1.0  0.71940  0.03283  0.44813  1.0000
  H   H2708     1.0  0.86192  0.01899  0.47067  1.0000
  H   H2709     1.0  0.75863  0.03427  0.45057  1.0000
  H   H2710     1.0  0.71845  0.02713  0.42435  1.0000
  C   C2257     1.0  0.66653  0.99124  0.32382  1.0000
  H   H2711     1.0  0.91495  0.13575  0.32305  1.0000
  H   H2712     1.0  0.89770  0.16282  0.36555  1.0000
  H   H2713     1.0  0.89689  0.05530  0.40320  1.0000
  C   C2258     1.0  0.94628  0.15338  0.45705  1.0000
  C   C2259     1.0  0.93100  0.07958  0.42012  1.0000
  H   H2714     1.0  0.82837  0.99388  0.47556  1.0000
  C   C2260     1.0  0.80018  0.01739  0.40561  1.0000
  C   C2261     1.0  0.88133  0.09802  0.44085  1.0000
  C   C2262     1.0  0.92070  0.17041  0.31615  1.0000
  H   H2715     1.0  0.68801  0.00478  0.44044  1.0000
  H   H2716     1.0  0.93671  0.09082  0.41406  1.0000
  C   C2263     1.0  0.75697  0.04005  0.41657  1.0000
  C   C2264     1.0  0.92306  0.05390  0.41748  1.0000
  C   C2265     1.0  0.82127  0.01995  0.34786  1.0000
  C   C2266     1.0  0.66477  0.03892  0.31537  1.0000
  C   C2267     1.0  0.98463  0.31702  0.44493  1.0000
  H   H2717     1.0  0.92536  0.16730  0.35686  1.0000
  N   N151      1.0  0.77230  0.03127  0.42451  1.0000
  H   H2718     1.0  0.94846  0.17088  0.43173  1.0000
  C   C2268     1.0  0.96915  0.31564  0.41842  1.0000
  H   H2719     1.0  0.93187  0.01462  0.40676  1.0000
  H   H2720     1.0  0.68710  0.09657  0.35107  1.0000
  H   H2721     1.0  0.96353  0.31458  0.40831  1.0000
  C   C2269     1.0  0.93078  0.06854  0.40999  1.0000
  N   N152      1.0  0.92254  0.04190  0.40721  1.0000
  H   H2722     1.0  0.90071  0.43107  0.31177  1.0000
  N   N153      1.0  0.91888  0.44074  0.28884  1.0000
  C   C2270     1.0  0.94376  0.23381  0.45796  1.0000
  S   S605      1.0  0.97741  0.13670  0.39210  1.0000
  H   H2723     1.0  0.94597  0.14943  0.41690  1.0000
  S   S606      1.0  0.72365  0.98860  0.38450  1.0000
  C   C2271     1.0  0.68197  0.03746  0.31632  1.0000
  H   H2724     1.0  0.93306  0.41744  0.30373  1.0000
  C   C2272     1.0  0.91572  0.05105  0.43565  1.0000
  H   H2725     1.0  0.98782  0.22103  0.47676  1.0000
  H   H2726     1.0  0.95593  0.08142  0.45214  1.0000
  H   H2727     1.0  0.97642  0.20705  0.45371  1.0000
  S   S607      1.0  0.72333  0.04014  0.47717  1.0000
  C   C2273     1.0  0.96600  0.46701  0.27469  1.0000
  H   H2728     1.0  0.91070  0.18387  0.34451  1.0000
  H   H2729     1.0  0.93616  0.45382  0.29314  1.0000
  H   H2730     1.0  0.96516  0.30278  0.46205  1.0000
  S   S608      1.0  0.95147  0.40840  0.24972  1.0000
  H   H2731     1.0  0.77743  0.01651  0.44959  1.0000
  H   H2732     1.0  0.69929  0.07455  0.30344  1.0000
  Fe  Fe302     1.0  0.89150  0.01500  0.48016  1.0000
  C   C2274     1.0  0.90617  0.13895  0.33479  1.0000
  C   C2275     1.0  0.98314  0.20440  0.44103  1.0000
  H   H2733     1.0  0.70572  0.05785  0.36143  1.0000
  H   H2734     1.0  0.89734  0.03721  0.42178  1.0000
  C   C2276     1.0  0.66615  0.08439  0.33763  1.0000
  C   C2277     1.0  0.68366  0.07918  0.32893  1.0000
  C   C2278     1.0  0.67260  0.08169  0.30312  1.0000
  C   C2279     1.0  0.81003  0.00372  0.39760  1.0000
  H   H2735     1.0  0.98763  0.17698  0.45087  1.0000
  H   H2736     1.0  0.98952  0.09394  0.46552  1.0000
  H   H2737     1.0  0.69472  0.99747  0.42068  1.0000
  C   C2280     1.0  0.66292  0.98768  0.45567  1.0000
  C   C2281     1.0  0.96582  0.48483  0.26910  1.0000
  H   H2738     1.0  0.70142  0.10141  0.33025  1.0000
  H   H2739     1.0  0.98340  0.15548  0.44020  1.0000
  C   C2282     1.0  0.99027  0.15590  0.42638  1.0000
  H   H2740     1.0  0.79621  0.99167  0.35366  1.0000
  S   S609      1.0  0.87845  0.04262  0.48044  1.0000
  C   C2283     1.0  0.87650  0.99654  0.36412  1.0000
  H   H2741     1.0  0.97458  0.06991  0.43017  1.0000
  H   H2742     1.0  0.98968  0.04744  0.47415  1.0000
  C   C2284     1.0  0.98770  0.07009  0.43011  1.0000
  H   H2743     1.0  0.86662  0.08762  0.48463  1.0000
  C   C2285     1.0  0.99143  0.21160  0.36015  1.0000
  Fe  Fe303     1.0  0.99121  0.11714  0.37568  1.0000
  H   H2744     1.0  0.99111  0.34638  0.28965  1.0000
  C   C2286     1.0  0.78647  0.98883  0.40896  1.0000
  H   H2745     1.0  0.66103  0.98763  0.24506  1.0000
  H   H2746     1.0  0.92644  0.48643  0.23945  1.0000
  C   C2287     1.0  0.65866  0.02528  0.34624  1.0000
  H   H2747     1.0  0.79175  0.02578  0.55399  1.0000
  C   C2288     1.0  0.67720  0.07391  0.57157  1.0000
  H   H2748     1.0  0.96613  0.16504  0.58013  1.0000
  H   H2749     1.0  0.76392  0.02700  0.54525  1.0000
  H   H2750     1.0  0.94005  0.22125  0.50164  1.0000
  S   S610      1.0  0.94827  0.13456  0.51361  1.0000
  C   C2289     1.0  0.67404  0.05428  0.49998  1.0000
  Fe  Fe304     1.0  0.96628  0.14083  0.52606  1.0000
  S   S611      1.0  0.95611  0.15261  0.54955  1.0000
  Fe  Fe305     1.0  0.96930  0.11069  0.50975  1.0000
  S   S612      1.0  0.96521  0.08333  0.51411  1.0000
  H   H2751     1.0  0.74262  0.06728  0.54215  1.0000
  C   C2290     1.0  0.97372  0.41513  0.60471  1.0000
  H   H2752     1.0  0.92309  0.41067  0.68232  1.0000
  S   S613      1.0  0.94060  0.35890  0.62657  1.0000
  C   C2291     1.0  0.97076  0.29873  0.55894  1.0000
  Fe  Fe306     1.0  0.97294  0.24538  0.52506  1.0000
  H   H2753     1.0  0.74393  0.03901  0.55578  1.0000
  S   S614      1.0  0.94927  0.23404  0.53275  1.0000
  H   H2754     1.0  0.94902  0.40270  0.64956  1.0000
  C   C2292     1.0  0.96781  0.19165  0.57561  1.0000
  H   H2755     1.0  0.81134  0.99233  0.53953  1.0000
  S   S615      1.0  0.69185  0.98871  0.54897  1.0000
  S   S616      1.0  0.97397  0.27000  0.50421  1.0000
  Fe  Fe307     1.0  0.95778  0.34948  0.64593  1.0000
  S   S617      1.0  0.72805  0.00937  0.55398  1.0000
  H   H2756     1.0  0.66501  0.03030  0.59877  1.0000
  Fe  Fe308     1.0  0.89471  0.04113  0.49909  1.0000
  S   S618      1.0  0.90978  0.01402  0.49653  1.0000
  H   H2757     1.0  0.98018  0.46665  0.73038  1.0000
  Fe  Fe309     1.0  0.85958  0.03190  0.50362  1.0000
  S   S619      1.0  0.87148  0.00418  0.50200  1.0000
  S   S620      1.0  0.83159  0.04437  0.50244  1.0000
  Fe  Fe310     1.0  0.88851  0.00511  0.51865  1.0000
  H   H2758     1.0  0.75635  0.02094  0.56836  1.0000
  H   H2759     1.0  0.95854  0.46190  0.61297  1.0000
  S   S621      1.0  0.87466  0.03219  0.52257  1.0000
  H   H2760     1.0  0.94388  0.46908  0.69430  1.0000
  S   S622      1.0  0.96920  0.37289  0.63718  1.0000
  H   H2761     1.0  0.80211  0.07437  0.51141  1.0000
  C   C2293     1.0  0.82097  0.01461  0.52268  1.0000
  C   C2294     1.0  0.81734  0.03013  0.51031  1.0000
  C   C2295     1.0  0.80174  0.03480  0.50457  1.0000
  C   C2296     1.0  0.78964  0.02419  0.51138  1.0000
  Fe  Fe311     1.0  0.98961  0.47889  0.61034  1.0000
  H   H2762     1.0  0.83298  0.01094  0.52723  1.0000
  H   H2763     1.0  0.67295  0.02807  0.55669  1.0000
  Fe  Fe312     1.0  0.71910  0.03706  0.54062  1.0000
  S   S623      1.0  0.95945  0.32372  0.59816  1.0000
  C   C2297     1.0  0.77477  0.08335  0.51167  1.0000
  H   H2764     1.0  0.94573  0.44037  0.71486  1.0000
  C   C2298     1.0  0.94544  0.34635  0.69115  1.0000
  C   C2299     1.0  0.94794  0.42640  0.69538  1.0000
  C   C2300     1.0  0.93213  0.34294  0.70561  1.0000
  C   C2301     1.0  0.75579  0.06845  0.53585  1.0000
  H   H2765     1.0  0.96447  0.36838  0.70765  1.0000
  Fe  Fe313     1.0  0.75002  0.00888  0.53034  1.0000
  H   H2766     1.0  0.98073  0.17397  0.52889  1.0000
  Fe  Fe314     1.0  0.95400  0.38131  0.61619  1.0000
  C   C2302     1.0  0.93622  0.40203  0.68266  1.0000
  C   C2303     1.0  0.98047  0.44192  0.60518  1.0000
  C   C2304     1.0  0.78911  0.07285  0.51835  1.0000
  C   C2305     1.0  0.75744  0.03225  0.55708  1.0000
  C   C2306     1.0  0.94689  0.07904  0.50995  1.0000
  C   C2307     1.0  0.94513  0.06173  0.51370  1.0000
  C   C2308     1.0  0.93161  0.05770  0.50910  1.0000
  C   C2309     1.0  0.91977  0.07098  0.50063  1.0000
  C   C2310     1.0  0.93689  0.18403  0.50930  1.0000
  C   C2311     1.0  0.93480  0.09233  0.50187  1.0000
  H   H2767     1.0  0.95437  0.05135  0.52004  1.0000
  H   H2768     1.0  0.93048  0.04432  0.51192  1.0000
  H   H2769     1.0  0.68051  0.08612  0.56404  1.0000
  H   H2770     1.0  0.93592  0.10569  0.49904  1.0000
  C   C2312     1.0  0.94169  0.35829  0.72124  1.0000
  C   C2313     1.0  0.95492  0.17509  0.54486  1.0000
  C   C2314     1.0  0.93973  0.18591  0.55201  1.0000
  C   C2315     1.0  0.93822  0.20395  0.54816  1.0000
  C   C2316     1.0  0.95207  0.21127  0.53754  1.0000
  C   C2317     1.0  0.96744  0.20045  0.53060  1.0000
  C   C2318     1.0  0.96883  0.18235  0.53413  1.0000
  H   H2771     1.0  0.92902  0.18034  0.56040  1.0000
  H   H2772     1.0  0.92634  0.21224  0.55362  1.0000
  H   H2773     1.0  0.95979  0.42008  0.64428  1.0000
  H   H2774     1.0  0.78099  0.02256  0.57639  1.0000
  C   C2319     1.0  0.96276  0.44893  0.61058  1.0000
  H   H2775     1.0  0.81293  0.99392  0.49595  1.0000
  S   S624      1.0  0.70906  0.05882  0.55484  1.0000
  H   H2776     1.0  0.96948  0.31360  0.69542  1.0000
  H   H2777     1.0  0.92100  0.48464  0.57345  1.0000
  H   H2778     1.0  0.95411  0.19609  0.58088  1.0000
  S   S625      1.0  0.74192  0.03725  0.51800  1.0000
  S   S626      1.0  0.70283  0.03116  0.52629  1.0000
  H   H2779     1.0  0.76342  0.06181  0.57535  1.0000
  H   H2780     1.0  0.98847  0.19219  0.49711  1.0000
  C   C2320     1.0  0.67675  0.03901  0.49441  1.0000
  H   H2781     1.0  0.97816  0.20601  0.52244  1.0000
  C   C2321     1.0  0.91165  0.18731  0.49839  1.0000
  H   H2782     1.0  0.93626  0.42380  0.65094  1.0000
  C   C2322     1.0  0.94553  0.45891  0.67226  1.0000
  S   S627      1.0  0.98614  0.11577  0.52466  1.0000
  H   H2783     1.0  0.97346  0.34369  0.56352  1.0000
  H   H2784     1.0  0.91774  0.45592  0.57360  1.0000
  H   H2785     1.0  0.96871  0.39535  0.68739  1.0000
  H   H2786     1.0  0.65929  0.01420  0.55764  1.0000
  C   C2323     1.0  0.94922  0.47743  0.57046  1.0000
  H   H2787     1.0  0.75475  0.04271  0.58630  1.0000
  H   H2788     1.0  0.74368  0.05974  0.57148  1.0000
  C   C2324     1.0  0.96593  0.30290  0.57536  1.0000
  C   C2325     1.0  0.93059  0.45811  0.57187  1.0000
  C   C2326     1.0  0.77011  0.05737  0.54293  1.0000
  H   H2789     1.0  0.90586  0.17851  0.51032  1.0000
  Fe  Fe315     1.0  0.96302  0.34481  0.60890  1.0000
  H   H2790     1.0  0.98436  0.45368  0.66611  1.0000
  H   H2791     1.0  0.91957  0.34651  0.73145  1.0000
  H   H2792     1.0  0.94480  0.47160  0.66334  1.0000
  H   H2793     1.0  0.77657  0.09313  0.49966  1.0000
  C   C2327     1.0  0.68905  0.05819  0.56972  1.0000
  N   N154      1.0  0.92239  0.19697  0.50234  1.0000
  C   C2328     1.0  0.97627  0.31086  0.54402  1.0000
  C   C2329     1.0  0.94618  0.44134  0.70126  1.0000
  C   C2330     1.0  0.96680  0.31911  0.57715  1.0000
  C   C2331     1.0  0.80874  0.00409  0.52963  1.0000
  S   S628      1.0  0.94080  0.40984  0.61221  1.0000
  H   H2794     1.0  0.97274  0.43624  0.56665  1.0000
  H   H2795     1.0  0.97795  0.40646  0.66614  1.0000
  C   C2332     1.0  0.94712  0.44409  0.66623  1.0000
  S   S629      1.0  0.97962  0.15618  0.50144  1.0000
  H   H2796     1.0  0.98082  0.29594  0.68537  1.0000
  H   H2797     1.0  0.90080  0.19638  0.49249  1.0000
  C   C2333     1.0  0.93009  0.34911  0.72044  1.0000
  C   C2334     1.0  0.95529  0.36158  0.70691  1.0000
  H   H2798     1.0  0.69381  0.03021  0.57826  1.0000
  C   C2335     1.0  0.75813  0.08116  0.52042  1.0000
  H   H2799     1.0  0.94754  0.44614  0.65251  1.0000
  H   H2800     1.0  0.97692  0.46411  0.56696  1.0000
  H   H2801     1.0  0.96121  0.29357  0.58676  1.0000
  C   C2336     1.0  0.68466  0.04242  0.57956  1.0000
  H   H2802     1.0  0.93222  0.17450  0.52123  1.0000
  H   H2803     1.0  0.96761  0.35811  0.68073  1.0000
  H   H2804     1.0  0.98222  0.44568  0.64062  1.0000
  H   H2805     1.0  0.77783  0.02777  0.50662  1.0000
  C   C2337     1.0  0.93260  0.47444  0.57195  1.0000
  Fe  Fe316     1.0  0.71327  0.00332  0.53793  1.0000
  C   C2338     1.0  0.94873  0.41474  0.65339  1.0000
  S   S630      1.0  0.73621  0.99973  0.51567  1.0000
  H   H2806     1.0  0.98162  0.33655  0.53427  1.0000
  H   H2807     1.0  0.98289  0.45053  0.69538  1.0000
  H   H2808     1.0  0.90487  0.19720  0.52747  1.0000
  C   C2339     1.0  0.75685  0.05242  0.57371  1.0000
  C   C2340     1.0  0.79297  0.00895  0.52414  1.0000
  H   H2809     1.0  0.66392  0.06754  0.52054  1.0000
  H   H2810     1.0  0.79892  0.04671  0.49491  1.0000
  C   C2341     1.0  0.95598  0.42228  0.60948  1.0000
  C   C2342     1.0  0.95704  0.35578  0.69171  1.0000
  C   C2343     1.0  0.97285  0.33112  0.56230  1.0000
  H   H2811     1.0  0.97362  0.48518  0.58263  1.0000
  H   H2812     1.0  0.92327  0.33549  0.70533  1.0000
  H   H2813     1.0  0.94911  0.41410  0.70483  1.0000
  N   N155      1.0  0.76721  0.04390  0.55922  1.0000
  C   C2344     1.0  0.78356  0.03278  0.56433  1.0000
  C   C2345     1.0  0.96726  0.39972  0.67362  1.0000
  Fe  Fe317     1.0  0.72645  0.02817  0.50494  1.0000
  N   N156      1.0  0.95004  0.41132  0.67184  1.0000
  S   S631      1.0  0.97493  0.36819  0.59668  1.0000
  S   S632      1.0  0.94813  0.33666  0.67373  1.0000
  C   C2346     1.0  0.66842  0.04247  0.59125  1.0000
  C   C2347     1.0  0.95047  0.43923  0.61238  1.0000
  S   S633      1.0  0.90334  0.06667  0.49327  1.0000
  C   C2348     1.0  0.94822  0.42734  0.67772  1.0000
  C   C2349     1.0  0.94503  0.45754  0.68973  1.0000
  S   S634      1.0  0.97138  0.43417  0.73396  1.0000
  H   H2814     1.0  0.74694  0.08925  0.51522  1.0000
  H   H2815     1.0  0.93675  0.39032  0.67802  1.0000
  C   C2350     1.0  0.97744  0.32704  0.54575  1.0000
  H   H2816     1.0  0.93674  0.44477  0.61611  1.0000
  S   S635      1.0  0.77759  0.99590  0.53346  1.0000
  H   H2817     1.0  0.66173  0.06029  0.55062  1.0000
  H   H2818     1.0  0.96965  0.28632  0.55783  1.0000
  C   C2351     1.0  0.92141  0.08830  0.49711  1.0000
  H   H2819     1.0  0.79869  0.05215  0.53783  1.0000
  H   H2820     1.0  0.79128  0.04054  0.56699  1.0000
  H   H2821     1.0  0.93728  0.39718  0.69654  1.0000
  C   C2352     1.0  0.78692  0.06002  0.53372  1.0000
  C   C2353     1.0  0.96375  0.46327  0.56807  1.0000
  C   C2354     1.0  0.67005  0.02507  0.50561  1.0000
  C   C2355     1.0  0.94503  0.44442  0.56994  1.0000
  C   C2356     1.0  0.97464  0.17415  0.57522  1.0000
  H   H2822     1.0  0.91954  0.17865  0.48939  1.0000
  H   H2823     1.0  0.97677  0.06121  0.48873  1.0000
  H   H2824     1.0  0.94339  0.43160  0.57048  1.0000
  C   C2357     1.0  0.91127  0.20617  0.51615  1.0000
  C   C2358     1.0  0.98598  0.32450  0.71463  1.0000
  C   C2359     1.0  0.96157  0.44706  0.56781  1.0000
  H   H2825     1.0  0.91877  0.21180  0.52171  1.0000
  H   H2826     1.0  0.67973  0.06489  0.49131  1.0000
  H   H2827     1.0  0.98199  0.29440  0.70734  1.0000
  H   H2828     1.0  0.97301  0.21721  0.56865  1.0000
  S   S636      1.0  0.98180  0.25470  0.54383  1.0000
  S   S637      1.0  0.98127  0.30624  0.52309  1.0000
  C   C2360     1.0  0.66082  0.02628  0.52251  1.0000
  S   S638      1.0  0.97918  0.33383  0.62928  1.0000
  H   H2829     1.0  0.67131  0.11875  0.72750  1.0000
  H   H2830     1.0  0.90095  0.21696  0.51102  1.0000
  H   H2831     1.0  0.97809  0.40207  0.60248  1.0000
  H   H2832     1.0  0.96950  0.38783  0.66863  1.0000
  Fe  Fe318     1.0  0.98536  0.27807  0.52192  1.0000
  H   H2833     1.0  0.94520  0.17658  0.49945  1.0000
  C   C2361     1.0  0.65914  0.02728  0.55913  1.0000
  C   C2362     1.0  0.98589  0.42502  0.60229  1.0000
  C   C2363     1.0  0.97849  0.20352  0.56866  1.0000
  H   H2834     1.0  0.91232  0.09868  0.49056  1.0000
  Fe  Fe319     1.0  0.96356  0.14785  0.48873  1.0000
  Fe  Fe320     1.0  0.98904  0.35822  0.61868  1.0000
  C   C2364     1.0  0.66495  0.05557  0.51693  1.0000
  C   C2365     1.0  0.98785  0.33436  0.72515  1.0000
  H   H2835     1.0  0.67249  0.01306  0.50139  1.0000
  H   H2836     1.0  0.83472  0.99530  0.49431  1.0000
  C   C2366     1.0  0.93836  0.22126  0.48898  1.0000
  H   H2837     1.0  0.94538  0.19032  0.51278  1.0000
  H   H2838     1.0  0.98511  0.33356  0.67043  1.0000
  C   C2367     1.0  0.66682  0.06335  0.73236  1.0000
  H   H2839     1.0  0.97445  0.31926  0.71889  1.0000
  C   C2368     1.0  0.66585  0.06571  0.71509  1.0000
  C   C2369     1.0  0.98175  0.30345  0.69435  1.0000
  C   C2370     1.0  0.66081  0.07393  0.58265  1.0000
  S   S639      1.0  0.98040  0.38659  0.73111  1.0000
  H   H2840     1.0  0.66996  0.05469  0.70896  1.0000
  C   C2371     1.0  0.82677  0.98905  0.48993  1.0000
  C   C2372     1.0  0.92966  0.20948  0.48696  1.0000
  C   C2373     1.0  0.65891  0.08215  0.70589  1.0000
  H   H2841     1.0  0.67431  0.48269  0.85515  1.0000
  Fe  Fe321     1.0  0.72877  0.39646  0.85983  1.0000
  S   S640      1.0  0.71356  0.41079  0.88076  1.0000
  S   S641      1.0  0.75509  0.40196  0.84607  1.0000
  Fe  Fe322     1.0  0.69811  0.38185  0.86040  1.0000
  S   S642      1.0  0.68039  0.39531  0.88119  1.0000
  S   S643      1.0  0.69004  0.36463  0.84822  1.0000
  Fe  Fe323     1.0  0.69207  0.41826  0.86643  1.0000
  S   S644      1.0  0.67715  0.44594  0.86020  1.0000
  Fe  Fe324     1.0  0.70353  0.38651  0.89341  1.0000
  S   S645      1.0  0.69884  0.37522  0.92201  1.0000
  S   S646      1.0  0.70788  0.40568  0.84439  1.0000
  S   S647      1.0  0.72067  0.37125  0.87384  1.0000
  H   H2842     1.0  0.67645  0.33729  0.84498  1.0000
  H   H2843     1.0  0.78029  0.48325  0.83487  1.0000
  Fe  Fe325     1.0  0.86184  0.40153  0.86827  1.0000
  S   S648      1.0  0.83319  0.40732  0.86906  1.0000
  S   S649      1.0  0.87795  0.41488  0.84368  1.0000
  Fe  Fe326     1.0  0.85772  0.38072  0.90578  1.0000
  S   S650      1.0  0.82881  0.38534  0.90977  1.0000
  S   S651      1.0  0.87105  0.36183  0.92650  1.0000
  Fe  Fe327     1.0  0.83447  0.37957  0.88334  1.0000
  S   S652      1.0  0.81973  0.36165  0.88035  1.0000
  Fe  Fe328     1.0  0.83020  0.41259  0.89520  1.0000
  S   S653      1.0  0.81151  0.43664  0.90237  1.0000
  S   S654      1.0  0.86343  0.37302  0.88014  1.0000
  S   S655      1.0  0.85874  0.40863  0.89372  1.0000
  C   C2374     1.0  0.75832  0.45196  0.85527  1.0000
  H   H2844     1.0  0.67753  0.35650  0.94858  1.0000
  H   H2845     1.0  0.97804  0.33632  0.73684  1.0000
  H   H2846     1.0  0.78362  0.39685  0.96776  1.0000
  S   S656      1.0  0.71412  0.45768  0.98124  1.0000
  C   C2375     1.0  0.84272  0.46018  0.95220  1.0000
  H   H2847     1.0  0.78870  0.41200  0.91188  1.0000
  H   H2848     1.0  0.67695  0.29715  0.94587  1.0000
  C   C2376     1.0  0.75926  0.41743  0.88771  1.0000
  H   H2849     1.0  0.76343  0.34551  0.93612  1.0000
  C   C2377     1.0  0.81414  0.45515  0.95568  1.0000
  C   C2378     1.0  0.68123  0.47830  0.89550  1.0000
  H   H2850     1.0  0.88836  0.46730  0.92246  1.0000
  C   C2379     1.0  0.96895  0.40645  0.82272  1.0000
  H   H2851     1.0  0.78523  0.47667  0.88043  1.0000
  C   C2380     1.0  0.75858  0.46674  0.86091  1.0000
  H   H2852     1.0  0.70346  0.43587  0.93682  1.0000
  S   S657      1.0  0.66406  0.26159  0.96190  1.0000
  H   H2853     1.0  0.88624  0.44714  0.90758  1.0000
  C   C2381     1.0  0.77634  0.41605  0.90792  1.0000
  C   C2382     1.0  0.84718  0.45912  0.93442  1.0000
  H   H2854     1.0  0.67766  0.22552  0.97503  1.0000
  H   H2855     1.0  0.66309  0.38722  0.94079  1.0000
  H   H2856     1.0  0.67507  0.40792  0.80172  1.0000
  C   C2383     1.0  0.97215  0.46214  0.77433  1.0000
  H   H2857     1.0  0.87486  0.43415  0.92651  1.0000
  C   C2384     1.0  0.86868  0.38555  0.96489  1.0000
  H   H2858     1.0  0.67598  0.31575  0.88620  1.0000
  H   H2859     1.0  0.96185  0.42589  0.77149  1.0000
  H   H2860     1.0  0.83164  0.38216  0.95415  1.0000
  H   H2861     1.0  0.68252  0.43641  0.89548  1.0000
  C   C2385     1.0  0.74272  0.44904  0.85408  1.0000
  H   H2862     1.0  0.74154  0.44987  0.93749  1.0000
  H   H2863     1.0  0.71167  0.46451  0.92085  1.0000
  C   C2386     1.0  0.69662  0.33550  0.91530  1.0000
  H   H2864     1.0  0.85332  0.47468  0.89974  1.0000
  C   C2387     1.0  0.79597  0.33353  0.92155  1.0000
  H   H2865     1.0  0.67513  0.48407  0.94842  1.0000
  C   C2388     1.0  0.81540  0.47050  0.89202  1.0000
  C   C2389     1.0  0.82101  0.45373  0.88880  1.0000
  C   C2390     1.0  0.83513  0.45024  0.87520  1.0000
  C   C2391     1.0  0.84428  0.46302  0.86549  1.0000
  H   H2866     1.0  0.67183  0.05042  0.73958  1.0000
  H   H2867     1.0  0.80433  0.47340  0.90238  1.0000
  H   H2868     1.0  0.83939  0.43757  0.87222  1.0000
  H   H2869     1.0  0.85536  0.45998  0.85520  1.0000
  C   C2392     1.0  0.79150  0.40502  0.96953  1.0000
  H   H2870     1.0  0.66672  0.26290  0.82040  1.0000
  H   H2871     1.0  0.70705  0.33475  0.93696  1.0000
  S   S658      1.0  0.93824  0.36540  0.74047  1.0000
  H   H2872     1.0  0.83810  0.37151  0.98108  1.0000
  C   C2393     1.0  0.67698  0.21183  0.97653  1.0000
  H   H2873     1.0  0.68847  0.20324  0.98169  1.0000
  C   C2394     1.0  0.89824  0.47644  0.82838  1.0000
  H   H2874     1.0  0.95764  0.40082  0.82855  1.0000
  H   H2875     1.0  0.77846  0.36628  0.91335  1.0000
  C   C2395     1.0  0.67850  0.45833  0.87396  1.0000
  C   C2396     1.0  0.68149  0.45029  0.89072  1.0000
  C   C2397     1.0  0.68259  0.46030  0.90155  1.0000
  H   H2876     1.0  0.87006  0.47733  0.93668  1.0000
  N   N157      1.0  0.80937  0.39493  0.97108  1.0000
  C   C2398     1.0  0.67671  0.47640  0.86807  1.0000
  C   C2399     1.0  0.98454  0.42864  0.81933  1.0000
  H   H2877     1.0  0.87322  0.47961  0.89913  1.0000
  H   H2878     1.0  0.80873  0.45126  0.93296  1.0000
  H   H2879     1.0  0.88495  0.45885  0.84911  1.0000
  C   C2400     1.0  0.71530  0.37714  0.93049  1.0000
  C   C2401     1.0  0.71303  0.37474  0.94849  1.0000
  C   C2402     1.0  0.72544  0.37782  0.95532  1.0000
  C   C2403     1.0  0.74015  0.38317  0.94416  1.0000
  C   C2404     1.0  0.74281  0.38481  0.92622  1.0000
  C   C2405     1.0  0.73036  0.38182  0.91935  1.0000
  H   H2880     1.0  0.70144  0.37105  0.95716  1.0000
  H   H2881     1.0  0.75824  0.41440  0.87603  1.0000
  H   H2882     1.0  0.75402  0.38918  0.91757  1.0000
  H   H2883     1.0  0.73228  0.38343  0.90543  1.0000
  C   C2406     1.0  0.77293  0.39035  0.85561  1.0000
  C   C2407     1.0  0.78821  0.39662  0.85002  1.0000
  C   C2408     1.0  0.80258  0.38789  0.85762  1.0000
  C   C2409     1.0  0.80185  0.37267  0.87064  1.0000
  C   C2410     1.0  0.78667  0.36622  0.87603  1.0000
  C   C2411     1.0  0.77209  0.37524  0.86877  1.0000
  H   H2884     1.0  0.78891  0.40827  0.83977  1.0000
  H   H2885     1.0  0.81436  0.39272  0.85310  1.0000
  H   H2886     1.0  0.78613  0.35430  0.88586  1.0000
  H   H2887     1.0  0.76034  0.37033  0.87307  1.0000
  C   C2412     1.0  0.93139  0.38541  0.81970  1.0000
  C   C2413     1.0  0.92242  0.37794  0.83611  1.0000
  C   C2414     1.0  0.90596  0.38683  0.84357  1.0000
  C   C2415     1.0  0.89851  0.40333  0.83473  1.0000
  C   C2416     1.0  0.90758  0.41089  0.81840  1.0000
  C   C2417     1.0  0.92399  0.40195  0.81087  1.0000
  H   H2888     1.0  0.92812  0.36514  0.84299  1.0000
  H   H2889     1.0  0.89908  0.38094  0.85619  1.0000
  H   H2890     1.0  0.90186  0.42370  0.81154  1.0000
  N   N158      1.0  0.90197  0.36433  0.79040  1.0000
  C   C2418     1.0  0.90656  0.34809  0.78392  1.0000
  C   C2419     1.0  0.89685  0.37914  0.77609  1.0000
  C   C2420     1.0  0.91789  0.36618  0.79429  1.0000
  C   C2421     1.0  0.88768  0.36452  0.80610  1.0000
  C   C2422     1.0  0.88230  0.37888  0.81423  1.0000
  C   C2423     1.0  0.87853  0.35089  0.81356  1.0000
  C   C2424     1.0  0.86863  0.37956  0.82884  1.0000
  C   C2425     1.0  0.86490  0.35171  0.82822  1.0000
  C   C2426     1.0  0.85996  0.36601  0.83584  1.0000
  H   H2891     1.0  0.89548  0.34631  0.77977  1.0000
  H   H2892     1.0  0.91746  0.34834  0.77224  1.0000
  H   H2893     1.0  0.91091  0.33646  0.79397  1.0000
  H   H2894     1.0  0.88470  0.37849  0.77300  1.0000
  H   H2895     1.0  0.90716  0.37927  0.76393  1.0000
  H   H2896     1.0  0.89457  0.39195  0.77940  1.0000
  H   H2897     1.0  0.92936  0.36453  0.78333  1.0000
  H   H2898     1.0  0.91646  0.37927  0.79647  1.0000
  H   H2899     1.0  0.92126  0.35646  0.80616  1.0000
  H   H2900     1.0  0.88861  0.38974  0.80937  1.0000
  H   H2901     1.0  0.88162  0.33943  0.80835  1.0000
  H   H2902     1.0  0.67169  0.42513  0.83946  1.0000
  H   H2903     1.0  0.85806  0.34121  0.83377  1.0000
  H   H2904     1.0  0.84938  0.36659  0.84720  1.0000
  S   S659      1.0  0.95156  0.37349  0.81038  1.0000
  H   H2905     1.0  0.90677  0.43239  0.84310  1.0000
  C   C2427     1.0  0.83953  0.47938  0.86944  1.0000
  H   H2906     1.0  0.93289  0.43490  0.81943  1.0000
  H   H2907     1.0  0.79982  0.32002  0.92922  1.0000
  S   S660      1.0  0.88306  0.45805  0.97615  1.0000
  C   C2428     1.0  0.87321  0.37114  0.97825  1.0000
  C   C2429     1.0  0.83451  0.45554  0.92796  1.0000
  H   H2908     1.0  0.66828  0.28228  0.90899  1.0000
  C   C2430     1.0  0.69933  0.32903  0.93225  1.0000
  H   H2909     1.0  0.68357  0.39610  0.82104  1.0000
  C   C2431     1.0  0.81894  0.40704  0.97273  1.0000
  H   H2910     1.0  0.98163  0.48132  0.75230  1.0000
  H   H2911     1.0  0.72338  0.37636  0.96923  1.0000
  C   C2432     1.0  0.77293  0.47451  0.87909  1.0000
  H   H2912     1.0  0.86477  0.39067  0.83481  1.0000
  C   C2433     1.0  0.96624  0.43793  0.76725  1.0000
  H   H2913     1.0  0.67842  0.21020  0.96313  1.0000
  N   N159      1.0  0.86402  0.46174  0.92277  1.0000
  H   H2914     1.0  0.67871  0.28045  0.92611  1.0000
  H   H2915     1.0  0.68447  0.45410  0.91462  1.0000
  C   C2434     1.0  0.79021  0.45573  0.86009  1.0000
  H   H2916     1.0  0.70240  0.34614  0.90688  1.0000
  H   H2917     1.0  0.78806  0.44372  0.87016  1.0000
  H   H2918     1.0  0.71975  0.41610  0.93628  1.0000
  H   H2919     1.0  0.83284  0.40091  0.97276  1.0000
  H   H2920     1.0  0.71158  0.42821  0.91717  1.0000
  C   C2435     1.0  0.72687  0.47541  0.86365  1.0000
  H   H2921     1.0  0.79159  0.41627  0.95808  1.0000
  H   H2922     1.0  0.68302  0.47642  0.96803  1.0000
  C   C2436     1.0  0.78789  0.36413  0.92166  1.0000
  H   H2923     1.0  0.73348  0.46454  0.90855  1.0000
  C   C2437     1.0  0.97640  0.46099  0.74411  1.0000
  H   H2924     1.0  0.73264  0.43030  0.89297  1.0000
  H   H2925     1.0  0.66117  0.18938  0.97348  1.0000
  H   H2926     1.0  0.76995  0.44242  0.85165  1.0000
  C   C2438     1.0  0.74237  0.47855  0.86473  1.0000
  C   C2439     1.0  0.67647  0.40897  0.81450  1.0000
  C   C2440     1.0  0.77512  0.41228  0.89282  1.0000
  C   C2441     1.0  0.86087  0.47682  0.90801  1.0000
  H   H2927     1.0  0.78639  0.34423  0.96874  1.0000
  Fe  Fe329     1.0  0.96984  0.40667  0.74728  1.0000
  S   S661      1.0  0.71017  0.41198  0.97843  1.0000
  C   C2442     1.0  0.91281  0.47835  0.81433  1.0000
  H   H2928     1.0  0.74280  0.43772  0.84968  1.0000
  H   H2929     1.0  0.71978  0.44810  0.94789  1.0000
  H   H2930     1.0  0.86426  0.39411  0.93854  1.0000
  H   H2931     1.0  0.71912  0.45635  0.90152  1.0000
  H   H2932     1.0  0.93089  0.40785  0.79827  1.0000
  H   H2933     1.0  0.85163  0.46247  0.95840  1.0000
  C   C2443     1.0  0.69200  0.31534  0.94313  1.0000
  C   C2444     1.0  0.66982  0.35886  0.85745  1.0000
  H   H2934     1.0  0.76354  0.42703  0.92975  1.0000
  H   H2935     1.0  0.78553  0.33384  0.91513  1.0000
  H   H2936     1.0  0.82325  0.45895  0.97613  1.0000
  H   H2937     1.0  0.83974  0.33874  0.96815  1.0000
  C   C2445     1.0  0.86756  0.38304  0.94891  1.0000
  S   S662      1.0  0.94566  0.39704  0.76166  1.0000
  H   H2938     1.0  0.69401  0.31039  0.95640  1.0000
  C   C2446     1.0  0.67865  0.31457  0.91998  1.0000
  H   H2939     1.0  0.95935  0.42739  0.83613  1.0000
  C   C2447     1.0  0.66030  0.24645  0.93807  1.0000
  H   H2940     1.0  0.66195  0.07460  0.75393  1.0000
  C   C2448     1.0  0.90862  0.44510  0.83531  1.0000
  C   C2449     1.0  0.76169  0.42485  0.91806  1.0000
  C   C2450     1.0  0.74459  0.42642  0.89761  1.0000
  C   C2451     1.0  0.92557  0.46293  0.81187  1.0000
  C   C2452     1.0  0.66652  0.34463  0.85359  1.0000
  H   H2941     1.0  0.81751  0.39992  0.94302  1.0000
  H   H2942     1.0  0.86627  0.39856  0.96676  1.0000
  H   H2943     1.0  0.73665  0.42881  0.94865  1.0000
  C   C2453     1.0  0.82970  0.34024  0.96122  1.0000
  C   C2454     1.0  0.81244  0.34133  0.97006  1.0000
  C   C2455     1.0  0.66202  0.22261  0.84447  1.0000
  H   H2944     1.0  0.87888  0.33877  0.95757  1.0000
  S   S663      1.0  0.97351  0.47229  0.78990  1.0000
  C   C2456     1.0  0.80360  0.34406  0.94286  1.0000
  C   C2457     1.0  0.87584  0.35186  0.95961  1.0000
  C   C2458     1.0  0.87314  0.44596  0.91576  1.0000
  N   N160      1.0  0.72938  0.43936  0.92371  1.0000
  C   C2459     1.0  0.71548  0.42949  0.92863  1.0000
  C   C2460     1.0  0.73206  0.44161  0.94009  1.0000
  C   C2461     1.0  0.72320  0.45691  0.91319  1.0000
  C   C2462     1.0  0.74525  0.43016  0.91327  1.0000
  C   C2463     1.0  0.67632  0.28858  0.91322  1.0000
  C   C2464     1.0  0.66817  0.35549  0.96126  1.0000
  C   C2465     1.0  0.87130  0.36612  0.94626  1.0000
  C   C2466     1.0  0.87671  0.35434  0.97552  1.0000
  H   H2945     1.0  0.87929  0.45419  0.94251  1.0000
  C   C2467     1.0  0.83408  0.34119  0.94335  1.0000
  H   H2946     1.0  0.78647  0.40530  0.88512  1.0000
  C   C2468     1.0  0.68641  0.32851  0.90918  1.0000
  C   C2469     1.0  0.98243  0.39884  0.81074  1.0000
  C   C2470     1.0  0.68203  0.30801  0.93704  1.0000
  N   N161      1.0  0.77485  0.47046  0.86199  1.0000
  C   C2471     1.0  0.81821  0.45374  0.93840  1.0000
  H   H2947     1.0  0.84752  0.34036  0.93646  1.0000
  H   H2948     1.0  0.81104  0.37957  0.95307  1.0000
  H   H2949     1.0  0.76927  0.46366  0.89005  1.0000
  H   H2950     1.0  0.96309  0.44065  0.79336  1.0000
  C   C2472     1.0  0.72703  0.46064  0.85840  1.0000
  H   H2951     1.0  0.82534  0.34452  0.92026  1.0000
  H   H2952     1.0  0.78313  0.37416  0.92959  1.0000
  H   H2953     1.0  0.80020  0.36672  0.91271  1.0000
  H   H2954     1.0  0.80206  0.45869  0.86167  1.0000
  C   C2473     1.0  0.79950  0.34330  0.96109  1.0000
  H   H2955     1.0  0.81876  0.41865  0.96171  1.0000
  H   H2956     1.0  0.93743  0.46342  0.80213  1.0000
  H   H2957     1.0  0.83715  0.45422  0.91468  1.0000
  C   C2474     1.0  0.81776  0.38887  0.95467  1.0000
  S   S664      1.0  0.97188  0.35809  0.76804  1.0000
  H   H2958     1.0  0.86601  0.44352  0.90725  1.0000
  N   N162      1.0  0.79029  0.34632  0.93284  1.0000
  H   H2959     1.0  0.77410  0.33081  0.95291  1.0000
  C   C2475     1.0  0.82644  0.45814  0.96260  1.0000
  C   C2476     1.0  0.87588  0.46526  0.93154  1.0000
  C   C2477     1.0  0.66266  0.41637  0.84202  1.0000
  H   H2960     1.0  0.80714  0.33621  0.91066  1.0000
  C   C2478     1.0  0.82127  0.34329  0.93423  1.0000
  Fe  Fe330     1.0  0.73756  0.39651  0.97721  1.0000
  C   C2479     1.0  0.77310  0.34395  0.94401  1.0000
  Fe  Fe331     1.0  0.95761  0.37539  0.74743  1.0000
  C   C2480     1.0  0.97115  0.44517  0.74947  1.0000
  N   N163      1.0  0.66761  0.30688  0.91406  1.0000
  C   C2481     1.0  0.89626  0.46002  0.83862  1.0000
  C   C2482     1.0  0.97703  0.46940  0.75654  1.0000
  Fe  Fe332     1.0  0.96145  0.38051  0.78129  1.0000
  H   H2961     1.0  0.68914  0.28784  0.90393  1.0000
  H   H2962     1.0  0.76726  0.35392  0.95197  1.0000
  C   C2483     1.0  0.92330  0.44655  0.82199  1.0000
  H   H2963     1.0  0.71501  0.45834  0.85737  1.0000
  H   H2964     1.0  0.68482  0.33431  0.89593  1.0000
  S   S665      1.0  0.75417  0.38940  0.95263  1.0000
  C   C2484     1.0  0.96681  0.44637  0.77966  1.0000
  H   H2965     1.0  0.79360  0.45285  0.84692  1.0000
  H   H2966     1.0  0.80150  0.45382  0.96382  1.0000
  C   C2485     1.0  0.66395  0.31630  0.89663  1.0000
  C   C2486     1.0  0.66300  0.25285  0.83159  1.0000
  H   H2967     1.0  0.71468  0.48465  0.86658  1.0000
  H   H2968     1.0  0.66435  0.10084  0.75810  1.0000
  H   H2969     1.0  0.67285  0.23803  0.93950  1.0000
  H   H2970     1.0  0.78465  0.41049  0.98125  1.0000
  C   C2487     1.0  0.96998  0.42134  0.82698  1.0000
  H   H2971     1.0  0.66483  0.38278  0.81642  1.0000
  H   H2972     1.0  0.67474  0.23215  0.81803  1.0000
  C   C2488     1.0  0.77866  0.48573  0.84796  1.0000
  H   H2973     1.0  0.66620  0.19122  0.86946  1.0000
  H   H2974     1.0  0.66700  0.34168  0.96592  1.0000
  H   H2975     1.0  0.68516  0.41812  0.81170  1.0000
  H   H2976     1.0  0.98426  0.44044  0.82285  1.0000
  H   H2977     1.0  0.67428  0.35845  0.97032  1.0000
  H   H2978     1.0  0.98151  0.38730  0.80740  1.0000
  C   C2489     1.0  0.66749  0.23552  0.83030  1.0000
  H   H2979     1.0  0.65862  0.38957  0.96255  1.0000
  H   H2980     1.0  0.76316  0.48674  0.88086  1.0000
  H   H2981     1.0  0.66543  0.20960  0.84227  1.0000
  H   H2982     1.0  0.66861  0.40337  0.84926  1.0000
  C   C2490     1.0  0.82469  0.48335  0.88231  1.0000
  N   N164      1.0  0.65933  0.41491  0.82566  1.0000
  C   C2491     1.0  0.66102  0.07745  0.74047  1.0000
  H   H2983     1.0  0.66421  0.36821  0.92522  1.0000
  S   S666      1.0  0.98457  0.39228  0.76832  1.0000
  H   H2984     1.0  0.66802  0.21090  0.88704  1.0000
  H   H2985     1.0  0.66029  0.44155  0.81256  1.0000
  C   C2492     1.0  0.67825  0.48635  0.87876  1.0000
  C   C2493     1.0  0.88867  0.48531  0.98544  1.0000
  H   H2986     1.0  0.65903  0.37959  0.87115  1.0000
  H   H2987     1.0  0.80904  0.34066  0.98397  1.0000
  H   H2988     1.0  0.81321  0.41164  0.98510  1.0000
  C   C2494     1.0  0.84181  0.48447  0.98546  1.0000
  C   C2495     1.0  0.69097  0.59983  0.01127  1.0000
  H   H2989     1.0  0.66169  0.63889  0.00706  1.0000
  C   C2496     1.0  0.68264  0.52183  0.00067  1.0000
  Fe  Fe333     1.0  0.75932  0.53678  0.01688  1.0000
  S   S667      1.0  0.78450  0.52475  0.02567  1.0000
  H   H2990     1.0  0.93780  0.52202  0.16061  1.0000
  S   S668      1.0  0.99159  0.59078  0.09515  1.0000
  Fe  Fe334     1.0  0.85928  0.55868  0.02168  1.0000
  S   S669      1.0  0.86447  0.53907  0.00571  1.0000
  S   S670      1.0  0.83121  0.57232  0.02906  1.0000
  Fe  Fe335     1.0  0.89787  0.55524  0.01890  1.0000
  S   S671      1.0  0.90604  0.53576  0.00200  1.0000
  S   S672      1.0  0.91952  0.56336  0.02460  1.0000
  H   H2991     1.0  0.83597  0.56527  0.99345  1.0000
  N   N165      1.0  0.82455  0.49464  0.99257  1.0000
  Fe  Fe336     1.0  0.88476  0.52404  0.02097  1.0000
  S   S673      1.0  0.87866  0.57353  0.00319  1.0000
  S   S674      1.0  0.87781  0.54226  0.03891  1.0000
  Fe  Fe337     1.0  0.72570  0.56347  0.01252  1.0000
  H   H2992     1.0  0.76952  0.49300  0.04992  1.0000
  C   C2497     1.0  0.97415  0.49810  0.07539  1.0000
  H   H2993     1.0  0.95830  0.62089  0.07352  1.0000
  H   H2994     1.0  0.93337  0.59936  0.09498  1.0000
  H   H2995     1.0  0.96508  0.50473  0.02067  1.0000
  H   H2996     1.0  0.94213  0.52613  0.03498  1.0000
  C   C2498     1.0  0.68039  0.58921  0.01113  1.0000
  C   C2499     1.0  0.71595  0.48885  0.01871  1.0000
  C   C2500     1.0  0.66683  0.62508  0.00820  1.0000
  H   H2997     1.0  0.74385  0.48767  0.05451  1.0000
  H   H2998     1.0  0.89021  0.50723  0.99415  1.0000
  N   N166      1.0  0.93483  0.48692  0.12549  1.0000
  S   S675      1.0  0.73297  0.54094  0.03452  1.0000
  H   H2999     1.0  0.68999  0.61329  0.05220  1.0000
  C   C2501     1.0  0.82593  0.51276  0.99057  1.0000
  C   C2502     1.0  0.94032  0.51312  0.03678  1.0000
  H   H3000     1.0  0.95629  0.59277  0.09276  1.0000
  C   C2503     1.0  0.94546  0.59291  0.08696  1.0000
  H   H3001     1.0  0.68675  0.91822  0.23022  1.0000
  Fe  Fe338     1.0  0.95682  0.54697  0.10608  1.0000
  S   S676      1.0  0.98083  0.55228  0.08629  1.0000
  S   S677      1.0  0.93056  0.54817  0.10157  1.0000
  Fe  Fe339     1.0  0.97540  0.53585  0.13642  1.0000
  H   H3002     1.0  0.79836  0.57899  0.99156  1.0000
  S   S678      1.0  0.97427  0.52180  0.16437  1.0000
  Fe  Fe340     1.0  0.98472  0.56463  0.10575  1.0000
  H   H3003     1.0  0.68341  0.52607  0.01178  1.0000
  S   S679      1.0  0.71680  0.54766  0.99977  1.0000
  C   C2504     1.0  0.93891  0.50901  0.15910  1.0000
  S   S680      1.0  0.95948  0.56132  0.12454  1.0000
  S   S681      1.0  0.97052  0.52128  0.11967  1.0000
  H   H3004     1.0  0.66428  0.65372  0.02762  1.0000
  C   C2505     1.0  0.67093  0.79887  0.04072  1.0000
  H   H3005     1.0  0.94627  0.61375  0.03362  1.0000
  C   C2506     1.0  0.93535  0.60841  0.04169  1.0000
  Fe  Fe341     1.0  0.72669  0.52484  0.01996  1.0000
  H   H3006     1.0  0.72524  0.50698  0.99551  1.0000
  C   C2507     1.0  0.93556  0.50675  0.14411  1.0000
  H   H3007     1.0  0.68550  0.64352  0.03206  1.0000
  H   H3008     1.0  0.90744  0.48879  0.13558  1.0000
  H   H3009     1.0  0.68545  0.57532  0.01262  1.0000
  C   C2508     1.0  0.72144  0.49462  0.00071  1.0000
  H   H3010     1.0  0.66088  0.81994  0.09638  1.0000
  C   C2509     1.0  0.96942  0.53514  0.17917  1.0000
  C   C2510     1.0  0.96543  0.55330  0.17373  1.0000
  C   C2511     1.0  0.96233  0.56366  0.18576  1.0000
  C   C2512     1.0  0.96322  0.55587  0.20319  1.0000
  C   C2513     1.0  0.96672  0.53773  0.20865  1.0000
  C   C2514     1.0  0.96989  0.52738  0.19666  1.0000
  H   H3011     1.0  0.96490  0.55936  0.16027  1.0000
  H   H3012     1.0  0.67129  0.63386  0.07999  1.0000
  H   H3013     1.0  0.81314  0.52081  0.99569  1.0000
  H   H3014     1.0  0.97279  0.51334  0.20093  1.0000
  H   H3015     1.0  0.96926  0.60095  0.04577  1.0000
  H   H3016     1.0  0.68660  0.58494  0.05203  1.0000
  H   H3017     1.0  0.95088  0.62777  0.05349  1.0000
  C   C2515     1.0  0.67593  0.64171  0.06683  1.0000
  C   C2516     1.0  0.95319  0.50107  0.02862  1.0000
  C   C2517     1.0  0.94810  0.62030  0.06720  1.0000
  S   S682      1.0  0.75291  0.56054  0.99609  1.0000
  H   H3018     1.0  0.66518  0.97181  0.09207  1.0000
  C   C2518     1.0  0.68422  0.61781  0.00949  1.0000
  H   H3019     1.0  0.89903  0.60000  0.03653  1.0000
  S   S683      1.0  0.71487  0.50162  0.03314  1.0000
  C   C2519     1.0  0.92282  0.60777  0.03341  1.0000
  C   C2520     1.0  0.67777  0.50622  0.00321  1.0000
  C   C2521     1.0  0.88918  0.49380  0.99792  1.0000
  H   H3020     1.0  0.95959  0.57771  0.18148  1.0000
  C   C2522     1.0  0.90632  0.59519  0.06106  1.0000
  H   H3021     1.0  0.96487  0.58027  0.05817  1.0000
  S   S684      1.0  0.96118  0.56887  0.21767  1.0000
  C   C2523     1.0  0.96506  0.59345  0.05917  1.0000
  C   C2524     1.0  0.67698  0.61189  0.05354  1.0000
  H   H3022     1.0  0.97554  0.59189  0.06611  1.0000
  S   S685      1.0  0.71225  0.59110  0.01482  1.0000
  N   N167      1.0  0.94783  0.60206  0.06828  1.0000
  H   H3023     1.0  0.93535  0.62726  0.07381  1.0000
  C   C2525     1.0  0.66295  0.59650  0.00987  1.0000
  H   H3024     1.0  0.68969  0.63553  0.06200  1.0000
  H   H3025     1.0  0.91673  0.59004  0.08333  1.0000
  H   H3026     1.0  0.94502  0.57910  0.08864  1.0000
  H   H3027     1.0  0.96520  0.49003  0.22647  1.0000
  H   H3028     1.0  0.89526  0.58963  0.06845  1.0000
  H   H3029     1.0  0.94687  0.49654  0.18342  1.0000
  C   C2526     1.0  0.67268  0.65167  0.03696  1.0000
  H   H3030     1.0  0.69241  0.62608  0.00942  1.0000
  H   H3031     1.0  0.93129  0.50015  0.09932  1.0000
  H   H3032     1.0  0.91493  0.51806  0.05314  1.0000
  S   S686      1.0  0.75346  0.51923  0.00391  1.0000
  H   H3033     1.0  0.66803  0.71029  0.03001  1.0000
  H   H3034     1.0  0.66295  0.79980  0.07855  1.0000
  C   C2527     1.0  0.92503  0.50850  0.04708  1.0000
  C   C2528     1.0  0.92290  0.55743  0.04607  1.0000
  C   C2529     1.0  0.90970  0.55323  0.06043  1.0000
  C   C2530     1.0  0.91234  0.54995  0.07744  1.0000
  C   C2531     1.0  0.92827  0.55056  0.08016  1.0000
  C   C2532     1.0  0.94172  0.55397  0.06582  1.0000
  C   C2533     1.0  0.93896  0.55766  0.04883  1.0000
  H   H3035     1.0  0.89724  0.55316  0.05845  1.0000
  H   H3036     1.0  0.90187  0.54731  0.08848  1.0000
  H   H3037     1.0  0.95413  0.55408  0.06779  1.0000
  H   H3038     1.0  0.94924  0.56080  0.03776  1.0000
  C   C2534     1.0  0.79642  0.53818  0.02821  1.0000
  C   C2535     1.0  0.81299  0.53060  0.03177  1.0000
  C   C2536     1.0  0.82339  0.54100  0.03280  1.0000
  C   C2537     1.0  0.81729  0.55905  0.03027  1.0000
  C   C2538     1.0  0.80044  0.56660  0.02733  1.0000
  C   C2539     1.0  0.79003  0.55618  0.02614  1.0000
  H   H3039     1.0  0.81791  0.51666  0.03358  1.0000
  H   H3040     1.0  0.83616  0.53503  0.03559  1.0000
  H   H3041     1.0  0.79563  0.58056  0.02554  1.0000
  H   H3042     1.0  0.77715  0.56205  0.02359  1.0000
  C   C2540     1.0  0.91891  0.59549  0.06946  1.0000
  C   C2541     1.0  0.93400  0.60190  0.05994  1.0000
  C   C2542     1.0  0.90839  0.60109  0.04307  1.0000
  H   H3043     1.0  0.82117  0.55195  0.99631  1.0000
  H   H3044     1.0  0.94377  0.50918  0.10769  1.0000
  H   H3045     1.0  0.69294  0.94720  0.22475  1.0000
  C   C2543     1.0  0.98485  0.50579  0.08009  1.0000
  Fe  Fe342     1.0  0.88496  0.55277  0.98816  1.0000
  H   H3046     1.0  0.67469  0.66471  0.03635  1.0000
  H   H3047     1.0  0.96195  0.50584  0.07204  1.0000
  C   C2544     1.0  0.93246  0.50296  0.11145  1.0000
  H   H3048     1.0  0.66683  0.74123  0.02779  1.0000
  H   H3049     1.0  0.67483  0.49839  0.01632  1.0000
  C   C2545     1.0  0.93763  0.48984  0.14147  1.0000
  H   H3050     1.0  0.96685  0.53166  0.22215  1.0000
  H   H3051     1.0  0.93168  0.51849  0.13465  1.0000
  H   H3052     1.0  0.92445  0.61207  0.01937  1.0000
  H   H3053     1.0  0.83540  0.51325  0.99782  1.0000
  H   H3054     1.0  0.79558  0.55471  0.98702  1.0000
  H   H3055     1.0  0.92045  0.51272  0.11530  1.0000
  C   C2546     1.0  0.67758  0.50015  0.98893  1.0000
  C   C2547     1.0  0.67520  0.59553  0.05329  1.0000
  H   H3056     1.0  0.67166  0.78946  0.03288  1.0000
  H   H3057     1.0  0.67788  0.79150  0.05141  1.0000
  N   N168      1.0  0.66457  0.64345  0.05480  1.0000
  H   H3058     1.0  0.67828  0.80881  0.03222  1.0000
  H   H3059     1.0  0.91028  0.48920  0.05729  1.0000
  C   C2548     1.0  0.66242  0.62616  0.05469  1.0000
  H   H3060     1.0  0.99148  0.57331  0.14692  1.0000
  H   H3061     1.0  0.79633  0.49546  0.05518  1.0000
  C   C2549     1.0  0.94404  0.49464  0.17199  1.0000
  H   H3062     1.0  0.80784  0.49440  0.01802  1.0000
  C   C2550     1.0  0.79603  0.48880  0.99136  1.0000
  H   H3063     1.0  0.67630  0.65463  0.06841  1.0000
  S   S687      1.0  0.88759  0.49540  0.03138  1.0000
  H   H3064     1.0  0.67530  0.85662  0.23450  1.0000
  C   C2551     1.0  0.92257  0.49175  0.04939  1.0000
  H   H3065     1.0  0.67438  0.48761  0.99186  1.0000
  H   H3066     1.0  0.98084  0.51944  0.08027  1.0000
  H   H3067     1.0  0.81339  0.59207  0.98774  1.0000
  H   H3068     1.0  0.98121  0.48987  0.14721  1.0000
  C   C2552     1.0  0.65905  0.59302  0.05359  1.0000
  C   C2553     1.0  0.83045  0.55909  0.98634  1.0000
  H   H3069     1.0  0.72999  0.92537  0.29241  1.0000
  C   C2554     1.0  0.67225  0.98364  0.41127  1.0000
  H   H3070     1.0  0.78689  0.93629  0.44615  1.0000
  H   H3071     1.0  0.66295  0.95486  0.45008  1.0000
  H   H3072     1.0  0.70254  0.95531  0.24614  1.0000
  H   H3073     1.0  0.69736  0.96940  0.34739  1.0000
  H   H3074     1.0  0.67619  0.95530  0.36511  1.0000
  H   H3075     1.0  0.80239  0.96339  0.36850  1.0000
  Fe  Fe343     1.0  0.97262  0.55809  0.27744  1.0000
  S   S688      1.0  0.76830  0.97793  0.35475  1.0000
  S   S689      1.0  0.96310  0.57901  0.29315  1.0000
  C   C2555     1.0  0.66686  0.97614  0.40090  1.0000
  Fe  Fe344     1.0  0.97312  0.52260  0.27198  1.0000
  S   S690      1.0  0.95633  0.77430  0.48472  1.0000
  H   H3076     1.0  0.66527  0.88394  0.29002  1.0000
  S   S691      1.0  0.95401  0.54845  0.26867  1.0000
  C   C2556     1.0  0.99149  0.82705  0.47593  1.0000
  H   H3077     1.0  0.81919  0.95200  0.33359  1.0000
  H   H3078     1.0  0.92311  0.84677  0.33256  1.0000
  C   C2557     1.0  0.77674  0.89433  0.46358  1.0000
  H   H3079     1.0  0.88921  0.87169  0.42957  1.0000
  H   H3080     1.0  0.95363  0.54414  0.35225  1.0000
  C   C2558     1.0  0.97869  0.59047  0.47139  1.0000
  S   S692      1.0  0.98112  0.63199  0.35980  1.0000
  H   H3081     1.0  0.70011  0.96235  0.27194  1.0000
  H   H3082     1.0  0.81112  0.97882  0.39334  1.0000
  C   C2559     1.0  0.77075  0.95576  0.33445  1.0000
  C   C2560     1.0  0.78181  0.93470  0.43592  1.0000
  S   S693      1.0  0.95006  0.79880  0.37097  1.0000
  N   N169      1.0  0.76122  0.92759  0.39577  1.0000
  C   C2561     1.0  0.98792  0.78009  0.46572  1.0000
  H   H3083     1.0  0.92794  0.84596  0.47337  1.0000
  Fe  Fe345     1.0  0.71755  0.89323  0.33809  1.0000
  S   S694      1.0  0.70523  0.92109  0.33923  1.0000
  S   S695      1.0  0.70935  0.87988  0.32188  1.0000
  Fe  Fe346     1.0  0.74654  0.89224  0.35562  1.0000
  S   S696      1.0  0.73685  0.92015  0.35692  1.0000
  S   S697      1.0  0.76888  0.87787  0.36883  1.0000
  Fe  Fe347     1.0  0.71073  0.91373  0.36613  1.0000
  S   S698      1.0  0.69489  0.92563  0.38879  1.0000
  Fe  Fe348     1.0  0.73252  0.92454  0.33015  1.0000
  S   S699      1.0  0.73884  0.94754  0.30952  1.0000
  S   S700      1.0  0.72047  0.88523  0.36611  1.0000
  S   S701      1.0  0.74491  0.89721  0.32763  1.0000
  S   S702      1.0  0.72467  0.89036  0.45714  1.0000
  C   C2562     1.0  0.96692  0.84540  0.32208  1.0000
  Fe  Fe349     1.0  0.88798  0.89061  0.37280  1.0000
  S   S703      1.0  0.86643  0.87702  0.37688  1.0000
  S   S704      1.0  0.91694  0.87952  0.36590  1.0000
  Fe  Fe350     1.0  0.86303  0.92318  0.38402  1.0000
  S   S705      1.0  0.83978  0.91207  0.38890  1.0000
  C   C2563     1.0  0.77356  0.88084  0.44231  1.0000
  Fe  Fe351     1.0  0.85595  0.88729  0.40131  1.0000
  S   S706      1.0  0.84708  0.87377  0.42888  1.0000
  Fe  Fe352     1.0  0.85227  0.90339  0.36404  1.0000
  S   S707      1.0  0.83475  0.91094  0.34494  1.0000
  S   S708      1.0  0.87840  0.89893  0.39821  1.0000
  S   S709      1.0  0.87467  0.91638  0.35797  1.0000
  C   C2564     1.0  0.85286  0.90925  0.45978  1.0000
  C   C2565     1.0  0.85814  0.89115  0.46518  1.0000
  C   C2566     1.0  0.85614  0.88019  0.45585  1.0000
  C   C2567     1.0  0.84934  0.88733  0.44082  1.0000
  C   C2568     1.0  0.84472  0.90545  0.43506  1.0000
  C   C2569     1.0  0.84630  0.91640  0.44461  1.0000
  H   H3084     1.0  0.86399  0.88556  0.47641  1.0000
  H   H3085     1.0  0.86004  0.86620  0.46014  1.0000
  H   H3086     1.0  0.83952  0.91110  0.42346  1.0000
  H   H3087     1.0  0.84238  0.93038  0.44024  1.0000
  C   C2570     1.0  0.70387  0.91623  0.40743  1.0000
  C   C2571     1.0  0.71404  0.89926  0.40968  1.0000
  C   C2572     1.0  0.72037  0.89147  0.42500  1.0000
  C   C2573     1.0  0.71680  0.90070  0.43802  1.0000
  C   C2574     1.0  0.70709  0.91789  0.43560  1.0000
  C   C2575     1.0  0.70063  0.92562  0.42030  1.0000
  H   H3088     1.0  0.71668  0.89193  0.39984  1.0000
  H   H3089     1.0  0.72797  0.87821  0.42677  1.0000
  H   H3090     1.0  0.70444  0.92515  0.44554  1.0000
  H   H3091     1.0  0.69330  0.93893  0.41832  1.0000
  C   C2576     1.0  0.78631  0.88827  0.36312  1.0000
  C   C2577     1.0  0.79964  0.88170  0.37246  1.0000
  C   C2578     1.0  0.81434  0.88894  0.36727  1.0000
  C   C2579     1.0  0.81590  0.90255  0.35249  1.0000
  C   C2580     1.0  0.80241  0.90933  0.34336  1.0000
  C   C2581     1.0  0.78753  0.90236  0.34880  1.0000
  H   H3092     1.0  0.79874  0.87080  0.38357  1.0000
  H   H3093     1.0  0.82470  0.88367  0.37438  1.0000
  H   H3094     1.0  0.80355  0.91991  0.33196  1.0000
  H   H3095     1.0  0.77725  0.90757  0.34159  1.0000
  C   C2582     1.0  0.94063  0.82093  0.37154  1.0000
  C   C2583     1.0  0.95074  0.83244  0.37058  1.0000
  C   C2584     1.0  0.94325  0.85032  0.36917  1.0000
  C   C2585     1.0  0.92548  0.85679  0.36922  1.0000
  C   C2586     1.0  0.91516  0.84517  0.37107  1.0000
  C   C2587     1.0  0.92277  0.82733  0.37202  1.0000
  C   C2588     1.0  0.93428  0.62066  0.45778  1.0000
  H   H3096     1.0  0.95129  0.85922  0.36784  1.0000
  H   H3097     1.0  0.90145  0.84999  0.37114  1.0000
  H   H3098     1.0  0.91482  0.81851  0.37286  1.0000
  H   H3099     1.0  0.99129  0.77865  0.47793  1.0000
  H   H3100     1.0  0.77567  0.85867  0.30697  1.0000
  H   H3101     1.0  0.84448  0.94201  0.34536  1.0000
  C   C2589     1.0  0.71212  0.95220  0.27407  1.0000
  S   S710      1.0  0.72253  0.93443  0.47029  1.0000
  H   H3102     1.0  0.77169  0.93739  0.31973  1.0000
  H   H3103     1.0  0.95394  0.78160  0.44879  1.0000
  C   C2590     1.0  0.76529  0.94409  0.43351  1.0000
  H   H3104     1.0  0.77497  0.84164  0.36255  1.0000
  C   C2591     1.0  0.72506  0.92187  0.28275  1.0000
  C   C2592     1.0  0.88722  0.93272  0.42681  1.0000
  C   C2593     1.0  0.89613  0.95980  0.41717  1.0000
  H   H3105     1.0  0.92699  0.80170  0.46864  1.0000
  H   H3106     1.0  0.72970  0.84793  0.34362  1.0000
  H   H3107     1.0  0.97354  0.63446  0.42281  1.0000
  C   C2594     1.0  0.70346  0.93006  0.26498  1.0000
  C   C2595     1.0  0.69428  0.90914  0.25504  1.0000
  H   H3108     1.0  0.95066  0.82599  0.33141  1.0000
  C   C2596     1.0  0.96542  0.49311  0.25171  1.0000
  S   S711      1.0  0.98883  0.52761  0.24469  1.0000
  H   H3109     1.0  0.70181  0.90366  0.27924  1.0000
  C   C2597     1.0  0.76960  0.85410  0.32038  1.0000
  C   C2598     1.0  0.97586  0.58143  0.30610  1.0000
  Fe  Fe353     1.0  0.97098  0.55407  0.24204  1.0000
  C   C2599     1.0  0.82453  0.98427  0.34902  1.0000
  N   N170      1.0  0.67717  0.98356  0.44073  1.0000
  C   C2600     1.0  0.98077  0.59866  0.32351  1.0000
  C   C2601     1.0  0.97097  0.59637  0.31301  1.0000
  H   H3110     1.0  0.69284  0.91970  0.30031  1.0000
  H   H3111     1.0  0.96744  0.63994  0.45264  1.0000
  H   H3112     1.0  0.97702  0.61030  0.32858  1.0000
  H   H3113     1.0  0.95956  0.60623  0.31018  1.0000
  H   H3114     1.0  0.78324  0.94932  0.33778  1.0000
  C   C2602     1.0  0.76080  0.97042  0.34084  1.0000
  H   H3115     1.0  0.97562  0.82581  0.44229  1.0000
  C   C2603     1.0  0.67596  0.85469  0.24801  1.0000
  N   N171      1.0  0.67921  0.97562  0.33058  1.0000
  H   H3116     1.0  0.75560  0.90337  0.45016  1.0000
  C   C2604     1.0  0.98469  0.71767  0.46829  1.0000
  H   H3117     1.0  0.93442  0.81759  0.44086  1.0000
  C   C2605     1.0  0.92450  0.82945  0.43916  1.0000
  C   C2606     1.0  0.69326  0.97110  0.31568  1.0000
  H   H3118     1.0  0.97220  0.59377  0.36061  1.0000
  H   H3119     1.0  0.85180  0.96122  0.33294  1.0000
  C   C2607     1.0  0.67406  0.89422  0.32991  1.0000
  C   C2608     1.0  0.68785  0.88582  0.31863  1.0000
  C   C2609     1.0  0.68453  0.88188  0.30441  1.0000
  Fe  Fe354     1.0  0.71984  0.90680  0.47651  1.0000
  H   H3120     1.0  0.79636  0.91088  0.47332  1.0000
  H   H3121     1.0  0.67644  0.89721  0.34098  1.0000
  H   H3122     1.0  0.69514  0.87532  0.29569  1.0000
  H   H3123     1.0  0.88769  0.97424  0.44689  1.0000
  H   H3124     1.0  0.82687  0.86838  0.46853  1.0000
  C   C2610     1.0  0.87694  0.96616  0.36643  1.0000
  C   C2611     1.0  0.95928  0.63354  0.44943  1.0000
  H   H3125     1.0  0.92326  0.61683  0.46747  1.0000
  H   H3126     1.0  0.71647  0.95495  0.28456  1.0000
  H   H3127     1.0  0.72316  0.90837  0.28860  1.0000
  C   C2612     1.0  0.74421  0.93949  0.39347  1.0000
  C   C2613     1.0  0.88291  0.98146  0.35741  1.0000
  C   C2614     1.0  0.80493  0.84610  0.34548  1.0000
  H   H3128     1.0  0.74563  0.94984  0.41940  1.0000
  C   C2615     1.0  0.77875  0.84986  0.33398  1.0000
  H   H3129     1.0  0.96438  0.82766  0.37055  1.0000
  N   N172      1.0  0.79692  0.85184  0.32998  1.0000
  C   C2616     1.0  0.96684  0.78209  0.44921  1.0000
  H   H3130     1.0  0.79805  0.85414  0.35526  1.0000
  H   H3131     1.0  0.89220  0.98173  0.34511  1.0000
  H   H3132     1.0  0.78606  0.92052  0.37842  1.0000
  C   C2617     1.0  0.69503  0.93311  0.29488  1.0000
  H   H3133     1.0  0.89493  0.81369  0.47422  1.0000
  H   H3134     1.0  0.80440  0.91572  0.42736  1.0000
  C   C2618     1.0  0.95186  0.62240  0.42841  1.0000
  H   H3135     1.0  0.80408  0.84603  0.30436  1.0000
  C   C2619     1.0  0.97918  0.78539  0.43367  1.0000
  C   C2620     1.0  0.76936  0.84462  0.35127  1.0000
  H   H3136     1.0  0.73387  0.93737  0.40543  1.0000
  C   C2621     1.0  0.78484  0.92089  0.41241  1.0000
  H   H3137     1.0  0.80728  0.82746  0.32207  1.0000
  H   H3138     1.0  0.79278  0.91150  0.40481  1.0000
  H   H3139     1.0  0.80497  0.83219  0.35190  1.0000
  C   C2622     1.0  0.97130  0.77929  0.46526  1.0000
  C   C2623     1.0  0.70018  0.91338  0.26745  1.0000
  H   H3140     1.0  0.89262  0.96129  0.40449  1.0000
  C   C2624     1.0  0.77360  0.93041  0.37872  1.0000
  H   H3141     1.0  0.68781  0.95832  0.45579  1.0000
  C   C2625     1.0  0.79726  0.87047  0.32243  1.0000
  H   H3142     1.0  0.80384  0.97171  0.33665  1.0000
  C   C2626     1.0  0.74811  0.95739  0.31988  1.0000
  H   H3143     1.0  0.94861  0.88932  0.31521  1.0000
  C   C2627     1.0  0.89760  0.82240  0.48093  1.0000
  S   S712      1.0  0.96651  0.49627  0.28403  1.0000
  H   H3144     1.0  0.86508  0.97221  0.43508  1.0000
  H   H3145     1.0  0.70217  0.85720  0.27238  1.0000
  C   C2628     1.0  0.67740  0.85002  0.28274  1.0000
  C   C2629     1.0  0.96270  0.63044  0.43257  1.0000
  C   C2630     1.0  0.78913  0.86878  0.44413  1.0000
  H   H3146     1.0  0.94144  0.81521  0.46751  1.0000
  H   H3147     1.0  0.81056  0.85969  0.45640  1.0000
  H   H3148     1.0  0.73949  0.93741  0.38287  1.0000
  H   H3149     1.0  0.91023  0.95364  0.41589  1.0000
  C   C2631     1.0  0.94053  0.56710  0.33657  1.0000
  C   C2632     1.0  0.79848  0.86927  0.45586  1.0000
  C   C2633     1.0  0.90068  0.92807  0.47490  1.0000
  H   H3150     1.0  0.79367  0.87521  0.30948  1.0000
  C   C2634     1.0  0.68709  0.98039  0.34239  1.0000
  N   N173      1.0  0.94526  0.59430  0.37255  1.0000
  C   C2635     1.0  0.93960  0.61358  0.36750  1.0000
  C   C2636     1.0  0.93485  0.58837  0.39012  1.0000
  C   C2637     1.0  0.96376  0.59024  0.37367  1.0000
  C   C2638     1.0  0.94325  0.58519  0.36022  1.0000
  C   C2639     1.0  0.94829  0.55804  0.35065  1.0000
  C   C2640     1.0  0.93505  0.59399  0.34591  1.0000
  C   C2641     1.0  0.67014  0.95190  0.35676  1.0000
  C   C2642     1.0  0.93377  0.58497  0.33431  1.0000
  N   N174      1.0  0.80163  0.88276  0.47905  1.0000
  H   H3151     1.0  0.92547  0.61781  0.36756  1.0000
  H   H3152     1.0  0.94175  0.62003  0.37680  1.0000
  H   H3153     1.0  0.94707  0.61890  0.35440  1.0000
  H   H3154     1.0  0.92086  0.59092  0.38982  1.0000
  H   H3155     1.0  0.93584  0.59521  0.39969  1.0000
  H   H3156     1.0  0.93925  0.57419  0.39543  1.0000
  H   H3157     1.0  0.97953  0.69343  0.46706  1.0000
  H   H3158     1.0  0.96569  0.59750  0.38229  1.0000
  H   H3159     1.0  0.96881  0.57628  0.37919  1.0000
  H   H3160     1.0  0.68815  0.96925  0.30524  1.0000
  H   H3161     1.0  0.92987  0.60787  0.34311  1.0000
  C   C2643     1.0  0.85844  0.98107  0.38883  1.0000
  H   H3162     1.0  0.92812  0.59194  0.32306  1.0000
  H   H3163     1.0  0.72578  0.97855  0.32287  1.0000
  H   H3164     1.0  0.86191  0.95955  0.42215  1.0000
  H   H3165     1.0  0.82221  0.95669  0.37652  1.0000
  H   H3166     1.0  0.75764  0.95296  0.44189  1.0000
  C   C2644     1.0  0.76753  0.89374  0.45183  1.0000
  C   C2645     1.0  0.69535  0.93764  0.23656  1.0000
  C   C2646     1.0  0.81795  0.96560  0.33457  1.0000
  C   C2647     1.0  0.91027  0.85288  0.41855  1.0000
  H   H3167     1.0  0.97162  0.59726  0.46120  1.0000
  C   C2648     1.0  0.75219  0.85315  0.32387  1.0000
  H   H3168     1.0  0.81865  0.84749  0.34204  1.0000
  H   H3169     1.0  0.98188  0.70065  0.43560  1.0000
  H   H3170     1.0  0.94007  0.56035  0.32712  1.0000
  C   C2649     1.0  0.75191  0.84386  0.35461  1.0000
  C   C2650     1.0  0.73836  0.97227  0.32595  1.0000
  C   C2651     1.0  0.84399  0.95561  0.34568  1.0000
  H   H3171     1.0  0.97558  0.78799  0.42130  1.0000
  H   H3172     1.0  0.82185  0.84209  0.31444  1.0000
  C   C2652     1.0  0.69187  0.92126  0.23961  1.0000
  Fe  Fe355     1.0  0.98045  0.62114  0.38848  1.0000
  H   H3173     1.0  0.72937  0.98280  0.46595  1.0000
  H   H3174     1.0  0.66006  0.81517  0.29729  1.0000
  H   H3175     1.0  0.75312  0.90701  0.39063  1.0000
  H   H3176     1.0  0.85878  0.95183  0.44517  1.0000
  C   C2653     1.0  0.69023  0.85751  0.25197  1.0000
  C   C2654     1.0  0.76428  0.94908  0.32418  1.0000
  C   C2655     1.0  0.80796  0.84142  0.31716  1.0000
  H   H3177     1.0  0.90495  0.85108  0.48246  1.0000
  H   H3178     1.0  0.72256  0.95400  0.26216  1.0000
  H   H3179     1.0  0.81030  0.87306  0.32075  1.0000
  N   N175      1.0  0.70885  0.93437  0.27881  1.0000
  C   C2656     1.0  0.81642  0.95702  0.36558  1.0000
  C   C2657     1.0  0.92850  0.81215  0.47393  1.0000
  H   H3180     1.0  0.77156  0.90471  0.47052  1.0000
  C   C2658     1.0  0.97940  0.82768  0.46660  1.0000
  C   C2659     1.0  0.75889  0.90947  0.40030  1.0000
  C   C2660     1.0  0.90076  0.85200  0.44946  1.0000
  C   C2661     1.0  0.74462  0.97867  0.33659  1.0000
  H   H3181     1.0  0.85052  0.95466  0.35628  1.0000
  C   C2662     1.0  0.94512  0.62847  0.46210  1.0000
  H   H3182     1.0  0.78780  0.87877  0.33105  1.0000
  H   H3183     1.0  0.89657  0.97057  0.47401  1.0000
  H   H3184     1.0  0.77140  0.89970  0.40064  1.0000
  H   H3185     1.0  0.89550  0.91808  0.45620  1.0000
  H   H3186     1.0  0.74522  0.95335  0.38981  1.0000
  H   H3187     1.0  0.75008  0.90668  0.41329  1.0000
  H   H3188     1.0  0.76823  0.92967  0.36792  1.0000
  H   H3189     1.0  0.92914  0.61153  0.43795  1.0000
  C   C2663     1.0  0.98994  0.73749  0.43956  1.0000
  C   C2664     1.0  0.91656  0.84023  0.48074  1.0000
  C   C2665     1.0  0.98321  0.81470  0.32855  1.0000
  H   H3190     1.0  0.88313  0.93508  0.41427  1.0000
  H   H3191     1.0  0.67374  0.89488  0.46717  1.0000
  C   C2666     1.0  0.79159  0.92316  0.42535  1.0000
  H   H3192     1.0  0.81710  0.94326  0.36559  1.0000
  C   C2667     1.0  0.94940  0.87542  0.31827  1.0000
  C   C2668     1.0  0.89922  0.86001  0.43227  1.0000
  H   H3193     1.0  0.77666  0.94347  0.37543  1.0000
  H   H3194     1.0  0.67853  0.84847  0.29598  1.0000
  H   H3195     1.0  0.68246  0.94177  0.29237  1.0000
  H   H3196     1.0  0.79403  0.85898  0.43639  1.0000
  H   H3197     1.0  0.69116  0.89657  0.25757  1.0000
  H   H3198     1.0  0.88177  0.95457  0.36120  1.0000
  H   H3199     1.0  0.92164  0.87839  0.32512  1.0000
  C   C2669     1.0  0.94950  0.56687  0.36242  1.0000
  C   C2670     1.0  0.86707  0.95868  0.43364  1.0000
  N   N176      1.0  0.88555  0.94925  0.43182  1.0000
  N   N177      1.0  0.91415  0.82787  0.47187  1.0000
  H   H3200     1.0  0.73552  0.92159  0.27077  1.0000
  C   C2671     1.0  0.86444  0.96613  0.38202  1.0000
  C   C2672     1.0  0.74335  0.84812  0.34096  1.0000
  C   C2673     1.0  0.89114  0.94664  0.44831  1.0000
  H   H3201     1.0  0.74486  0.84037  0.36794  1.0000
  Fe  Fe356     1.0  0.97823  0.78692  0.37269  1.0000
  C   C2674     1.0  0.89584  0.92992  0.45923  1.0000
  H   H3202     1.0  0.69709  0.97543  0.45583  1.0000
  S   S713      1.0  0.85439  0.92297  0.47193  1.0000
  H   H3203     1.0  0.70269  0.95895  0.32003  1.0000
  C   C2675     1.0  0.89141  0.96119  0.45424  1.0000
  C   C2676     1.0  0.66006  0.96132  0.40820  1.0000
  C   C2677     1.0  0.89634  0.95920  0.46987  1.0000
  C   C2678     1.0  0.66764  0.88665  0.30122  1.0000
  C   C2679     1.0  0.66235  0.84952  0.26135  1.0000
  H   H3204     1.0  0.69828  0.93695  0.30534  1.0000
  H   H3205     1.0  0.96574  0.82941  0.47280  1.0000
  S   S714      1.0  0.85567  0.94796  0.39353  1.0000
  C   C2680     1.0  0.67100  0.97639  0.42944  1.0000
  H   H3206     1.0  0.88628  0.83367  0.48165  1.0000
  H   H3207     1.0  0.89178  0.85794  0.45966  1.0000
  C   C2681     1.0  0.75849  0.94206  0.42049  1.0000
  C   C2682     1.0  0.81715  0.86831  0.48102  1.0000
  H   H3208     1.0  0.95560  0.55923  0.37315  1.0000
  H   H3209     1.0  0.93134  0.83210  0.41120  1.0000
  C   C2683     1.0  0.96557  0.86369  0.31727  1.0000
  H   H3210     1.0  0.87871  0.92457  0.43661  1.0000
  N   N178      1.0  0.82583  0.96596  0.34872  1.0000
  S   S715      1.0  0.95555  0.61778  0.40776  1.0000
  C   C2684     1.0  0.76811  0.93036  0.40948  1.0000
  S   S716      1.0  0.99016  0.53158  0.28341  1.0000
  H   H3211     1.0  0.78110  0.97779  0.41019  1.0000
  H   H3212     1.0  0.66462  0.82599  0.31120  1.0000
  C   C2685     1.0  0.92290  0.83766  0.42198  1.0000
  H   H3213     1.0  0.74528  0.85687  0.31336  1.0000
  H   H3214     1.0  0.90896  0.85911  0.40524  1.0000
  C   C2686     1.0  0.67051  0.96088  0.33908  1.0000
  C   C2687     1.0  0.93417  0.86930  0.32371  1.0000
  C   C2688     1.0  0.93763  0.61763  0.44106  1.0000
  S   S717      1.0  0.98804  0.56570  0.25041  1.0000
  C   C2689     1.0  0.91339  0.83643  0.45347  1.0000
  C   C2690     1.0  0.69177  0.97044  0.44752  1.0000
  C   C2691     1.0  0.66250  0.84733  0.27918  1.0000
  H   H3215     1.0  0.81558  0.90077  0.46004  1.0000
  H   H3216     1.0  0.69735  0.87138  0.47634  1.0000
  H   H3217     1.0  0.96470  0.50694  0.24740  1.0000
  H   H3218     1.0  0.70063  0.98156  0.30939  1.0000
  H   H3219     1.0  0.85211  0.96647  0.47205  1.0000
  H   H3220     1.0  0.76613  0.88021  0.43351  1.0000
  C   C2692     1.0  0.79232  0.88191  0.46627  1.0000
  H   H3221     1.0  0.97700  0.86908  0.31304  1.0000
  H   H3222     1.0  0.70267  0.96676  0.43670  1.0000
  C   C2693     1.0  0.70089  0.94213  0.24907  1.0000
  H   H3223     1.0  0.84876  0.98118  0.40084  1.0000
  C   C2694     1.0  0.69101  0.85508  0.26931  1.0000
  S   S718      1.0  0.66205  0.97544  0.28147  1.0000
  H   H3224     1.0  0.89416  0.97325  0.41873  1.0000
  H   H3225     1.0  0.82428  0.97269  0.32172  1.0000
  C   C2695     1.0  0.80745  0.89938  0.47343  1.0000
  C   C2696     1.0  0.95110  0.83961  0.32723  1.0000
  H   H3226     1.0  0.97580  0.81236  0.34229  1.0000
  H   H3227     1.0  0.66187  0.96114  0.31608  1.0000
  H   H3228     1.0  0.90086  0.92500  0.42516  1.0000
  C   C2697     1.0  0.66393  0.96132  0.43647  1.0000
  C   C2698     1.0  0.93503  0.85147  0.32794  1.0000
  C   C2699     1.0  0.67282  0.88882  0.48093  1.0000
  H   H3229     1.0  0.97703  0.81030  0.32056  1.0000
  H   H3230     1.0  0.82388  0.96606  0.47334  1.0000
  H   H3231     1.0  0.66239  0.93084  0.37754  1.0000
  C   C2700     1.0  0.66220  0.93772  0.36413  1.0000
  H   H3232     1.0  0.98828  0.61799  0.27095  1.0000
  C   C2701     1.0  0.90095  0.94266  0.48020  1.0000
  C   C2702     1.0  0.65883  0.97454  0.24940  1.0000
  C   C2703     1.0  0.98380  0.70984  0.44176  1.0000
  H   H3233     1.0  0.85241  0.98341  0.34457  1.0000
  S   S719      1.0  0.94061  0.63114  0.48359  1.0000
  H   H3234     1.0  0.66815  0.98184  0.38705  1.0000
  C   C2704     1.0  0.98247  0.70584  0.45978  1.0000
  N   N179      1.0  0.98418  0.83328  0.32176  1.0000
  H   H3235     1.0  0.99030  0.74358  0.46282  1.0000
  H   H3236     1.0  0.98573  0.83765  0.34592  1.0000
  C   C2705     1.0  0.98498  0.82571  0.44945  1.0000
  S   S720      1.0  0.98526  0.76720  0.39652  1.0000
  H   H3237     1.0  0.98729  0.59726  0.43507  1.0000
  H   H3238     1.0  0.98768  0.83231  0.29503  1.0000
  C   C2706     1.0  0.99074  0.56885  0.30960  1.0000
  H   H3239     1.0  0.67710  0.98458  0.35361  1.0000
  H   H3240     1.0  0.81525  0.90032  0.48220  1.0000
  H   H3241     1.0  0.98825  0.72882  0.41772  1.0000
  C   C2707     1.0  0.98742  0.72569  0.43168  1.0000
  H   H3242     1.0  0.90411  0.91523  0.48310  1.0000
  C   C2708     1.0  0.66228  0.95490  0.32949  1.0000
  C   C2709     1.0  0.98854  0.73367  0.45759  1.0000
  H   H3243     1.0  0.70071  0.86156  0.24155  1.0000
  C   C2710     1.0  0.65887  0.96552  0.26669  1.0000
  H   H3244     1.0  0.70882  0.83503  0.53227  1.0000
  C   C2711     1.0  0.89649  0.94772  0.55488  1.0000
  H   H3245     1.0  0.95506  0.72497  0.49133  1.0000
  C   C2712     1.0  0.82938  0.96426  0.51417  1.0000
  C   C2713     1.0  0.67106  0.87390  0.51642  1.0000
  Fe  Fe357     1.0  0.97755  0.49793  0.63992  1.0000
  C   C2714     1.0  0.81557  0.95634  0.52490  1.0000
  H   H3246     1.0  0.68479  0.94565  0.54410  1.0000
  S   S721      1.0  0.96711  0.49170  0.66887  1.0000
  H   H3247     1.0  0.96173  0.70955  0.51004  1.0000
  Fe  Fe358     1.0  0.96070  0.78688  0.53931  1.0000
  C   C2715     1.0  0.68587  0.86735  0.50425  1.0000
  S   S722      1.0  0.94172  0.80744  0.55240  1.0000
  H   H3248     1.0  0.68277  0.90528  0.57788  1.0000
  S   S723      1.0  0.95203  0.67080  0.53955  1.0000
  S   S724      1.0  0.95479  0.76357  0.53479  1.0000
  H   H3249     1.0  0.95627  0.72517  0.54981  1.0000
  Fe  Fe359     1.0  0.71182  0.90351  0.51564  1.0000
  S   S725      1.0  0.71433  0.93057  0.51310  1.0000
  H   H3250     1.0  0.94821  0.57143  0.56185  1.0000
  H   H3251     1.0  0.92201  0.79324  0.53780  1.0000
  C   C2716     1.0  0.66636  0.97461  0.52122  1.0000
  H   H3252     1.0  0.95476  0.59129  0.49072  1.0000
  H   H3253     1.0  0.68668  0.92282  0.54834  1.0000
  H   H3254     1.0  0.78510  0.86978  0.50122  1.0000
  H   H3255     1.0  0.66262  0.94986  0.67940  1.0000
  H   H3256     1.0  0.66966  0.86905  0.53034  1.0000
  S   S726      1.0  0.98917  0.62368  0.48765  1.0000
  Fe  Fe360     1.0  0.86595  0.87031  0.51966  1.0000
  H   H3257     1.0  0.94964  0.62757  0.59740  1.0000
  C   C2717     1.0  0.99118  0.52102  0.68266  1.0000
  Fe  Fe361     1.0  0.86996  0.90067  0.53104  1.0000
  S   S727      1.0  0.84667  0.91895  0.52175  1.0000
  S   S728      1.0  0.88657  0.90620  0.54562  1.0000
  Fe  Fe362     1.0  0.83383  0.89634  0.53338  1.0000
  S   S729      1.0  0.80551  0.89931  0.54589  1.0000
  S   S730      1.0  0.95890  0.53934  0.58578  1.0000
  S   S731      1.0  0.85622  0.87884  0.54495  1.0000
  C   C2718     1.0  0.97699  0.57902  0.50233  1.0000
  C   C2719     1.0  0.88816  0.92770  0.54348  1.0000
  C   C2720     1.0  0.89478  0.93094  0.55597  1.0000
  C   C2721     1.0  0.67033  0.89920  0.54436  1.0000
  S   S732      1.0  0.98578  0.52237  0.62317  1.0000
  H   H3258     1.0  0.98970  0.68522  0.49174  1.0000
  C   C2722     1.0  0.88348  0.94136  0.52962  1.0000
  H   H3259     1.0  0.89851  0.92046  0.56664  1.0000
  C   C2723     1.0  0.67180  0.94829  0.57785  1.0000
  S   S733      1.0  0.87674  0.84241  0.51751  1.0000
  H   H3260     1.0  0.87841  0.93891  0.51990  1.0000
  C   C2724     1.0  0.96353  0.68466  0.54225  1.0000
  H   H3261     1.0  0.95382  0.50473  0.54374  1.0000
  C   C2725     1.0  0.77367  0.92532  0.50385  1.0000
  C   C2726     1.0  0.76635  0.91554  0.51981  1.0000
  C   C2727     1.0  0.77607  0.90785  0.53285  1.0000
  C   C2728     1.0  0.79310  0.90980  0.52992  1.0000
  C   C2729     1.0  0.80034  0.91968  0.51400  1.0000
  C   C2730     1.0  0.79057  0.92760  0.50109  1.0000
  H   H3262     1.0  0.75332  0.91368  0.52201  1.0000
  H   H3263     1.0  0.77062  0.90000  0.54507  1.0000
  H   H3264     1.0  0.81349  0.92119  0.51164  1.0000
  C   C2731     1.0  0.97450  0.50630  0.70913  1.0000
  C   C2732     1.0  0.92457  0.81729  0.54141  1.0000
  C   C2733     1.0  0.91781  0.83529  0.53904  1.0000
  C   C2734     1.0  0.90305  0.84306  0.53180  1.0000
  C   C2735     1.0  0.89508  0.83283  0.52680  1.0000
  H   H3265     1.0  0.67623  0.97894  0.68540  1.0000
  C   C2736     1.0  0.91692  0.80716  0.53590  1.0000
  H   H3266     1.0  0.92406  0.84322  0.54274  1.0000
  H   H3267     1.0  0.89783  0.85693  0.53014  1.0000
  H   H3268     1.0  0.67438  0.96066  0.56881  1.0000
  Fe  Fe363     1.0  0.96085  0.63640  0.49395  1.0000
  H   H3269     1.0  0.77831  0.89300  0.49658  1.0000
  H   H3270     1.0  0.71414  0.87166  0.51079  1.0000
  H   H3271     1.0  0.99024  0.51544  0.65881  1.0000
  H   H3272     1.0  0.85101  0.97392  0.51571  1.0000
  C   C2737     1.0  0.96337  0.71253  0.54735  1.0000
  C   C2738     1.0  0.98582  0.51284  0.67280  1.0000
  H   H3273     1.0  0.66263  0.91887  0.58524  1.0000
  C   C2739     1.0  0.78989  0.88203  0.49653  1.0000
  H   H3274     1.0  0.66018  0.98261  0.54555  1.0000
  C   C2740     1.0  0.94564  0.50803  0.55619  1.0000
  N   N180      1.0  0.68285  0.93283  0.57110  1.0000
  H   H3275     1.0  0.89585  0.80687  0.52517  1.0000
  H   H3276     1.0  0.68902  0.86288  0.57102  1.0000
  S   S734      1.0  0.70559  0.88502  0.54145  1.0000
  S   S735      1.0  0.67619  0.96008  0.49279  1.0000
  S   S736      1.0  0.84216  0.88566  0.50946  1.0000
  C   C2741     1.0  0.67894  0.87307  0.56571  1.0000
  N   N181      1.0  0.95091  0.49462  0.57140  1.0000
  H   H3277     1.0  0.66958  0.93630  0.72372  1.0000
  S   S737      1.0  0.96481  0.66299  0.49165  1.0000
  S   S738      1.0  0.69494  0.91082  0.49630  1.0000
  C   C2742     1.0  0.85025  0.96396  0.48644  1.0000
  C   C2743     1.0  0.83931  0.96125  0.54082  1.0000
  S   S739      1.0  0.73666  0.89711  0.49624  1.0000
  C   C2744     1.0  0.96215  0.56899  0.56034  1.0000
  C   C2745     1.0  0.70168  0.93093  0.56951  1.0000
  H   H3278     1.0  0.88231  0.96861  0.51749  1.0000
  C   C2746     1.0  0.70867  0.94425  0.57114  1.0000
  C   C2747     1.0  0.73166  0.91427  0.56215  1.0000
  C   C2748     1.0  0.72663  0.94255  0.56819  1.0000
  C   C2749     1.0  0.73811  0.92760  0.56371  1.0000
  Fe  Fe364     1.0  0.69917  0.93757  0.49213  1.0000
  H   H3279     1.0  0.85502  0.94971  0.49123  1.0000
  H   H3280     1.0  0.94151  0.51175  0.58944  1.0000
  H   H3281     1.0  0.79652  0.88285  0.50640  1.0000
  C   C2750     1.0  0.95447  0.70100  0.54566  1.0000
  C   C2751     1.0  0.97822  0.62199  0.55956  1.0000
  H   H3282     1.0  0.89786  0.81527  0.49464  1.0000
  H   H3283     1.0  0.82501  0.94825  0.56479  1.0000
  S   S740      1.0  0.96390  0.49497  0.62088  1.0000
  Fe  Fe365     1.0  0.85669  0.90695  0.49855  1.0000
  H   H3284     1.0  0.70060  0.95630  0.57429  1.0000
  H   H3285     1.0  0.79628  0.93513  0.48876  1.0000
  H   H3286     1.0  0.94807  0.61786  0.58094  1.0000
  H   H3287     1.0  0.75202  0.92644  0.56123  1.0000
  N   N182      1.0  0.89756  0.84904  0.58471  1.0000
  C   C2752     1.0  0.89692  0.86570  0.57138  1.0000
  C   C2753     1.0  0.88837  0.85296  0.60194  1.0000
  C   C2754     1.0  0.91611  0.84114  0.58539  1.0000
  C   C2755     1.0  0.88887  0.83765  0.58053  1.0000
  C   C2756     1.0  0.89693  0.82012  0.57934  1.0000
  C   C2757     1.0  0.87166  0.84396  0.57772  1.0000
  C   C2758     1.0  0.88856  0.81000  0.57469  1.0000
  C   C2759     1.0  0.86348  0.83379  0.57289  1.0000
  C   C2760     1.0  0.87198  0.81690  0.57123  1.0000
  H   H3288     1.0  0.88352  0.87379  0.57157  1.0000
  H   H3289     1.0  0.90442  0.87415  0.57328  1.0000
  H   H3290     1.0  0.90227  0.86341  0.55799  1.0000
  H   H3291     1.0  0.87464  0.86008  0.60203  1.0000
  H   H3292     1.0  0.89467  0.86131  0.60571  1.0000
  H   H3293     1.0  0.88821  0.84076  0.61229  1.0000
  H   H3294     1.0  0.92370  0.83753  0.57288  1.0000
  H   H3295     1.0  0.92252  0.85026  0.58777  1.0000
  H   H3296     1.0  0.91759  0.82925  0.59606  1.0000
  H   H3297     1.0  0.90997  0.81404  0.58130  1.0000
  H   H3298     1.0  0.86448  0.85695  0.57893  1.0000
  H   H3299     1.0  0.89527  0.79691  0.57318  1.0000
  H   H3300     1.0  0.85060  0.83917  0.57011  1.0000
  H   H3301     1.0  0.86580  0.80920  0.56705  1.0000
  H   H3302     1.0  0.96604  0.59126  0.58244  1.0000
  C   C2761     1.0  0.88559  0.95821  0.52831  1.0000
  C   C2762     1.0  0.68345  0.88603  0.55110  1.0000
  Fe  Fe366     1.0  0.97453  0.51786  0.60315  1.0000
  H   H3303     1.0  0.90146  0.95007  0.56475  1.0000
  H   H3304     1.0  0.94055  0.70490  0.54665  1.0000
  C   C2763     1.0  0.98054  0.60628  0.58896  1.0000
  H   H3305     1.0  0.68587  0.84018  0.53335  1.0000
  N   N183      1.0  0.83177  0.96980  0.49494  1.0000
  H   H3306     1.0  0.80574  0.95425  0.51975  1.0000
  H   H3307     1.0  0.97015  0.50366  0.72314  1.0000
  H   H3308     1.0  0.98723  0.82832  0.48938  1.0000
  H   H3309     1.0  0.96459  0.59245  0.54056  1.0000
  H   H3310     1.0  0.68027  0.91472  0.59600  1.0000
  C   C2764     1.0  0.89193  0.96145  0.54110  1.0000
  C   C2765     1.0  0.93947  0.49957  0.58759  1.0000
  S   S741      1.0  0.95854  0.62857  0.52299  1.0000
  C   C2766     1.0  0.96903  0.49819  0.69924  1.0000
  Fe  Fe367     1.0  0.96543  0.65394  0.52011  1.0000
  Fe  Fe368     1.0  0.96765  0.77313  0.50713  1.0000
  C   C2767     1.0  0.81413  0.95061  0.54293  1.0000
  C   C2768     1.0  0.90209  0.81489  0.52876  1.0000
  C   C2769     1.0  0.95399  0.62736  0.58331  1.0000
  H   H3311     1.0  0.84847  0.96325  0.54704  1.0000
  C   C2770     1.0  0.96888  0.49499  0.57143  1.0000
  S   S742      1.0  0.97138  0.79741  0.51122  1.0000
  C   C2771     1.0  0.82609  0.95287  0.55084  1.0000
  C   C2772     1.0  0.67012  0.98032  0.53411  1.0000
  H   H3312     1.0  0.96032  0.70199  0.49225  1.0000
  H   H3313     1.0  0.82392  0.86940  0.49062  1.0000
  H   H3314     1.0  0.96968  0.50795  0.57255  1.0000
  H   H3315     1.0  0.97595  0.63990  0.59284  1.0000
  H   H3316     1.0  0.96931  0.57669  0.51549  1.0000
  C   C2773     1.0  0.97141  0.58096  0.54831  1.0000
  C   C2774     1.0  0.70394  0.83899  0.50064  1.0000
  H   H3317     1.0  0.96039  0.48940  0.70572  1.0000
  C   C2775     1.0  0.71377  0.91591  0.56488  1.0000
  H   H3318     1.0  0.97323  0.63458  0.55096  1.0000
  H   H3319     1.0  0.92545  0.50217  0.58759  1.0000
  C   C2776     1.0  0.97082  0.55399  0.57053  1.0000
  H   H3320     1.0  0.80370  0.94426  0.55077  1.0000
  H   H3321     1.0  0.69631  0.85555  0.53619  1.0000
  S   S743      1.0  0.88141  0.89076  0.50649  1.0000
  H   H3322     1.0  0.90470  0.94114  0.49236  1.0000
  Fe  Fe369     1.0  0.98197  0.75021  0.53841  1.0000
  H   H3323     1.0  0.74055  0.90270  0.55849  1.0000
  C   C2777     1.0  0.97524  0.59098  0.58981  1.0000
  C   C2778     1.0  0.97449  0.50163  0.68104  1.0000
  C   C2779     1.0  0.69598  0.97355  0.50495  1.0000
  C   C2780     1.0  0.66581  0.94871  0.72735  1.0000
  H   H3324     1.0  0.73166  0.95307  0.56909  1.0000
  H   H3325     1.0  0.67367  0.90923  0.53302  1.0000
  C   C2781     1.0  0.65899  0.96447  0.71619  1.0000
  C   C2782     1.0  0.67978  0.93458  0.55363  1.0000
  H   H3326     1.0  0.71434  0.82784  0.50510  1.0000
  S   S744      1.0  0.89429  0.98228  0.54075  1.0000
  C   C2783     1.0  0.84083  0.96709  0.52279  1.0000
  H   H3327     1.0  0.70953  0.90547  0.56287  1.0000
  C   C2784     1.0  0.98541  0.51791  0.70083  1.0000
  C   C2785     1.0  0.96412  0.71241  0.49559  1.0000
  H   H3328     1.0  0.93187  0.50938  0.55588  1.0000
  H   H3329     1.0  0.67886  0.94548  0.69194  1.0000
  H   H3330     1.0  0.65905  0.93748  0.70105  1.0000
  H   H3331     1.0  0.69198  0.83405  0.50310  1.0000
  Fe  Fe370     1.0  0.73750  0.92510  0.49168  1.0000
  H   H3332     1.0  0.94697  0.52113  0.55641  1.0000
  H   H3333     1.0  0.67380  0.94794  0.59086  1.0000
  C   C2786     1.0  0.66462  0.94873  0.69266  1.0000
  C   C2787     1.0  0.67696  0.91725  0.58306  1.0000
  C   C2788     1.0  0.68683  0.98265  0.53237  1.0000
  H   H3334     1.0  0.72774  0.85065  0.50894  1.0000
  H   H3335     1.0  0.70620  0.97046  0.49395  1.0000
  C   C2789     1.0  0.69767  0.84571  0.52867  1.0000
  C   C2790     1.0  0.99030  0.69091  0.54360  1.0000
  C   C2791     1.0  0.67945  0.97083  0.50685  1.0000
  C   C2792     1.0  0.66144  0.87297  0.57332  1.0000
  C   C2793     1.0  0.98130  0.70749  0.54642  1.0000
  N   N184      1.0  0.97326  0.62317  0.57806  1.0000
  H   H3336     1.0  0.94820  0.64035  0.57572  1.0000
  N   N185      1.0  0.70061  0.85335  0.50961  1.0000
  H   H3337     1.0  0.82387  0.94814  0.49188  1.0000
  H   H3338     1.0  0.97750  0.73939  0.49149  1.0000
  C   C2794     1.0  0.98884  0.55092  0.56847  1.0000
  N   N186      1.0  0.98244  0.71338  0.48749  1.0000
  H   H3339     1.0  0.98858  0.66695  0.53886  1.0000
  H   H3340     1.0  0.94200  0.48913  0.59927  1.0000
  C   C2795     1.0  0.71639  0.86051  0.50467  1.0000
  C   C2796     1.0  0.69962  0.97954  0.51764  1.0000
  H   H3341     1.0  0.72031  0.86538  0.49035  1.0000
  H   H3342     1.0  0.85901  0.97083  0.48871  1.0000
  H   H3343     1.0  0.97331  0.65062  0.57116  1.0000
  H   H3344     1.0  0.71261  0.98089  0.51638  1.0000
  C   C2797     1.0  0.82112  0.96264  0.48785  1.0000
  H   H3345     1.0  0.80695  0.96790  0.49213  1.0000
  H   H3346     1.0  0.92890  0.80620  0.48793  1.0000
  H   H3347     1.0  0.91872  0.83374  0.49415  1.0000
  C   C2798     1.0  0.97939  0.63811  0.57923  1.0000
  C   C2799     1.0  0.96883  0.58709  0.48836  1.0000
  H   H3348     1.0  0.97813  0.49254  0.55914  1.0000
  H   H3349     1.0  0.97289  0.61205  0.55723  1.0000
  C   C2800     1.0  0.98943  0.57791  0.54631  1.0000
  C   C2801     1.0  0.66249  0.97954  0.68553  1.0000
  H   H3350     1.0  0.98497  0.72267  0.50872  1.0000
  C   C2802     1.0  0.98149  0.67961  0.54125  1.0000
  H   H3351     1.0  0.66182  0.97929  0.67220  1.0000
  C   C2803     1.0  0.98650  0.72643  0.49427  1.0000
  H   H3352     1.0  0.66572  0.93676  0.55379  1.0000
  C   C2804     1.0  0.98177  0.57491  0.60011  1.0000
  S   S745      1.0  0.98684  0.77271  0.54569  1.0000
  H   H3353     1.0  0.70839  0.84311  0.48628  1.0000
  H   H3354     1.0  0.97735  0.56345  0.60066  1.0000
  Fe  Fe371     1.0  0.98722  0.61782  0.51658  1.0000
  S   S746      1.0  0.76270  0.93332  0.48654  1.0000
  C   C2805     1.0  0.68630  0.87526  0.48634  1.0000
  H   H3355     1.0  0.81361  0.85541  0.48563  1.0000
  H   H3356     1.0  0.93048  0.51384  0.80114  1.0000
  C   C2806     1.0  0.73125  0.59718  0.96542  1.0000
  H   H3357     1.0  0.92305  0.53582  0.94783  1.0000
  C   C2807     1.0  0.75764  0.59879  0.90316  1.0000
  S   S747      1.0  0.92298  0.54718  0.77803  1.0000
  Fe  Fe372     1.0  0.68385  0.55126  0.86924  1.0000
  S   S748      1.0  0.70420  0.56057  0.87546  1.0000
  C   C2808     1.0  0.83544  0.58165  0.96087  1.0000
  Fe  Fe373     1.0  0.68906  0.51679  0.89530  1.0000
  S   S749      1.0  0.70936  0.52324  0.90425  1.0000
  Fe  Fe374     1.0  0.69204  0.54985  0.90307  1.0000
  S   S750      1.0  0.68700  0.56449  0.92394  1.0000
  Fe  Fe375     1.0  0.72002  0.53323  0.87610  1.0000
  S   S751      1.0  0.74889  0.52401  0.86694  1.0000
  H   H3358     1.0  0.67154  0.51290  0.93310  1.0000
  S   S752      1.0  0.70095  0.52479  0.86700  1.0000
  H   H3359     1.0  0.77741  0.49672  0.95668  1.0000
  Fe  Fe376     1.0  0.86325  0.54745  0.86705  1.0000
  S   S753      1.0  0.84306  0.54381  0.85542  1.0000
  S   S754      1.0  0.88688  0.55877  0.85425  1.0000
  Fe  Fe377     1.0  0.84961  0.52750  0.90324  1.0000
  S   S755      1.0  0.82843  0.52157  0.89520  1.0000
  S   S756      1.0  0.85353  0.51616  0.93064  1.0000
  Fe  Fe378     1.0  0.84835  0.51646  0.87124  1.0000
  Fe  Fe379     1.0  0.82439  0.54927  0.88014  1.0000
  S   S757      1.0  0.79660  0.56436  0.88217  1.0000
  S   S758      1.0  0.87005  0.51950  0.88085  1.0000
  S   S759      1.0  0.84401  0.55585  0.89031  1.0000
  C   C2809     1.0  0.86296  0.52854  0.93817  1.0000
  C   C2810     1.0  0.86787  0.54372  0.92744  1.0000
  C   C2811     1.0  0.87526  0.55347  0.93384  1.0000
  C   C2812     1.0  0.87774  0.54805  0.95100  1.0000
  C   C2813     1.0  0.87297  0.53282  0.96160  1.0000
  C   C2814     1.0  0.86559  0.52311  0.95522  1.0000
  H   H3360     1.0  0.86606  0.54790  0.91421  1.0000
  H   H3361     1.0  0.87899  0.56524  0.92556  1.0000
  H   H3362     1.0  0.83018  0.59165  0.95010  1.0000
  H   H3363     1.0  0.86222  0.51123  0.96347  1.0000
  C   C2815     1.0  0.70601  0.56031  0.93165  1.0000
  C   C2816     1.0  0.72166  0.55090  0.92346  1.0000
  C   C2817     1.0  0.73627  0.54568  0.93095  1.0000
  C   C2818     1.0  0.73527  0.55005  0.94656  1.0000
  C   C2819     1.0  0.71998  0.56045  0.95408  1.0000
  C   C2820     1.0  0.70534  0.56556  0.94668  1.0000
  H   H3364     1.0  0.72257  0.54753  0.91139  1.0000
  H   H3365     1.0  0.74825  0.53804  0.92477  1.0000
  H   H3366     1.0  0.91754  0.53687  0.86604  1.0000
  C   C2821     1.0  0.66647  0.62877  0.92920  1.0000
  C   C2822     1.0  0.76202  0.53504  0.87159  1.0000
  C   C2823     1.0  0.78011  0.52880  0.86851  1.0000
  C   C2824     1.0  0.79079  0.53765  0.87184  1.0000
  C   C2825     1.0  0.78344  0.55287  0.87814  1.0000
  C   C2826     1.0  0.76536  0.55905  0.88122  1.0000
  C   C2827     1.0  0.75466  0.55012  0.87809  1.0000
  H   H3367     1.0  0.78591  0.51718  0.86342  1.0000
  H   H3368     1.0  0.80473  0.53285  0.86921  1.0000
  H   H3369     1.0  0.75960  0.57080  0.88590  1.0000
  H   H3370     1.0  0.74076  0.55505  0.88044  1.0000
  C   C2828     1.0  0.91328  0.55041  0.79926  1.0000
  C   C2829     1.0  0.92319  0.55078  0.81053  1.0000
  C   C2830     1.0  0.91499  0.55353  0.82734  1.0000
  C   C2831     1.0  0.89696  0.55522  0.83319  1.0000
  C   C2832     1.0  0.88713  0.55448  0.82205  1.0000
  C   C2833     1.0  0.89522  0.55248  0.80502  1.0000
  H   H3371     1.0  0.93708  0.54948  0.80609  1.0000
  H   H3372     1.0  0.92266  0.55442  0.83574  1.0000
  H   H3373     1.0  0.87320  0.55606  0.82634  1.0000
  H   H3374     1.0  0.88743  0.55252  0.79627  1.0000
  C   C2834     1.0  0.91017  0.51598  0.91679  1.0000
  S   S760      1.0  0.88643  0.56066  0.95908  1.0000
  H   H3375     1.0  0.84122  0.54928  0.98056  1.0000
  H   H3376     1.0  0.69421  0.62106  0.81962  1.0000
  H   H3377     1.0  0.82046  0.49620  0.88490  1.0000
  S   S761      1.0  0.96731  0.52052  0.79204  1.0000
  H   H3378     1.0  0.76802  0.49755  0.84902  1.0000
  C   C2835     1.0  0.81464  0.55313  0.93854  1.0000
  C   C2836     1.0  0.90898  0.50774  0.93444  1.0000
  C   C2837     1.0  0.77349  0.60308  0.92155  1.0000
  H   H3379     1.0  0.66397  0.67028  0.86783  1.0000
  H   H3380     1.0  0.80119  0.59499  0.97145  1.0000
  H   H3381     1.0  0.74155  0.49056  0.86820  1.0000
  S   S762      1.0  0.75311  0.54248  0.95661  1.0000
  C   C2838     1.0  0.74495  0.59653  0.93477  1.0000
  C   C2839     1.0  0.74609  0.59398  0.95236  1.0000
  C   C2840     1.0  0.80080  0.54544  0.94800  1.0000
  H   H3382     1.0  0.74901  0.59134  0.90157  1.0000
  H   H3383     1.0  0.83265  0.56721  0.93830  1.0000
  H   H3384     1.0  0.93923  0.55265  0.88934  1.0000
  H   H3385     1.0  0.66607  0.61267  0.82577  1.0000
  H   H3386     1.0  0.90062  0.52157  0.79445  1.0000
  H   H3387     1.0  0.75170  0.61294  0.89975  1.0000
  N   N187      1.0  0.76091  0.59338  0.92111  1.0000
  H   H3388     1.0  0.73241  0.59522  0.97876  1.0000
  C   C2841     1.0  0.91671  0.53140  0.90964  1.0000
  H   H3389     1.0  0.79527  0.53881  0.94186  1.0000
  N   N188      1.0  0.82213  0.57220  0.97276  1.0000
  H   H3390     1.0  0.76733  0.61715  0.92071  1.0000
  C   C2842     1.0  0.70086  0.49908  0.94663  1.0000
  C   C2843     1.0  0.91998  0.53001  0.93899  1.0000
  S   S763      1.0  0.97324  0.54795  0.75383  1.0000
  H   H3391     1.0  0.92403  0.51706  0.88121  1.0000
  H   H3392     1.0  0.78189  0.57172  0.91517  1.0000
  H   H3393     1.0  0.65936  0.73040  0.91991  1.0000
  H   H3394     1.0  0.78499  0.60202  0.91051  1.0000
  S   S764      1.0  0.66975  0.56751  0.84801  1.0000
  H   H3395     1.0  0.70039  0.60811  0.94160  1.0000
  Fe  Fe380     1.0  0.97543  0.49980  0.77672  1.0000
  C   C2844     1.0  0.90600  0.55739  0.88915  1.0000
  H   H3396     1.0  0.92227  0.50795  0.77598  1.0000
  C   C2845     1.0  0.82169  0.56190  0.94632  1.0000
  C   C2846     1.0  0.92800  0.50103  0.80921  1.0000
  H   H3397     1.0  0.82012  0.55204  0.92514  1.0000
  H   H3398     1.0  0.69897  0.63020  0.83475  1.0000
  C   C2847     1.0  0.71319  0.60467  0.94449  1.0000
  N   N189      1.0  0.91854  0.54031  0.89096  1.0000
  C   C2848     1.0  0.81487  0.56328  0.96396  1.0000
  C   C2849     1.0  0.68732  0.53149  0.98382  1.0000
  H   H3399     1.0  0.77881  0.59793  0.93357  1.0000
  C   C2850     1.0  0.76916  0.57456  0.92431  1.0000
  H   H3400     1.0  0.90562  0.51015  0.90912  1.0000
  N   N190      1.0  0.68260  0.50360  0.95608  1.0000
  H   H3401     1.0  0.89237  0.55572  0.89387  1.0000
  C   C2851     1.0  0.91530  0.53026  0.88011  1.0000
  H   H3402     1.0  0.69156  0.53318  0.95667  1.0000
  H   H3403     1.0  0.94631  0.53086  0.88581  1.0000
  H   H3404     1.0  0.76989  0.59609  0.89322  1.0000
  C   C2852     1.0  0.80221  0.50160  0.95528  1.0000
  C   C2853     1.0  0.79410  0.54617  0.96541  1.0000
  C   C2854     1.0  0.81426  0.50120  0.96465  1.0000
  S   S765      1.0  0.95854  0.51395  0.75752  1.0000
  C   C2855     1.0  0.67520  0.48796  0.96039  1.0000
  H   H3405     1.0  0.77152  0.56934  0.93772  1.0000
  H   H3406     1.0  0.87529  0.52829  0.97459  1.0000
  H   H3407     1.0  0.70715  0.51039  0.94227  1.0000
  H   H3408     1.0  0.66327  0.96353  0.76304  1.0000
  H   H3409     1.0  0.67017  0.63571  0.91585  1.0000
  C   C2856     1.0  0.80813  0.58511  0.98116  1.0000
  H   H3410     1.0  0.90722  0.56467  0.87527  1.0000
  H   H3411     1.0  0.94076  0.49152  0.80830  1.0000
  H   H3412     1.0  0.67240  0.93628  0.75241  1.0000
  C   C2857     1.0  0.92121  0.53835  0.92140  1.0000
  C   C2858     1.0  0.72795  0.60178  0.93126  1.0000
  C   C2859     1.0  0.71483  0.60252  0.96150  1.0000
  H   H3413     1.0  0.82566  0.50613  0.95740  1.0000
  H   H3414     1.0  0.72561  0.60341  0.91849  1.0000
  H   H3415     1.0  0.90779  0.56591  0.89662  1.0000
  H   H3416     1.0  0.93850  0.54892  0.86928  1.0000
  C   C2860     1.0  0.68721  0.52555  0.96947  1.0000
  S   S766      1.0  0.67040  0.54256  0.89696  1.0000
  H   H3417     1.0  0.71949  0.56478  0.96548  1.0000
  H   H3418     1.0  0.75845  0.58918  0.95625  1.0000
  H   H3419     1.0  0.76087  0.56683  0.92255  1.0000
  H   H3420     1.0  0.88834  0.50505  0.80157  1.0000
  H   H3421     1.0  0.70337  0.60458  0.97179  1.0000
  C   C2861     1.0  0.91401  0.51467  0.94547  1.0000
  H   H3422     1.0  0.90154  0.52907  0.88364  1.0000
  H   H3423     1.0  0.69322  0.60337  0.85822  1.0000
  H   H3424     1.0  0.92537  0.55052  0.91720  1.0000
  C   C2862     1.0  0.66746  0.94849  0.74399  1.0000
  Fe  Fe381     1.0  0.95178  0.53545  0.77169  1.0000
  H   H3425     1.0  0.83030  0.51918  0.97672  1.0000
  H   H3426     1.0  0.69352  0.57340  0.95275  1.0000
  C   C2863     1.0  0.68219  0.50976  0.97157  1.0000
  H   H3427     1.0  0.69157  0.54339  0.98182  1.0000
  C   C2864     1.0  0.67004  0.64821  0.85609  1.0000
  Fe  Fe382     1.0  0.74444  0.54329  0.98484  1.0000
  H   H3428     1.0  0.68996  0.59583  0.84097  1.0000
  C   C2865     1.0  0.93641  0.54328  0.88360  1.0000
  H   H3429     1.0  0.67868  0.52891  0.93821  1.0000
  C   C2866     1.0  0.66943  0.63398  0.94272  1.0000
  H   H3430     1.0  0.92326  0.50235  0.82298  1.0000
  H   H3431     1.0  0.80461  0.50654  0.94126  1.0000
  H   H3432     1.0  0.91274  0.50849  0.95922  1.0000
  H   H3433     1.0  0.67689  0.50028  0.87409  1.0000
  H   H3434     1.0  0.90374  0.49613  0.93972  1.0000
  C   C2867     1.0  0.68823  0.62924  0.82947  1.0000
  H   H3435     1.0  0.70879  0.48861  0.95508  1.0000
  H   H3436     1.0  0.67855  0.65442  0.84499  1.0000
  H   H3437     1.0  0.84713  0.57261  0.95520  1.0000
  H   H3438     1.0  0.89443  0.51297  0.81707  1.0000
  H   H3439     1.0  0.67538  0.64496  0.93991  1.0000
  H   H3440     1.0  0.78356  0.53978  0.97280  1.0000
  H   H3441     1.0  0.68255  0.64236  0.82216  1.0000
  H   H3442     1.0  0.84041  0.58842  0.96791  1.0000
  C   C2868     1.0  0.80101  0.55489  0.97334  1.0000
  S   S767      1.0  0.85329  0.49383  0.85910  1.0000
  C   C2869     1.0  0.92210  0.49475  0.78465  1.0000
  H   H3443     1.0  0.70179  0.49434  0.93487  1.0000
  C   C2870     1.0  0.66232  0.96381  0.75001  1.0000
  C   C2871     1.0  0.78698  0.49592  0.96391  1.0000
  H   H3444     1.0  0.84671  0.48973  0.97142  1.0000
  Fe  Fe383     1.0  0.98158  0.52482  0.74165  1.0000
  C   C2872     1.0  0.89892  0.50927  0.80422  1.0000
  H   H3445     1.0  0.88875  0.49233  0.97211  1.0000
  H   H3446     1.0  0.72503  0.48960  0.97540  1.0000
  N   N191      1.0  0.91529  0.49557  0.80330  1.0000
  S   S768      1.0  0.68359  0.49034  0.90907  1.0000
  C   C2873     1.0  0.66459  0.62513  0.95989  1.0000
  H   H3447     1.0  0.79072  0.48917  0.84836  1.0000
  C   C2874     1.0  0.66699  0.63162  0.85741  1.0000
  H   H3448     1.0  0.66486  0.57125  0.95652  1.0000
  C   C2875     1.0  0.67256  0.51756  0.94423  1.0000
  N   N192      1.0  0.67487  0.62165  0.84356  1.0000
  C   C2876     1.0  0.68338  0.60354  0.85113  1.0000
  Fe  Fe384     1.0  0.98953  0.53108  0.77305  1.0000
  H   H3449     1.0  0.66672  0.62928  0.97045  1.0000
  H   H3450     1.0  0.85350  0.48881  0.91280  1.0000
  H   H3451     1.0  0.93582  0.48736  0.78203  1.0000
  C   C2877     1.0  0.81160  0.49476  0.98299  1.0000
  H   H3452     1.0  0.67400  0.59601  0.86037  1.0000
  C   C2878     1.0  0.78398  0.48938  0.98187  1.0000
  C   C2879     1.0  0.66175  0.65751  0.86919  1.0000
  H   H3453     1.0  0.91405  0.48870  0.78020  1.0000
  C   C2880     1.0  0.66102  0.62107  0.83546  1.0000
  H   H3454     1.0  0.66154  0.49037  0.96788  1.0000
  H   H3455     1.0  0.65911  0.52232  0.95126  1.0000
  H   H3456     1.0  0.88812  0.48742  0.83173  1.0000
