data_image0
_chemical_formula_structural       HFeS2CSFeHNC2H2SHCH2SH2FeS2FeSFeSFeCS2C6H4C4SCH2C4H4C2H2C7H4C2HCH2CH5CH2C2SCSFeH3CH2C2H2C3NHC3H2C2FeHCHCHSC3H3C2H5CH2NCH4SH3CHC2HC4H4CHFeSCH2CHC2FeHCSCH2SH2CH3C3FeS3CHNCHFeHCH3CH3FeHC2NSC3SCH5CHCHSC3HSC4H2SH2CH2SHNC6SCH14C2H2CFeCHC2HC3NFeCHSHCSHFeC2SCH2CHCH2CH3CS2HCHSC2H3C2H2C5HSHC2S2FeCHCSH2CH3CHSFeC2HSHCH2SHFeHNH2FeCHCHCS3HSHCHS2H4CH3CHC3HC3HCFeNFeC3HCSCFeHNHCHC2H2CHCH2CH2C2H2CH4CHC5SC3HCSHSH5CSHSFeHSC2H2CSFeS2FeS2FeSFeS3H4CHC2H2CH2CHNHCH2SC3H2C2H2SH2NH2NH4C3H2CHS2HC2H2C2H3CH2C5HCH2NH3CSCHC7H4CH3CH2CFeH3CHC3HCH2FeH4CH2C6H3C5NH3C2HC2H3C2NCH6CHC2HCSH2CHCHFeH2CH8C2HCHCHCHC2H2S2HCH2SCFeSHFeS2HCFeSCSHSCS2HFeSFeSH3S2H2CFe2SHS3CHCH3CFeHFeSCSH2FeH3C2H6C6H4SH2C8H2SHC6H4C2H2SCH2CHC4H2CH2FeH2NC9HCSCH10NC7HCH2CH2CH2NHFeSH3C3H3FeH3FeCHCNSCH2CH4SCSH2CH4CH3C2SC5HCH2C2H3CHC2HC3SNHC2H3CH3CHCHC2H3C2NHCHC4SH2C2SFeCHC2H4CNHCH2SC2HCH2CHCSHCH2CHFeHCHCH2FeSCH2CHSHCSHCSHFeSFeSC2SFeSC4HFeS2FeSFeSFeS3H2C4HC2H2CHC2HCHCH3CH3CHNHCHC2H2C6H4C6H2CH8CH2CH3C2H2C5HC2HC2H4CH2CH2FeHCHCH2C3NC3HCSC4H3SHC7SHCHCH2C4H3C4HCFeHNC2SHNH3C4SC3HC3HCH2CH2CSHSCHSNC7H14C2NC2SCH4C2H3NH2CH2CH2NCHCFeCH5SHCH2NH4C2H5CH2C4HCHC2HCHC2FeH6CH6CH3CHC3H8CH2FeH2C2FeCH2CH2NSHCHCSCFeSCFeS2FeSFeS3FeS2FeS2FeSFeS3HCS2FeSFeCS2CHC3H2SFeHCSCHSHC5H4C7H4C6H4C6H4C3H2CH2C2H2CH4C2HCH2CHCSH3FeCNCHC2HCH9CH6C3H3C2HFeHSH2CHCHNC7H12NC3H5SH2C3NCHSC6H2CNCHNH9C4HCH2C4H2CFeSHC2SCSH2CHCHSHSFeC2HC2HC3HCHCHC2HCH3CHCFeSCSNHCH3C3H2FeCH4CSH2C2H4C3HCH2CHC2H2S3NH3CH2CHCHCSC3H2C2HCHFeHSH2NCH2C3H5CH2CH7CH2CHC2H5SFeHC5SC2H2CHNHCHCHCHSFeSHNC3HCFeHSFeCSH3CS2H3S2HSH4SC2H5C6H4CHCHC2SH4FeHCH2CSH2CH2C5H2CHCSCSH3CH2C2H2CSHCH2FeHCHCH3CHCHSH4N3HC2H2SH4SCHC2HNC2HFeHC3H2CHCH2CFeCHSH3CH2C5SC2HC3H2SCHC2HC5H2FeHCH2CNH3C3Fe3HCSFeHCHSHCH6SCFeS2NC3HFeHFeS2FeHS3CSNHCSFeSCH2FeS2FeCSC2HCS2FeS2FeS2FeSFeS3CSH4SCSH2CH2CHCHFeC4HC6H4CFeHSHC6H3CHCHC2HC6H5C4FeH2C8HCH2CH3FeH7CH4C3H4CFeC3H2FeSH2C2SCH3CHNC9H15C2H2CH3C3HCH2CHC3HS2HSHCH2FeC3SHCHC2HC4HCH2C2SCH2NHNHCNHCHSCHFeC3H4C2H6CH4SHFeSH6C3HCHC2H2CH2SCH2CHCHFeSCSFeCHFeS2FeCSCHCNS2FeS2FeS2FeSFeS3H2CH3FeHCHCH2FeH4C2HSH2C6H4C4HSHC6H4C6H8C3H2CH4FeHS2H2CH4CHCFeH4N2C7SH2C3H4C2HC2H6CHFeC2H4CFeH2C2SCH2CHNCHCH3SH3CSHCHSC2NCHNHSHC2H3C5HCHCH4C2HCHCHCNC9H13NHC4H2C3H4C2H2C3SCSC4FeH4SCH2CHCH2CHSC2HCHCHC2H2CHSNHNSH2CH3C5HCH2C3H3CHCHCH4CNSFeCHCHCH3Fe2HCH2CHC2H3CFeCH4SFe2S2FeS2FeSFeS3C4HC4H4SH2CH2FeS2FeCSFeHCS3CFeHSC3SFeSFeSFeCSNHCHC2H5C7H4C5H6CNHSH5SCHC2H5CH3CHCH2C6HCH2C6H6C4SH3SC2H2C3HSC2SC4SHCHCH2SH2SCHCH2CHSH3SHCFeCHC2H2C6H5NC9H14NSC5HCHCH2C2HC2HSH3CH5CFeCHC2H8C2H2CFeHC3HFeHCH3C2HC3NC5H8CNC2H2FeC2HCH4C3SFeH2CS2FeC2H2S3HC3H3SHCFeSFeC2SC3SCHCH2C2FeNH2CHCH2FeC3H5C2HCNH8S3FeH2C2HC2HCHCN2C2HNH2CSHCH3CHCHCNHCH2S2HCHC2HSH2CH2CHC3FeHC2HC3H3CH3NCSCHCH2CH5CHC2H2CHCFeSHCH2CH2SFeC2FeCHFeNCHFeH5CH2FeCH2C2H2CFeS2H3CS2HNC2HCSH3FeH5CHFeH4C8H6CH4FeHC5H2CNH5C2SHSHC3HCH4CSC3HC2H2FeH2C2H3C2HCSH3C4H2C3HCHCSC2HCSH2CHC3HSCHS2H2CN2CFeHC2HC2H2SC2H2C2HCHCHCH2C2HCHC2HCHS2HCHCHCH3C2H2FeH2CH2SFeC2HNHC2HCSCHFeSNH4CFeC2H2SHSHFeSC8H2CH3SH3CHCHS2C3H5CHNH2CHNHS2CH5FeHCNHCH3CSHCH3CH3C5H4CFeCSC2HSHC2SHC2HCH5C2FeCH2FeHCHFeHC2H3C2H2CHFeCHCS2HFeHCHCHC2H4CSHC2H2C2SHCSHCH3CHCHCNHCHNSC2HC2FeSH3CFeHSHFeSCHS2CHFeHCHCHCH2NHSH2C3H2FeHCHC2H2CH2CHNCSHC2Fe2SC2SCHSCSCH2C6H4SH3CHFeCH4SC2S2CH5CNCHC2H2C2HSH4CHCHFeS2HFeHCSHFe2H4FeSH6SCFeSFeHFeS2CHCFeHFeSHSC6H4SC2SHSFeHCHC6H4C2SCFeC4FeH2C3HNC3SH2CH2SCH2FeH5CH2CHC3SFeSFeS2C3HC3HCH6SC2H3CH3S2CNCHSC2H2C2HCH4C2H4C4H3CHSHNC2HCHCSNHCHSC2H3CHCH3SCHC2H2CSCNH4SH3SC2H2CHCHC3H2C2SH2CFeH5C3H2C3HCHCH5C3SCHC3H2C3S2H2CFeHCHSHCH8C4HCHCFeHCHCHC2HC3H2CSCNH2CHCHCSHSCNHCHNC2SHCH2FeCHCHC3HCH2NH3CNH3CH
_chemical_formula_sum              "H1872 Fe208 S416 C1560 N104"
_cell_length_a       59.2839
_cell_length_b       60.1985
_cell_length_c       64.462
_cell_angle_alpha    76.3322
_cell_angle_beta     76.3607
_cell_angle_gamma    79.6952

_space_group_name_H-M_alt    "P 1"
_space_group_IT_number       1

loop_
  _space_group_symop_operation_xyz
  'x, y, z'

loop_
  _atom_site_type_symbol
  _atom_site_label
  _atom_site_symmetry_multiplicity
  _atom_site_fract_x
  _atom_site_fract_y
  _atom_site_fract_z
  _atom_site_occupancy
  H   H1        1.0  0.07466  0.19580  0.19422  1.0000
  Fe  Fe1       1.0  0.09758  0.31783  0.19431  1.0000
  S   S1        1.0  0.07352  0.34357  0.21188  1.0000
  S   S2        1.0  0.11124  0.33020  0.15861  1.0000
  C   C1        1.0  0.01057  0.32196  0.15406  1.0000
  S   S3        1.0  0.07596  0.28902  0.20982  1.0000
  Fe  Fe2       1.0  0.23540  0.44374  0.22847  1.0000
  H   H2        1.0  0.01759  0.38062  0.10374  1.0000
  N   N1        1.0  0.01105  0.34085  0.13444  1.0000
  C   C2        1.0  0.21266  0.47296  0.14661  1.0000
  C   C3        1.0  0.00988  0.35059  0.20412  1.0000
  H   H3        1.0  0.09148  0.40797  0.19780  1.0000
  H   H4        1.0  0.02780  0.31094  0.15371  1.0000
  S   S4        1.0  0.18602  0.44541  0.13642  1.0000
  H   H5        1.0  0.17467  0.41639  0.10832  1.0000
  C   C4        1.0  0.05867  0.38970  0.12822  1.0000
  H   H6        1.0  0.12742  0.38811  0.10408  1.0000
  H   H7        1.0  0.13535  0.34921  0.99640  1.0000
  S   S5        1.0  0.09745  0.47112  0.09034  1.0000
  H   H8        1.0  0.13187  0.46887  0.02130  1.0000
  H   H9        1.0  0.00849  0.32688  0.05791  1.0000
  Fe  Fe3       1.0  0.07512  0.31819  0.06238  1.0000
  S   S6        1.0  0.06256  0.35385  0.06862  1.0000
  S   S7        1.0  0.07349  0.29059  0.09268  1.0000
  Fe  Fe4       1.0  0.08708  0.33458  0.01310  1.0000
  S   S8        1.0  0.07538  0.37139  0.01570  1.0000
  Fe  Fe5       1.0  0.09399  0.36363  0.04340  1.0000
  S   S9        1.0  0.12051  0.38539  0.04445  1.0000
  Fe  Fe6       1.0  0.04503  0.35786  0.04054  1.0000
  C   C5        1.0  0.10640  0.23957  0.18719  1.0000
  S   S10       1.0  0.10820  0.32754  0.03918  1.0000
  S   S11       1.0  0.05520  0.32136  0.03594  1.0000
  C   C6        1.0  0.10269  0.44822  0.07629  1.0000
  C   C7        1.0  0.12486  0.44267  0.06408  1.0000
  C   C8        1.0  0.12986  0.42354  0.05427  1.0000
  C   C9        1.0  0.11255  0.40978  0.05631  1.0000
  C   C10       1.0  0.08994  0.41551  0.06795  1.0000
  C   C11       1.0  0.08503  0.43478  0.07798  1.0000
  H   H10       1.0  0.13817  0.45337  0.06171  1.0000
  H   H11       1.0  0.14725  0.41955  0.04488  1.0000
  H   H12       1.0  0.07646  0.40497  0.06935  1.0000
  H   H13       1.0  0.06770  0.43920  0.08720  1.0000
  C   C12       1.0  0.23131  0.46093  0.17800  1.0000
  C   C13       1.0  0.22348  0.43946  0.18242  1.0000
  C   C14       1.0  0.21015  0.43476  0.16913  1.0000
  C   C15       1.0  0.20446  0.45152  0.15140  1.0000
  S   S12       1.0  0.16511  0.46459  0.08383  1.0000
  C   C16       1.0  0.15075  0.44068  0.19443  1.0000
  H   H14       1.0  0.22766  0.42638  0.19616  1.0000
  H   H15       1.0  0.20376  0.41828  0.17299  1.0000
  C   C17       1.0  0.04359  0.39333  0.11379  1.0000
  C   C18       1.0  0.04495  0.42589  0.01495  1.0000
  C   C19       1.0  0.15365  0.47350  0.20985  1.0000
  C   C20       1.0  0.14931  0.47300  0.01368  1.0000
  H   H16       1.0  0.00687  0.31666  0.11611  1.0000
  H   H17       1.0  0.15888  0.40938  0.09099  1.0000
  H   H18       1.0  0.15333  0.43291  0.18032  1.0000
  H   H19       1.0  0.99937  0.21672  0.24081  1.0000
  C   C21       1.0  0.18155  0.38061  0.16967  1.0000
  C   C22       1.0  0.01792  0.33019  0.11501  1.0000
  H   H20       1.0  0.06263  0.25901  0.18062  1.0000
  H   H21       1.0  0.03645  0.32199  0.11298  1.0000
  C   C23       1.0  0.05844  0.37012  0.14486  1.0000
  C   C24       1.0  0.10045  0.31887  0.14067  1.0000
  C   C25       1.0  0.08511  0.30219  0.14838  1.0000
  C   C26       1.0  0.07705  0.29319  0.13366  1.0000
  C   C27       1.0  0.08412  0.30109  0.11120  1.0000
  C   C28       1.0  0.09915  0.31798  0.10354  1.0000
  C   C29       1.0  0.10739  0.32675  0.11822  1.0000
  H   H22       1.0  0.07940  0.29630  0.16559  1.0000
  H   H23       1.0  0.06521  0.28029  0.13958  1.0000
  H   H24       1.0  0.10471  0.32419  0.08623  1.0000
  H   H25       1.0  0.11918  0.33965  0.11204  1.0000
  C   C30       1.0  0.09071  0.22944  0.15864  1.0000
  C   C31       1.0  0.08965  0.20446  0.19442  1.0000
  H   H26       1.0  0.18953  0.39356  0.13580  1.0000
  C   C32       1.0  0.03840  0.41708  0.99932  1.0000
  H   H27       1.0  0.02873  0.34918  0.19989  1.0000
  H   H28       1.0  0.03373  0.42517  0.03100  1.0000
  C   C33       1.0  0.02841  0.37735  0.11579  1.0000
  H   H29       1.0  0.12429  0.23086  0.18167  1.0000
  H   H30       1.0  0.01620  0.34301  0.09974  1.0000
  H   H31       1.0  0.11721  0.38275  0.16523  1.0000
  H   H32       1.0  0.12845  0.36971  0.20073  1.0000
  H   H33       1.0  0.10556  0.25825  0.17953  1.0000
  C   C34       1.0  0.06501  0.24114  0.19034  1.0000
  H   H34       1.0  0.12520  0.39918  0.99707  1.0000
  H   H35       1.0  0.14784  0.36325  0.01164  1.0000
  C   C35       1.0  0.19020  0.41289  0.99426  1.0000
  C   C36       1.0  0.07498  0.21921  0.15137  1.0000
  S   S13       1.0  0.99546  0.02641  0.21434  1.0000
  C   C37       1.0  0.02742  0.35741  0.13273  1.0000
  S   S14       1.0  0.00836  0.37612  0.04299  1.0000
  Fe  Fe7       1.0  0.09759  0.28094  0.23547  1.0000
  H   H36       1.0  0.10608  0.19408  0.18767  1.0000
  H   H37       1.0  0.00608  0.07154  0.21393  1.0000
  H   H38       1.0  0.07068  0.40200  0.12630  1.0000
  C   C38       1.0  0.13167  0.38235  0.12066  1.0000
  H   H39       1.0  0.18920  0.42169  0.00740  1.0000
  H   H40       1.0  0.15729  0.40101  0.00821  1.0000
  C   C39       1.0  0.14572  0.46008  0.23078  1.0000
  C   C40       1.0  0.10844  0.24287  0.12016  1.0000
  H   H41       1.0  0.05028  0.23238  0.18968  1.0000
  H   H42       1.0  0.16943  0.36904  0.20386  1.0000
  C   C41       1.0  0.04311  0.35411  0.14716  1.0000
  C   C42       1.0  0.09249  0.23297  0.11360  1.0000
  C   C43       1.0  0.15936  0.46892  0.99287  1.0000
  N   N2        1.0  0.14489  0.39866  0.12547  1.0000
  H   H43       1.0  0.11343  0.41897  0.13917  1.0000
  C   C44       1.0  0.06622  0.43459  0.01035  1.0000
  C   C45       1.0  0.14310  0.42800  0.21523  1.0000
  C   C46       1.0  0.12970  0.42091  0.12656  1.0000
  H   H44       1.0  0.00681  0.40471  0.20591  1.0000
  H   H45       1.0  0.13964  0.41044  0.21737  1.0000
  C   C47       1.0  0.01386  0.05915  0.22626  1.0000
  C   C48       1.0  0.13532  0.38242  0.16585  1.0000
  Fe  Fe8       1.0  0.17220  0.47491  0.11238  1.0000
  H   H46       1.0  0.14195  0.36486  0.12154  1.0000
  C   C49       1.0  0.02517  0.40497  0.20512  1.0000
  H   H47       1.0  0.19948  0.37996  0.17126  1.0000
  C   C50       1.0  0.17555  0.38820  0.14923  1.0000
  H   H48       1.0  0.09260  0.23519  0.09638  1.0000
  S   S15       1.0  0.24572  0.46750  0.19615  1.0000
  C   C51       1.0  0.15214  0.38939  0.14667  1.0000
  C   C52       1.0  0.14152  0.37499  0.18626  1.0000
  C   C53       1.0  0.16486  0.40291  0.10676  1.0000
  H   H49       1.0  0.13904  0.43349  0.13040  1.0000
  H   H50       1.0  0.17722  0.38685  0.10522  1.0000
  H   H51       1.0  0.07041  0.36706  0.15593  1.0000
  C   C54       1.0  0.07590  0.22101  0.12916  1.0000
  C   C55       1.0  0.10772  0.24118  0.14231  1.0000
  H   H52       1.0  0.16657  0.34590  0.99380  1.0000
  H   H53       1.0  0.06334  0.21361  0.12393  1.0000
  H   H54       1.0  0.08940  0.20333  0.21196  1.0000
  H   H55       1.0  0.10420  0.23851  0.20506  1.0000
  H   H56       1.0  0.04373  0.40848  0.10080  1.0000
  C   C56       1.0  0.07295  0.40710  0.19981  1.0000
  H   H57       1.0  0.12429  0.42890  0.11080  1.0000
  H   H58       1.0  0.02190  0.41021  0.00425  1.0000
  N   N3        1.0  0.08819  0.22873  0.18219  1.0000
  C   C57       1.0  0.16457  0.37431  0.18812  1.0000
  H   H59       1.0  0.04406  0.33923  0.16023  1.0000
  H   H60       1.0  0.11467  0.38034  0.13218  1.0000
  H   H61       1.0  0.06291  0.24240  0.20761  1.0000
  H   H62       1.0  0.12079  0.25280  0.10791  1.0000
  S   S16       1.0  0.12155  0.30759  0.21819  1.0000
  H   H63       1.0  0.06145  0.21023  0.16281  1.0000
  H   H64       1.0  0.12016  0.24993  0.14609  1.0000
  H   H65       1.0  0.07169  0.44038  0.02287  1.0000
  C   C58       1.0  0.15587  0.46314  0.19165  1.0000
  H   H66       1.0  0.16201  0.47179  0.17509  1.0000
  C   C59       1.0  0.14042  0.43778  0.23334  1.0000
  C   C60       1.0  0.01206  0.03564  0.22919  1.0000
  H   H67       1.0  0.00489  0.37905  0.17731  1.0000
  C   C61       1.0  0.03545  0.39805  0.22388  1.0000
  C   C62       1.0  0.05977  0.39938  0.22054  1.0000
  C   C63       1.0  0.22628  0.47757  0.15988  1.0000
  C   C64       1.0  0.06235  0.41364  0.18178  1.0000
  H   H68       1.0  0.99750  0.31031  0.15512  1.0000
  H   H69       1.0  0.00550  0.32889  0.16930  1.0000
  H   H70       1.0  0.07251  0.41975  0.16574  1.0000
  H   H71       1.0  0.33049  0.45608  0.23432  1.0000
  C   C65       1.0  0.99641  0.36753  0.19140  1.0000
  H   H72       1.0  0.00510  0.25753  0.23145  1.0000
  Fe  Fe9       1.0  0.05381  0.31390  0.22950  1.0000
  S   S17       1.0  0.19951  0.43297  0.23852  1.0000
  C   C66       1.0  0.02478  0.06675  0.24000  1.0000
  H   H73       1.0  0.99377  0.37859  0.23674  1.0000
  H   H74       1.0  0.03030  0.41756  0.17036  1.0000
  C   C67       1.0  0.03855  0.41249  0.18442  1.0000
  H   H75       1.0  0.18793  0.33309  0.23759  1.0000
  C   C68       1.0  0.99881  0.33545  0.22209  1.0000
  C   C69       1.0  0.17185  0.40110  0.99447  1.0000
  Fe  Fe10      1.0  0.09566  0.33122  0.23714  1.0000
  H   H76       1.0  0.06888  0.39423  0.23397  1.0000
  C   C70       1.0  0.99389  0.33548  0.06780  1.0000
  S   S18       1.0  0.01494  0.31417  0.23843  1.0000
  C   C71       1.0  0.15033  0.35841  0.99558  1.0000
  H   H77       1.0  0.02563  0.08494  0.23811  1.0000
  H   H78       1.0  0.14661  0.33045  0.23766  1.0000
  S   S19       1.0  0.25361  0.40909  0.24181  1.0000
  H   H79       1.0  0.07908  0.47952  0.01551  1.0000
  H   H80       1.0  0.38148  0.44099  0.28950  1.0000
  C   C72       1.0  0.08621  0.01977  0.35126  1.0000
  H   H81       1.0  0.04059  0.03428  0.32468  1.0000
  H   H82       1.0  0.34356  0.40185  0.26000  1.0000
  H   H83       1.0  0.16573  0.39351  0.26537  1.0000
  C   C73       1.0  0.04524  0.09277  0.37086  1.0000
  C   C74       1.0  0.32403  0.45237  0.25175  1.0000
  C   C75       1.0  0.03400  0.02716  0.25811  1.0000
  Fe  Fe11      1.0  0.24735  0.42224  0.27281  1.0000
  S   S20       1.0  0.21229  0.40957  0.28671  1.0000
  S   S21       1.0  0.27304  0.41894  0.29449  1.0000
  S   S22       1.0  0.05984  0.11749  0.28429  1.0000
  C   C76       1.0  0.30404  0.44111  0.26049  1.0000
  H   H84       1.0  0.44212  0.44019  0.37285  1.0000
  N   N4        1.0  0.38994  0.40668  0.30776  1.0000
  C   C77       1.0  0.04951  0.02761  0.33878  1.0000
  H   H85       1.0  0.37615  0.41518  0.26836  1.0000
  Fe  Fe12      1.0  0.03288  0.14658  0.27349  1.0000
  H   H86       1.0  0.29500  0.43628  0.24981  1.0000
  C   C78       1.0  0.08906  0.02018  0.38861  1.0000
  H   H87       1.0  0.02009  0.07990  0.35905  1.0000
  H   H88       1.0  0.12418  0.38966  0.26702  1.0000
  H   H89       1.0  0.09673  0.05687  0.32056  1.0000
  C   C79       1.0  0.38394  0.43187  0.30613  1.0000
  H   H90       1.0  0.08294  0.02769  0.40303  1.0000
  H   H91       1.0  0.02103  0.00155  0.24737  1.0000
  H   H92       1.0  0.20618  0.48008  0.29419  1.0000
  Fe  Fe13      1.0  0.03506  0.09464  0.28152  1.0000
  H   H93       1.0  0.41152  0.41216  0.27517  1.0000
  C   C80       1.0  0.33599  0.37717  0.31375  1.0000
  C   C81       1.0  0.29650  0.43511  0.28310  1.0000
  N   N5        1.0  0.07492  0.02963  0.33229  1.0000
  S   S23       1.0  0.05440  0.11270  0.34680  1.0000
  C   C82       1.0  0.33595  0.45851  0.26549  1.0000
  C   C83       1.0  0.32800  0.45306  0.28806  1.0000
  C   C84       1.0  0.30853  0.44107  0.29686  1.0000
  S   S24       1.0  0.00976  0.12361  0.26772  1.0000
  C   C85       1.0  0.02833  0.07851  0.37256  1.0000
  H   H94       1.0  0.33695  0.45780  0.29877  1.0000
  H   H95       1.0  0.30276  0.43637  0.31435  1.0000
  H   H96       1.0  0.04037  0.03760  0.35151  1.0000
  H   H97       1.0  0.05720  0.07402  0.42176  1.0000
  H   H98       1.0  0.00852  0.98552  0.36169  1.0000
  C   C86       1.0  0.04916  0.07515  0.40804  1.0000
  H   H99       1.0  0.05010  0.36411  0.25600  1.0000
  C   C87       1.0  0.07896  0.02916  0.37036  1.0000
  H   H100      1.0  0.00627  0.11158  0.42857  1.0000
  S   S25       1.0  0.36126  0.47207  0.25389  1.0000
  C   C88       1.0  0.08469  0.01801  0.31355  1.0000
  C   C89       1.0  0.37061  0.39770  0.30269  1.0000
  C   C90       1.0  0.36595  0.40379  0.28129  1.0000
  H   H101      1.0  0.10363  0.01957  0.30732  1.0000
  S   S26       1.0  0.01516  0.09248  0.31584  1.0000
  C   C91       1.0  0.99443  0.10817  0.41954  1.0000
  C   C92       1.0  0.11450  0.99197  0.36985  1.0000
  C   C93       1.0  0.19554  0.30824  0.29270  1.0000
  C   C94       1.0  0.02203  0.06237  0.39197  1.0000
  H   H102      1.0  0.14926  0.34775  0.30639  1.0000
  H   H103      1.0  0.02152  0.35870  0.27105  1.0000
  S   S27       1.0  0.23244  0.45768  0.25822  1.0000
  H   H104      1.0  0.48450  0.07051  0.27251  1.0000
  H   H105      1.0  0.11104  0.99222  0.33796  1.0000
  C   C95       1.0  0.33207  0.38335  0.29255  1.0000
  H   H106      1.0  0.04180  0.01469  0.27038  1.0000
  H   H107      1.0  0.40958  0.40317  0.33298  1.0000
  S   S28       1.0  0.07366  0.30372  0.25653  1.0000
  H   H108      1.0  0.01291  0.39966  0.27742  1.0000
  N   N6        1.0  0.14758  0.28002  0.28262  1.0000
  C   C96       1.0  0.14857  0.25794  0.29873  1.0000
  C   C97       1.0  0.12258  0.28833  0.28184  1.0000
  C   C98       1.0  0.15952  0.27551  0.26071  1.0000
  C   C99       1.0  0.15936  0.29652  0.28879  1.0000
  C   C100      1.0  0.18393  0.29253  0.28768  1.0000
  C   C101      1.0  0.14703  0.31663  0.29629  1.0000
  S   S29       1.0  0.04770  0.05935  0.27414  1.0000
  C   C102      1.0  0.34715  0.39644  0.27632  1.0000
  H   H109      1.0  0.06867  0.10194  0.38745  1.0000
  H   H110      1.0  0.13987  0.26057  0.31544  1.0000
  H   H111      1.0  0.13965  0.24512  0.29473  1.0000
  H   H112      1.0  0.16688  0.24993  0.29933  1.0000
  H   H113      1.0  0.12063  0.30516  0.27023  1.0000
  H   H114      1.0  0.11192  0.29028  0.29816  1.0000
  H   H115      1.0  0.11440  0.27595  0.27646  1.0000
  H   H116      1.0  0.17734  0.26584  0.26052  1.0000
  H   H117      1.0  0.14978  0.26487  0.25476  1.0000
  H   H118      1.0  0.16125  0.29188  0.24847  1.0000
  H   H119      1.0  0.19444  0.27742  0.28259  1.0000
  H   H120      1.0  0.12838  0.32136  0.29757  1.0000
  H   H121      1.0  0.07059  0.06218  0.30964  1.0000
  H   H122      1.0  0.08219  0.99946  0.31794  1.0000
  C   C103      1.0  0.47018  0.46116  0.36483  1.0000
  C   C104      1.0  0.07898  0.18740  0.25791  1.0000
  H   H123      1.0  0.41624  0.38356  0.29131  1.0000
  H   H124      1.0  0.39853  0.37738  0.33255  1.0000
  C   C105      1.0  0.10691  0.00169  0.38831  1.0000
  Fe  Fe14      1.0  0.19790  0.44424  0.26956  1.0000
  C   C106      1.0  0.41211  0.40219  0.29197  1.0000
  H   H125      1.0  0.37937  0.40119  0.34288  1.0000
  C   C107      1.0  0.35499  0.38411  0.31886  1.0000
  C   C108      1.0  0.05561  0.09098  0.38864  1.0000
  H   H126      1.0  0.21444  0.30544  0.29083  1.0000
  C   C109      1.0  0.45071  0.45361  0.36094  1.0000
  C   C110      1.0  0.15882  0.33205  0.30155  1.0000
  C   C111      1.0  0.16157  0.37972  0.25935  1.0000
  N   N7        1.0  0.02192  0.38983  0.24605  1.0000
  Fe  Fe15      1.0  0.21710  0.39930  0.25444  1.0000
  C   C112      1.0  0.44163  0.46421  0.34224  1.0000
  H   H127      1.0  0.00583  0.13336  0.39095  1.0000
  S   S30       1.0  0.01325  0.14855  0.30741  1.0000
  H   H128      1.0  0.47657  0.45349  0.37966  1.0000
  C   C113      1.0  0.10440  0.00080  0.35154  1.0000
  S   S31       1.0  0.16672  0.46818  0.28209  1.0000
  H   H129      1.0  0.36742  0.43601  0.31777  1.0000
  Fe  Fe16      1.0  0.03788  0.11724  0.31787  1.0000
  C   C114      1.0  0.39447  0.39649  0.33000  1.0000
  C   C115      1.0  0.48062  0.47927  0.34996  1.0000
  S   S32       1.0  0.01731  0.99761  0.40244  1.0000
  C   C116      1.0  0.03247  0.06076  0.40975  1.0000
  H   H130      1.0  0.00889  0.05148  0.39334  1.0000
  H   H131      1.0  0.48093  0.07652  0.29920  1.0000
  C   C117      1.0  0.03150  0.36576  0.25457  1.0000
  H   H132      1.0  0.42721  0.40746  0.29633  1.0000
  C   C118      1.0  0.18303  0.32801  0.29951  1.0000
  H   H133      1.0  0.19220  0.34058  0.30261  1.0000
  H   H134      1.0  0.07591  0.02585  0.29953  1.0000
  C   C119      1.0  0.09537  0.20190  0.25747  1.0000
  H   H135      1.0  0.08391  0.16891  0.26041  1.0000
  H   H136      1.0  0.35672  0.37904  0.33567  1.0000
  H   H137      1.0  0.39790  0.43942  0.30994  1.0000
  C   C120      1.0  0.13263  0.35983  0.25231  1.0000
  S   S33       1.0  0.10313  0.35781  0.25317  1.0000
  S   S34       1.0  0.41501  0.45747  0.33928  1.0000
  H   H138      1.0  0.11285  0.19451  0.25978  1.0000
  C   C121      1.0  0.05060  0.22092  0.25048  1.0000
  H   H139      1.0  0.04208  0.40320  0.26324  1.0000
  S   S35       1.0  0.03770  0.18005  0.24935  1.0000
  C   C122      1.0  0.13811  0.37755  0.26022  1.0000
  C   C123      1.0  0.03479  0.05070  0.25599  1.0000
  H   H140      1.0  0.04647  0.00931  0.34543  1.0000
  H   H141      1.0  0.06543  0.04363  0.37131  1.0000
  H   H142      1.0  0.06169  0.25377  0.24793  1.0000
  C   C124      1.0  0.99708  0.98235  0.35220  1.0000
  C   C125      1.0  0.07791  0.05441  0.32454  1.0000
  H   H143      1.0  0.32384  0.36741  0.32637  1.0000
  H   H144      1.0  0.06887  0.06499  0.33682  1.0000
  C   C126      1.0  0.02224  0.01969  0.24507  1.0000
  C   C127      1.0  0.15064  0.34394  0.24400  1.0000
  C   C128      1.0  0.08941  0.22594  0.25322  1.0000
  C   C129      1.0  0.05676  0.19699  0.25376  1.0000
  C   C130      1.0  0.17403  0.34558  0.24382  1.0000
  H   H145      1.0  0.13492  0.42787  0.24958  1.0000
  S   S36       1.0  0.41370  0.47991  0.27773  1.0000
  H   H146      1.0  0.31683  0.37867  0.28882  1.0000
  C   C131      1.0  0.17958  0.36368  0.25118  1.0000
  C   C132      1.0  0.49087  0.08035  0.28208  1.0000
  S   S37       1.0  0.11073  0.24427  0.24951  1.0000
  S   S38       1.0  0.20906  0.36539  0.25051  1.0000
  Fe  Fe17      1.0  0.00527  0.01393  0.43160  1.0000
  C   C133      1.0  0.06674  0.23533  0.25047  1.0000
  H   H147      1.0  0.03341  0.22844  0.24764  1.0000
  C   C134      1.0  0.02385  0.40458  0.26086  1.0000
  S   S39       1.0  0.02488  0.04116  0.43435  1.0000
  H   H148      1.0  0.48597  0.09891  0.27516  1.0000
  H   H149      1.0  0.01812  0.42306  0.25433  1.0000
  C   C135      1.0  0.99659  0.39012  0.24684  1.0000
  H   H150      1.0  0.11480  0.99487  0.40246  1.0000
  H   H151      1.0  0.14435  0.46641  0.24547  1.0000
  H   H152      1.0  0.03062  0.35423  0.24370  1.0000
  C   C136      1.0  0.99413  0.12041  0.39837  1.0000
  H   H153      1.0  0.99289  0.06875  0.28473  1.0000
  S   S40       1.0  0.49189  0.46315  0.41916  1.0000
  Fe  Fe18      1.0  0.02616  0.19969  0.73883  1.0000
  C   C137      1.0  0.14690  0.02765  0.71413  1.0000
  C   C138      1.0  0.16464  0.01130  0.64233  1.0000
  H   H154      1.0  0.16727  0.02752  0.63106  1.0000
  S   S41       1.0  0.00178  0.01964  0.57333  1.0000
  H   H155      1.0  0.22966  0.45437  0.72296  1.0000
  C   C139      1.0  0.00155  0.98982  0.68522  1.0000
  H   H156      1.0  0.02305  0.30020  0.71109  1.0000
  H   H157      1.0  0.11331  0.04798  0.69240  1.0000
  S   S42       1.0  0.02494  0.43563  0.69590  1.0000
  H   H158      1.0  0.12239  0.98442  0.68011  1.0000
  Fe  Fe19      1.0  0.04344  0.01064  0.70282  1.0000
  H   H159      1.0  0.19514  0.99952  0.68486  1.0000
  N   N8        1.0  0.13417  0.05119  0.71426  1.0000
  H   H160      1.0  0.05990  0.06038  0.56927  1.0000
  H   H161      1.0  0.13895  0.06108  0.67905  1.0000
  Fe  Fe20      1.0  0.03417  0.05772  0.67512  1.0000
  C   C140      1.0  0.16734  0.02399  0.69798  1.0000
  H   H162      1.0  0.08819  0.04021  0.61686  1.0000
  C   C141      1.0  0.03651  0.33761  0.73830  1.0000
  H   H163      1.0  0.05179  0.39070  0.71050  1.0000
  C   C142      1.0  0.07648  0.98659  0.59961  1.0000
  S   S43       1.0  0.02203  0.04332  0.71055  1.0000
  S   S44       1.0  0.06628  0.06940  0.67944  1.0000
  S   S45       1.0  0.01042  0.08121  0.65437  1.0000
  H   H164      1.0  0.00190  0.43964  0.74028  1.0000
  S   S46       1.0  0.05329  0.02435  0.66691  1.0000
  H   H165      1.0  0.00837  0.05684  0.61550  1.0000
  C   C143      1.0  0.10783  0.37695  0.71632  1.0000
  H   H166      1.0  0.14087  0.08459  0.71649  1.0000
  S   S47       1.0  0.99650  0.19900  0.72331  1.0000
  S   S48       1.0  0.07607  0.01791  0.71058  1.0000
  H   H167      1.0  0.09033  0.43087  0.72550  1.0000
  H   H168      1.0  0.06749  0.07280  0.60012  1.0000
  H   H169      1.0  0.04273  0.35568  0.70394  1.0000
  H   H170      1.0  0.02922  0.07039  0.57768  1.0000
  C   C144      1.0  0.05124  0.46077  0.70926  1.0000
  H   H171      1.0  0.11706  0.00639  0.61755  1.0000
  H   H172      1.0  0.07472  0.10201  0.70480  1.0000
  H   H173      1.0  0.06219  0.46154  0.69316  1.0000
  C   C145      1.0  0.08408  0.02581  0.61176  1.0000
  H   H174      1.0  0.03699  0.08176  0.60892  1.0000
  C   C146      1.0  0.05092  0.06666  0.61016  1.0000
  C   C147      1.0  0.01720  0.44847  0.73570  1.0000
  C   C148      1.0  0.13937  0.98695  0.66984  1.0000
  H   H175      1.0  0.11827  0.34720  0.73961  1.0000
  C   C149      1.0  0.99850  0.10648  0.70256  1.0000
  C   C150      1.0  0.03132  0.44928  0.71491  1.0000
  C   C151      1.0  0.14256  0.00817  0.65544  1.0000
  H   H176      1.0  0.09559  0.40922  0.69701  1.0000
  C   C152      1.0  0.15026  0.06701  0.71526  1.0000
  Fe  Fe21      1.0  0.08437  0.03408  0.67504  1.0000
  N   N9        1.0  0.02832  0.31682  0.73556  1.0000
  Fe  Fe22      1.0  0.05554  0.05253  0.71445  1.0000
  C   C153      1.0  0.17978  0.00201  0.69755  1.0000
  C   C154      1.0  0.11412  0.05235  0.73300  1.0000
  C   C155      1.0  0.06286  0.02636  0.60481  1.0000
  H   H177      1.0  0.03827  0.04193  0.57296  1.0000
  C   C156      1.0  0.06580  0.11130  0.71747  1.0000
  S   S49       1.0  0.11983  0.03147  0.65265  1.0000
  C   C157      1.0  0.12489  0.05982  0.69399  1.0000
  Fe  Fe23      1.0  0.49198  0.46876  0.74085  1.0000
  H   H178      1.0  0.02282  0.03464  0.63360  1.0000
  N   N10       1.0  0.04512  0.04710  0.60287  1.0000
  H   H179      1.0  0.16444  0.06937  0.70049  1.0000
  C   C158      1.0  0.02902  0.31623  0.71250  1.0000
  H   H180      1.0  0.07690  0.14390  0.69928  1.0000
  C   C159      1.0  0.04306  0.05533  0.57973  1.0000
  C   C160      1.0  0.04287  0.35602  0.72058  1.0000
  H   H181      1.0  0.15862  0.06038  0.72968  1.0000
  H   H182      1.0  0.99553  0.11914  0.68750  1.0000
  C   C161      1.0  0.13934  0.00780  0.72941  1.0000
  H   H183      1.0  0.10972  0.36738  0.70359  1.0000
  C   C162      1.0  0.05392  0.09959  0.73731  1.0000
  H   H184      1.0  0.99527  0.08932  0.70111  1.0000
  H   H185      1.0  0.04708  0.31664  0.70253  1.0000
  C   C163      1.0  0.04833  0.37632  0.72408  1.0000
  H   H186      1.0  0.20062  0.99670  0.63380  1.0000
  H   H187      1.0  0.01727  0.33090  0.70493  1.0000
  C   C164      1.0  0.06703  0.13502  0.71436  1.0000
  C   C165      1.0  0.21942  0.46361  0.73530  1.0000
  H   H188      1.0  0.01051  0.00483  0.67882  1.0000
  H   H189      1.0  0.01024  0.13398  0.72249  1.0000
  C   C166      1.0  0.18357  0.99377  0.64380  1.0000
  H   H190      1.0  0.04384  0.00512  0.59350  1.0000
  H   H191      1.0  0.05248  0.06189  0.62756  1.0000
  H   H192      1.0  0.10512  0.07031  0.73287  1.0000
  H   H193      1.0  0.11451  0.07722  0.69363  1.0000
  C   C167      1.0  0.02197  0.04142  0.61614  1.0000
  H   H194      1.0  0.01510  0.02843  0.61045  1.0000
  C   C168      1.0  0.10002  0.40051  0.71260  1.0000
  C   C169      1.0  0.05951  0.00601  0.59898  1.0000
  C   C170      1.0  0.10096  0.00630  0.61229  1.0000
  C   C171      1.0  0.15181  0.98584  0.72866  1.0000
  C   C172      1.0  0.11266  0.36564  0.73661  1.0000
  S   S50       1.0  0.05880  0.17663  0.72709  1.0000
  C   C173      1.0  0.09728  0.98683  0.60602  1.0000
  C   C174      1.0  0.09726  0.41286  0.72905  1.0000
  C   C175      1.0  0.05565  0.14731  0.73073  1.0000
  H   H195      1.0  0.01750  0.10468  0.70278  1.0000
  C   C176      1.0  0.05696  0.47142  0.72426  1.0000
  S   S51       1.0  0.46858  0.47603  0.71663  1.0000
  H   H196      1.0  0.06166  0.29559  0.73568  1.0000
  S   S52       1.0  0.02367  0.23856  0.73088  1.0000
  H   H197      1.0  0.17363  0.03802  0.68524  1.0000
  H   H198      1.0  0.10039  0.04213  0.73263  1.0000
  H   H199      1.0  0.07227  0.48032  0.71970  1.0000
  H   H200      1.0  0.00715  0.09198  0.74192  1.0000
  H   H201      1.0  0.12370  0.00869  0.74196  1.0000
  C   C177      1.0  0.17203  0.98297  0.71283  1.0000
  S   S53       1.0  0.10411  0.32857  0.97931  1.0000
  H   H202      1.0  0.06930  0.41697  0.82783  1.0000
  S   S54       1.0  0.21995  0.45093  0.88200  1.0000
  Fe  Fe24      1.0  0.13435  0.44617  0.91050  1.0000
  H   H203      1.0  0.22527  0.40415  0.94632  1.0000
  S   S55       1.0  0.10960  0.42141  0.91279  1.0000
  C   C178      1.0  0.00569  0.38752  0.80538  1.0000
  C   C179      1.0  0.19211  0.39116  0.95996  1.0000
  H   H204      1.0  0.99466  0.29787  0.80740  1.0000
  H   H205      1.0  0.11193  0.25449  0.87220  1.0000
  C   C180      1.0  0.04498  0.42204  0.94268  1.0000
  S   S56       1.0  0.16474  0.43312  0.92689  1.0000
  Fe  Fe25      1.0  0.09271  0.35365  0.84302  1.0000
  S   S57       1.0  0.06058  0.37177  0.86122  1.0000
  S   S58       1.0  0.12434  0.37214  0.83398  1.0000
  Fe  Fe26      1.0  0.06672  0.31649  0.83856  1.0000
  S   S59       1.0  0.03217  0.33202  0.85593  1.0000
  S   S60       1.0  0.07281  0.28403  0.82510  1.0000
  Fe  Fe27      1.0  0.04329  0.36572  0.83635  1.0000
  S   S61       1.0  0.02348  0.39665  0.81892  1.0000
  Fe  Fe28      1.0  0.05289  0.33658  0.87941  1.0000
  S   S62       1.0  0.03690  0.33076  0.91538  1.0000
  S   S63       1.0  0.07584  0.34995  0.81672  1.0000
  S   S64       1.0  0.08686  0.31864  0.86350  1.0000
  H   H206      1.0  0.33922  0.46872  0.81184  1.0000
  H   H207      1.0  0.10420  0.38768  0.79477  1.0000
  H   H208      1.0  0.00196  0.31391  0.76538  1.0000
  H   H209      1.0  0.19394  0.38328  0.94616  1.0000
  C   C181      1.0  0.01292  0.28230  0.90435  1.0000
  H   H210      1.0  0.03611  0.22693  0.90165  1.0000
  C   C182      1.0  0.07385  0.42993  0.83543  1.0000
  C   C183      1.0  0.18229  0.39136  0.87551  1.0000
  H   H211      1.0  0.01884  0.29956  0.89747  1.0000
  H   H212      1.0  0.03053  0.43596  0.94652  1.0000
  C   C184      1.0  0.15327  0.37056  0.95699  1.0000
  H   H213      1.0  0.04431  0.42212  0.87366  1.0000
  H   H214      1.0  0.20003  0.46637  0.81243  1.0000
  C   C185      1.0  0.04285  0.47044  0.74508  1.0000
  H   H215      1.0  0.08609  0.42747  0.95835  1.0000
  N   N11       1.0  0.15179  0.37874  0.97737  1.0000
  H   H216      1.0  0.08412  0.27934  0.93142  1.0000
  C   C186      1.0  0.08139  0.27335  0.91769  1.0000
  H   H217      1.0  0.06102  0.43032  0.93464  1.0000
  H   H218      1.0  0.02515  0.46776  0.82848  1.0000
  S   S65       1.0  0.48594  0.43982  0.76991  1.0000
  C   C187      1.0  0.07347  0.41840  0.77665  1.0000
  C   C188      1.0  0.05435  0.26554  0.89738  1.0000
  C   C189      1.0  0.19299  0.45148  0.82462  1.0000
  H   H219      1.0  0.05384  0.32834  0.98674  1.0000
  H   H220      1.0  0.31086  0.00794  0.79931  1.0000
  C   C190      1.0  0.21150  0.42762  0.79881  1.0000
  C   C191      1.0  0.02699  0.39286  0.97089  1.0000
  H   H221      1.0  0.08737  0.43956  0.82340  1.0000
  H   H222      1.0  0.02076  0.44392  0.86668  1.0000
  S   S66       1.0  0.00412  0.19756  0.77275  1.0000
  H   H223      1.0  0.19134  0.44273  0.74388  1.0000
  H   H224      1.0  0.33955  0.99200  0.82313  1.0000
  N   N12       1.0  0.03025  0.26395  0.89550  1.0000
  H   H225      1.0  0.19161  0.45554  0.84086  1.0000
  H   H226      1.0  0.03681  0.27979  0.74351  1.0000
  N   N13       1.0  0.20805  0.42939  0.82198  1.0000
  H   H227      1.0  0.03230  0.32732  0.77374  1.0000
  H   H228      1.0  0.17494  0.45111  0.82247  1.0000
  H   H229      1.0  0.09754  0.37893  0.90972  1.0000
  H   H230      1.0  0.10666  0.44745  0.77173  1.0000
  C   C192      1.0  0.07846  0.47243  0.87888  1.0000
  C   C193      1.0  0.18197  0.47433  0.98300  1.0000
  C   C194      1.0  0.22544  0.47534  0.86149  1.0000
  H   H231      1.0  0.07297  0.25237  0.86807  1.0000
  H   H232      1.0  0.23021  0.43272  0.84303  1.0000
  C   C195      1.0  0.20933  0.41406  0.97690  1.0000
  H   H233      1.0  0.22327  0.42365  0.97662  1.0000
  S   S67       1.0  0.12001  0.47427  0.92896  1.0000
  S   S68       1.0  0.14282  0.45714  0.97996  1.0000
  H   H234      1.0  0.03749  0.25101  0.86546  1.0000
  C   C196      1.0  0.18173  0.37290  0.84631  1.0000
  C   C197      1.0  0.02818  0.26612  0.87252  1.0000
  H   H235      1.0  0.19430  0.38994  0.81411  1.0000
  H   H236      1.0  0.06929  0.42952  0.78890  1.0000
  C   C198      1.0  0.32262  0.47563  0.82194  1.0000
  C   C199      1.0  0.05343  0.41619  0.97868  1.0000
  H   H237      1.0  0.24320  0.41395  0.82446  1.0000
  H   H238      1.0  0.04079  0.41406  0.93035  1.0000
  H   H239      1.0  0.09525  0.45023  0.74827  1.0000
  C   C200      1.0  0.11155  0.40351  0.78497  1.0000
  H   H240      1.0  0.02961  0.41982  0.85329  1.0000
  H   H241      1.0  0.03336  0.10292  0.76908  1.0000
  C   C201      1.0  0.07139  0.45635  0.87005  1.0000
  C   C202      1.0  0.05057  0.27821  0.81397  1.0000
  C   C203      1.0  0.05447  0.25902  0.80414  1.0000
  C   C204      1.0  0.03692  0.25393  0.79527  1.0000
  C   C205      1.0  0.01531  0.26791  0.79645  1.0000
  H   H242      1.0  0.23993  0.44480  0.81492  1.0000
  C   C206      1.0  0.02898  0.29221  0.81506  1.0000
  H   H243      1.0  0.07115  0.24812  0.80326  1.0000
  H   H244      1.0  0.04013  0.23925  0.78750  1.0000
  N   N14       1.0  0.05294  0.44589  0.84286  1.0000
  H   H245      1.0  0.02582  0.30712  0.82246  1.0000
  H   H246      1.0  0.07143  0.37377  0.97135  1.0000
  H   H247      1.0  0.01210  0.45799  0.76685  1.0000
  C   C207      1.0  0.07435  0.25843  0.88214  1.0000
  S   S69       1.0  0.15731  0.46089  0.77738  1.0000
  C   C208      1.0  0.01134  0.28694  0.80651  1.0000
  H   H248      1.0  0.48367  0.39214  0.78900  1.0000
  C   C209      1.0  0.04250  0.11188  0.75365  1.0000
  C   C210      1.0  0.05571  0.33016  0.93300  1.0000
  C   C211      1.0  0.07980  0.33016  0.92520  1.0000
  C   C212      1.0  0.09456  0.32935  0.93960  1.0000
  C   C213      1.0  0.08528  0.32869  0.96183  1.0000
  C   C214      1.0  0.06115  0.32884  0.96962  1.0000
  C   C215      1.0  0.04643  0.32948  0.95524  1.0000
  H   H249      1.0  0.08710  0.33046  0.90814  1.0000
  H   H250      1.0  0.11319  0.32935  0.93345  1.0000
  H   H251      1.0  0.99643  0.30098  0.74529  1.0000
  H   H252      1.0  0.02780  0.32940  0.96137  1.0000
  C   C216      1.0  0.00373  0.31589  0.74752  1.0000
  H   H253      1.0  0.06473  0.37774  0.94490  1.0000
  H   H254      1.0  0.25888  0.45986  0.84599  1.0000
  H   H255      1.0  0.11811  0.26796  0.90365  1.0000
  C   C217      1.0  0.21038  0.40309  0.95986  1.0000
  H   H256      1.0  0.08472  0.39418  0.94900  1.0000
  H   H257      1.0  0.99476  0.35968  0.83180  1.0000
  C   C218      1.0  0.04311  0.29579  0.74453  1.0000
  Fe  Fe29      1.0  0.18341  0.45873  0.90035  1.0000
  H   H258      1.0  0.30057  0.46954  0.86923  1.0000
  H   H259      1.0  0.13756  0.36237  0.95771  1.0000
  H   H260      1.0  0.16861  0.35935  0.88018  1.0000
  C   C219      1.0  0.12974  0.39484  0.98062  1.0000
  H   H261      1.0  0.17681  0.35901  0.84089  1.0000
  C   C220      1.0  0.19230  0.40951  0.86036  1.0000
  C   C221      1.0  0.07425  0.42661  0.97402  1.0000
  C   C222      1.0  0.02299  0.45895  0.75071  1.0000
  H   H262      1.0  0.00581  0.23906  0.90719  1.0000
  C   C223      1.0  0.09703  0.25934  0.88444  1.0000
  H   H263      1.0  0.04465  0.27765  0.92827  1.0000
  H   H264      1.0  0.06690  0.40159  0.78461  1.0000
  Fe  Fe30      1.0  0.99896  0.23650  0.76351  1.0000
  H   H265      1.0  0.19453  0.42743  0.79430  1.0000
  H   H266      1.0  0.03528  0.28180  0.86200  1.0000
  H   H267      1.0  0.02844  0.37961  0.98607  1.0000
  H   H268      1.0  0.19594  0.42333  0.86662  1.0000
  C   C224      1.0  0.19730  0.40995  0.83762  1.0000
  H   H269      1.0  0.22354  0.41192  0.79530  1.0000
  H   H270      1.0  0.03432  0.14508  0.76299  1.0000
  C   C225      1.0  0.11541  0.40761  0.89078  1.0000
  C   C226      1.0  0.12751  0.41754  0.87021  1.0000
  C   C227      1.0  0.13081  0.40650  0.85261  1.0000
  C   C228      1.0  0.12223  0.38546  0.85579  1.0000
  C   C229      1.0  0.11046  0.37554  0.87642  1.0000
  C   C230      1.0  0.10686  0.38668  0.89384  1.0000
  H   H271      1.0  0.13390  0.43388  0.86774  1.0000
  H   H272      1.0  0.13975  0.41431  0.83658  1.0000
  H   H273      1.0  0.10408  0.35919  0.87894  1.0000
  C   C231      1.0  0.19166  0.39102  0.83100  1.0000
  C   C232      1.0  0.11002  0.37787  0.75317  1.0000
  C   C233      1.0  0.23134  0.43024  0.82627  1.0000
  C   C234      1.0  0.10054  0.26692  0.90210  1.0000
  C   C235      1.0  0.17194  0.39032  0.97709  1.0000
  N   N15       1.0  0.04829  0.40471  0.96266  1.0000
  H   H274      1.0  0.21944  0.44257  0.78749  1.0000
  H   H275      1.0  0.07513  0.43833  0.87735  1.0000
  H   H276      1.0  0.00973  0.26738  0.87079  1.0000
  C   C236      1.0  0.24601  0.47508  0.84551  1.0000
  C   C237      1.0  0.32043  0.99086  0.79892  1.0000
  H   H277      1.0  0.16853  0.35711  0.95418  1.0000
  C   C238      1.0  0.10270  0.40206  0.74971  1.0000
  C   C239      1.0  0.06006  0.46334  0.85199  1.0000
  H   H278      1.0  0.08742  0.46666  0.89244  1.0000
  H   H279      1.0  0.31563  0.46077  0.83408  1.0000
  H   H280      1.0  0.99539  0.28316  0.90054  1.0000
  C   C240      1.0  0.17702  0.37308  0.86849  1.0000
  C   C241      1.0  0.05865  0.27247  0.91557  1.0000
  N   N16       1.0  0.09886  0.41527  0.76721  1.0000
  C   C242      1.0  0.06812  0.38694  0.95673  1.0000
  H   H281      1.0  0.01091  0.40523  0.97436  1.0000
  H   H282      1.0  0.33925  0.46806  0.85807  1.0000
  H   H283      1.0  0.15419  0.38506  0.94258  1.0000
  H   H284      1.0  0.04305  0.29432  0.76201  1.0000
  H   H285      1.0  0.17814  0.39176  0.89272  1.0000
  H   H286      1.0  0.03612  0.44249  0.81755  1.0000
  C   C243      1.0  0.02383  0.24122  0.90803  1.0000
  H   H287      1.0  0.02454  0.23894  0.92554  1.0000
  C   C244      1.0  0.03621  0.43240  0.85990  1.0000
  C   C245      1.0  0.04142  0.45598  0.82399  1.0000
  H   H288      1.0  0.08221  0.41983  0.84908  1.0000
  C   C246      1.0  0.03723  0.34038  0.75941  1.0000
  S   S70       1.0  0.15421  0.46878  0.88188  1.0000
  H   H289      1.0  0.11045  0.41450  0.79693  1.0000
  H   H290      1.0  0.11364  0.36795  0.76860  1.0000
  C   C247      1.0  0.18435  0.46919  0.76277  1.0000
  H   H291      1.0  0.13052  0.39888  0.77842  1.0000
  C   C248      1.0  0.10683  0.43835  0.75850  1.0000
  H   H292      1.0  0.13107  0.41137  0.96848  1.0000
  Fe  Fe31      1.0  0.15172  0.46278  0.94369  1.0000
  H   H293      1.0  0.00979  0.27961  0.92240  1.0000
  H   H294      1.0  0.12507  0.43697  0.74878  1.0000
  C   C249      1.0  0.04351  0.36042  0.76260  1.0000
  H   H295      1.0  0.01384  0.41327  0.77630  1.0000
  H   H296      1.0  0.05333  0.46567  0.81016  1.0000
  H   H297      1.0  0.04353  0.36222  0.77894  1.0000
  H   H298      1.0  0.02415  0.38357  0.95885  1.0000
  H   H299      1.0  0.18988  0.47110  0.96689  1.0000
  H   H300      1.0  0.06305  0.42686  0.76398  1.0000
  H   H301      1.0  0.09691  0.44271  0.98611  1.0000
  H   H302      1.0  0.39428  0.47960  0.76868  1.0000
  C   C250      1.0  0.00388  0.39913  0.78427  1.0000
  C   C251      1.0  0.04297  0.13576  0.75022  1.0000
  H   H303      1.0  0.36147  0.47903  0.83629  1.0000
  C   C252      1.0  0.08055  0.43552  0.98973  1.0000
  H   H304      1.0  0.05206  0.39461  0.74766  1.0000
  C   C253      1.0  0.33656  0.98192  0.81238  1.0000
  H   H305      1.0  0.11449  0.38735  0.97914  1.0000
  C   C254      1.0  0.19778  0.45703  0.74712  1.0000
  H   H306      1.0  0.30387  0.98590  0.77496  1.0000
  C   C255      1.0  0.04850  0.37858  0.74503  1.0000
  C   C256      1.0  0.99333  0.36876  0.81546  1.0000
  H   H307      1.0  0.11980  0.04617  0.74889  1.0000
  H   H308      1.0  0.49175  0.99985  0.89936  1.0000
  S   S71       1.0  0.99323  0.26303  0.78462  1.0000
  S   S72       1.0  0.05379  0.06948  0.74255  1.0000
  H   H309      1.0  0.16962  0.52713  0.18379  1.0000
  C   C257      1.0  0.41635  0.89405  0.21159  1.0000
  H   H310      1.0  0.13528  0.50427  0.23669  1.0000
  H   H311      1.0  0.12844  0.67522  0.21276  1.0000
  S   S73       1.0  0.10455  0.75862  0.20692  1.0000
  C   C258      1.0  0.26020  0.52895  0.22330  1.0000
  Fe  Fe32      1.0  0.17039  0.63375  0.22071  1.0000
  S   S74       1.0  0.20772  0.61755  0.21579  1.0000
  H   H312      1.0  0.47212  0.88839  0.15044  1.0000
  Fe  Fe33      1.0  0.15542  0.59533  0.20585  1.0000
  S   S75       1.0  0.19170  0.57623  0.19988  1.0000
  S   S76       1.0  0.12791  0.57709  0.20056  1.0000
  H   H313      1.0  0.02657  0.93465  0.20263  1.0000
  C   C259      1.0  0.47980  0.83516  0.13698  1.0000
  Fe  Fe34      1.0  0.20203  0.61128  0.18474  1.0000
  S   S77       1.0  0.23050  0.61829  0.15523  1.0000
  C   C260      1.0  0.47448  0.81644  0.21740  1.0000
  S   S78       1.0  0.16566  0.63028  0.18802  1.0000
  H   H314      1.0  0.28051  0.49524  0.20130  1.0000
  S   S79       1.0  0.31672  0.67466  0.18077  1.0000
  C   C261      1.0  0.02555  0.87679  0.21950  1.0000
  S   S80       1.0  0.14200  0.51841  0.06933  1.0000
  S   S81       1.0  0.36324  0.64440  0.19997  1.0000
  H   H315      1.0  0.08523  0.84153  0.14767  1.0000
  Fe  Fe35      1.0  0.35275  0.68023  0.18207  1.0000
  S   S82       1.0  0.37536  0.70265  0.15581  1.0000
  Fe  Fe36      1.0  0.32608  0.63982  0.20126  1.0000
  S   S83       1.0  0.31680  0.60578  0.19988  1.0000
  H   H316      1.0  0.38607  0.91727  0.20360  1.0000
  H   H317      1.0  0.41940  0.58929  0.22737  1.0000
  H   H318      1.0  0.18300  0.84984  0.21891  1.0000
  S   S84       1.0  0.09461  0.87598  0.19287  1.0000
  S   S85       1.0  0.13630  0.49384  0.12130  1.0000
  H   H319      1.0  0.49127  0.91917  0.11811  1.0000
  H   H320      1.0  0.47356  0.59068  0.15690  1.0000
  C   C262      1.0  0.21480  0.85691  0.22544  1.0000
  Fe  Fe37      1.0  0.34100  0.83776  0.23450  1.0000
  Fe  Fe38      1.0  0.10854  0.84077  0.20957  1.0000
  S   S86       1.0  0.46621  0.76858  0.18646  1.0000
  H   H321      1.0  0.18270  0.77299  0.18325  1.0000
  S   S87       1.0  0.47956  0.66333  0.16337  1.0000
  S   S88       1.0  0.34119  0.69473  0.21218  1.0000
  S   S89       1.0  0.14995  0.56062  0.10407  1.0000
  C   C263      1.0  0.24414  0.52325  0.10681  1.0000
  H   H322      1.0  0.25272  0.69657  0.15511  1.0000
  C   C264      1.0  0.09998  0.51930  0.03266  1.0000
  H   H323      1.0  0.14833  0.74835  0.22183  1.0000
  H   H324      1.0  0.43069  0.74026  0.21403  1.0000
  H   H325      1.0  0.44128  0.64462  0.20210  1.0000
  C   C265      1.0  0.41372  0.85335  0.21598  1.0000
  Fe  Fe39      1.0  0.11394  0.78859  0.21718  1.0000
  H   H326      1.0  0.24115  0.72396  0.19780  1.0000
  Fe  Fe40      1.0  0.19383  0.58432  0.23144  1.0000
  S   S90       1.0  0.19930  0.49878  0.03016  1.0000
  C   C266      1.0  0.25275  0.50821  0.09238  1.0000
  S   S91       1.0  0.19342  0.80324  0.21104  1.0000
  H   H327      1.0  0.39070  0.68551  0.22249  1.0000
  H   H328      1.0  0.17672  0.48645  0.23548  1.0000
  Fe  Fe41      1.0  0.34783  0.65856  0.23011  1.0000
  H   H329      1.0  0.09986  0.52473  0.04759  1.0000
  H   H330      1.0  0.45830  0.61813  0.19692  1.0000
  H   H331      1.0  0.48644  0.84009  0.00711  1.0000
  C   C267      1.0  0.46668  0.80508  0.20438  1.0000
  C   C268      1.0  0.47524  0.78203  0.20383  1.0000
  H   H332      1.0  0.05552  0.85102  0.21538  1.0000
  H   H333      1.0  0.23235  0.49415  0.15663  1.0000
  H   H334      1.0  0.46806  0.83427  0.21753  1.0000
  H   H335      1.0  0.45416  0.81423  0.19462  1.0000
  H   H336      1.0  0.20174  0.59356  0.11951  1.0000
  H   H337      1.0  0.03861  0.88416  0.11599  1.0000
  C   C269      1.0  0.40461  0.69194  0.15669  1.0000
  C   C270      1.0  0.41984  0.70667  0.15783  1.0000
  C   C271      1.0  0.44294  0.69792  0.15980  1.0000
  C   C272      1.0  0.45104  0.67461  0.15989  1.0000
  C   C273      1.0  0.43596  0.66001  0.15816  1.0000
  C   C274      1.0  0.41259  0.66857  0.15703  1.0000
  H   H338      1.0  0.41366  0.72473  0.15764  1.0000
  H   H339      1.0  0.45440  0.70922  0.16132  1.0000
  H   H340      1.0  0.44226  0.64204  0.15794  1.0000
  H   H341      1.0  0.40086  0.65722  0.15597  1.0000
  S   S92       1.0  0.37585  0.83636  0.21144  1.0000
  H   H342      1.0  0.12405  0.51263  0.21214  1.0000
  H   H343      1.0  0.44302  0.86684  0.22075  1.0000
  C   C275      1.0  0.19451  0.48354  0.99435  1.0000
  C   C276      1.0  0.43493  0.59142  0.23331  1.0000
  C   C277      1.0  0.25601  0.61331  0.16576  1.0000
  C   C278      1.0  0.27350  0.62770  0.15695  1.0000
  C   C279      1.0  0.29230  0.62557  0.16740  1.0000
  C   C280      1.0  0.29380  0.60869  0.18631  1.0000
  C   C281      1.0  0.27664  0.59393  0.19469  1.0000
  C   C282      1.0  0.25770  0.59632  0.18452  1.0000
  H   H344      1.0  0.27216  0.64090  0.14247  1.0000
  H   H345      1.0  0.30574  0.63678  0.16072  1.0000
  S   S93       1.0  0.31158  0.65111  0.23306  1.0000
  H   H346      1.0  0.24419  0.58522  0.19143  1.0000
  C   C283      1.0  0.13289  0.57310  0.17364  1.0000
  C   C284      1.0  0.14513  0.58819  0.15656  1.0000
  C   C285      1.0  0.14918  0.58478  0.13514  1.0000
  C   C286      1.0  0.14236  0.56547  0.13085  1.0000
  C   C287      1.0  0.13019  0.55028  0.14793  1.0000
  C   C288      1.0  0.12488  0.55449  0.16921  1.0000
  H   H347      1.0  0.15091  0.60287  0.15977  1.0000
  H   H348      1.0  0.15775  0.59710  0.12191  1.0000
  H   H349      1.0  0.12440  0.53565  0.14465  1.0000
  H   H350      1.0  0.11482  0.54317  0.18228  1.0000
  C   C289      1.0  0.42301  0.77259  0.23498  1.0000
  C   C290      1.0  0.24653  0.82540  0.22607  1.0000
  H   H351      1.0  0.06152  0.90410  0.13354  1.0000
  H   H352      1.0  0.12113  0.54442  0.01286  1.0000
  S   S94       1.0  0.18849  0.50584  0.09214  1.0000
  C   C291      1.0  0.01731  0.90038  0.21590  1.0000
  H   H353      1.0  0.35409  0.80016  0.19452  1.0000
  H   H354      1.0  0.24099  0.65847  0.21055  1.0000
  C   C292      1.0  0.49046  0.80469  0.23030  1.0000
  H   H355      1.0  0.24567  0.51961  0.23393  1.0000
  C   C293      1.0  0.11857  0.71216  0.20881  1.0000
  C   C294      1.0  0.13273  0.69123  0.21476  1.0000
  C   C295      1.0  0.13996  0.51123  0.21892  1.0000
  C   C296      1.0  0.42604  0.87099  0.21648  1.0000
  H   H356      1.0  0.30193  0.54502  0.21047  1.0000
  H   H357      1.0  0.10341  0.71224  0.20215  1.0000
  C   C297      1.0  0.14341  0.73255  0.22043  1.0000
  H   H358      1.0  0.31894  0.51784  0.20601  1.0000
  H   H359      1.0  0.15180  0.51076  0.17596  1.0000
  Fe  Fe42      1.0  0.46912  0.90210  0.21573  1.0000
  H   H360      1.0  0.06023  0.79078  0.20269  1.0000
  H   H361      1.0  0.06873  0.92119  0.19052  1.0000
  N   N17       1.0  0.34346  0.77113  0.18647  1.0000
  C   C298      1.0  0.46384  0.64221  0.23561  1.0000
  C   C299      1.0  0.34210  0.75811  0.20921  1.0000
  C   C300      1.0  0.35407  0.75504  0.17145  1.0000
  C   C301      1.0  0.31954  0.78125  0.18319  1.0000
  C   C302      1.0  0.31179  0.80536  0.18025  1.0000
  C   C303      1.0  0.30285  0.76676  0.18374  1.0000
  C   C304      1.0  0.28887  0.81422  0.17775  1.0000
  C   C305      1.0  0.28011  0.77583  0.18093  1.0000
  C   C306      1.0  0.27313  0.79952  0.17792  1.0000
  H   H362      1.0  0.25644  0.53319  0.20659  1.0000
  C   C307      1.0  0.48434  0.58657  0.16910  1.0000
  S   S95       1.0  0.48723  0.70196  0.20011  1.0000
  C   C308      1.0  0.04923  0.85110  0.16416  1.0000
  H   H363      1.0  0.35961  0.74954  0.21219  1.0000
  H   H364      1.0  0.33063  0.74433  0.21321  1.0000
  H   H365      1.0  0.35386  0.76362  0.15417  1.0000
  H   H366      1.0  0.37257  0.74808  0.17255  1.0000
  H   H367      1.0  0.34492  0.73957  0.17510  1.0000
  H   H368      1.0  0.32295  0.81776  0.18008  1.0000
  H   H369      1.0  0.30704  0.74818  0.18687  1.0000
  H   H370      1.0  0.28314  0.83262  0.17595  1.0000
  H   H371      1.0  0.26766  0.76433  0.18169  1.0000
  H   H372      1.0  0.25532  0.80648  0.17618  1.0000
  N   N18       1.0  0.22984  0.68701  0.18614  1.0000
  C   C309      1.0  0.25362  0.68832  0.17233  1.0000
  C   C310      1.0  0.23216  0.67660  0.20895  1.0000
  C   C311      1.0  0.04940  0.86922  0.21300  1.0000
  C   C312      1.0  0.21662  0.71047  0.18506  1.0000
  C   C313      1.0  0.19530  0.71705  0.17734  1.0000
  C   C314      1.0  0.22508  0.72763  0.19186  1.0000
  C   C315      1.0  0.18344  0.73945  0.17651  1.0000
  H   H373      1.0  0.26413  0.69832  0.17809  1.0000
  C   C316      1.0  0.19217  0.75577  0.18353  1.0000
  H   H374      1.0  0.42151  0.83556  0.21945  1.0000
  H   H375      1.0  0.26385  0.67087  0.17237  1.0000
  C   C317      1.0  0.08805  0.50106  0.03365  1.0000
  H   H376      1.0  0.32123  0.52611  0.23838  1.0000
  H   H377      1.0  0.21969  0.76258  0.19670  1.0000
  C   C318      1.0  0.02382  0.88840  0.15708  1.0000
  H   H378      1.0  0.24274  0.68609  0.21515  1.0000
  H   H379      1.0  0.02707  0.85806  0.13129  1.0000
  N   N19       1.0  0.28356  0.51525  0.22408  1.0000
  H   H380      1.0  0.18716  0.70517  0.17219  1.0000
  Fe  Fe43      1.0  0.30600  0.68629  0.21264  1.0000
  S   S96       1.0  0.25586  0.86630  0.23159  1.0000
  H   H381      1.0  0.16698  0.74401  0.17096  1.0000
  H   H382      1.0  0.27754  0.58117  0.20948  1.0000
  H   H383      1.0  0.26271  0.49168  0.09761  1.0000
  C   C319      1.0  0.04202  0.86809  0.12820  1.0000
  C   C320      1.0  0.12368  0.73284  0.21200  1.0000
  C   C321      1.0  0.44107  0.84370  0.15992  1.0000
  H   H384      1.0  0.01342  0.86436  0.22717  1.0000
  H   H385      1.0  0.36099  0.79936  0.16580  1.0000
  H   H386      1.0  0.26993  0.48288  0.22902  1.0000
  Fe  Fe44      1.0  0.15443  0.81235  0.21784  1.0000
  H   H387      1.0  0.43905  0.76020  0.23721  1.0000
  H   H388      1.0  0.25882  0.54544  0.22873  1.0000
  H   H389      1.0  0.26432  0.81865  0.22763  1.0000
  Fe  Fe45      1.0  0.15197  0.52445  0.09891  1.0000
  C   C322      1.0  0.03544  0.82094  0.19546  1.0000
  H   H390      1.0  0.22056  0.59205  0.09356  1.0000
  C   C323      1.0  0.23786  0.84823  0.22761  1.0000
  N   N20       1.0  0.43831  0.61601  0.22966  1.0000
  S   S97       1.0  0.31336  0.81892  0.23077  1.0000
  C   C324      1.0  0.24806  0.51407  0.07144  1.0000
  H   H391      1.0  0.43371  0.87651  0.16963  1.0000
  H   H392      1.0  0.20806  0.87460  0.22662  1.0000
  C   C325      1.0  0.41225  0.71244  0.21674  1.0000
  H   H393      1.0  0.18561  0.51189  0.21693  1.0000
  H   H394      1.0  0.23222  0.57675  0.13757  1.0000
  H   H395      1.0  0.25327  0.57209  0.11343  1.0000
  H   H396      1.0  0.22890  0.65366  0.17966  1.0000
  S   S98       1.0  0.16805  0.66525  0.23471  1.0000
  C   C326      1.0  0.41528  0.73234  0.22285  1.0000
  S   S99       1.0  0.13145  0.84079  0.23265  1.0000
  H   H397      1.0  0.05787  0.85762  0.12053  1.0000
  H   H398      1.0  0.45233  0.81233  0.14896  1.0000
  C   C327      1.0  0.06499  0.88517  0.20249  1.0000
  H   H399      1.0  0.18234  0.50040  0.17583  1.0000
  H   H400      1.0  0.06948  0.88889  0.15869  1.0000
  H   H401      1.0  0.02193  0.90562  0.14604  1.0000
  H   H402      1.0  0.08131  0.87830  0.13410  1.0000
  C   C328      1.0  0.23913  0.56440  0.12637  1.0000
  H   H403      1.0  0.24724  0.54869  0.13630  1.0000
  H   H404      1.0  0.14395  0.52906  0.21726  1.0000
  H   H405      1.0  0.36355  0.88595  0.20404  1.0000
  C   C329      1.0  0.30113  0.52789  0.20714  1.0000
  C   C330      1.0  0.44135  0.62563  0.20595  1.0000
  S   S100      1.0  0.43241  0.91610  0.21108  1.0000
  C   C331      1.0  0.23474  0.53499  0.06487  1.0000
  C   C332      1.0  0.16621  0.50925  0.18477  1.0000
  C   C333      1.0  0.20057  0.84291  0.22120  1.0000
  C   C334      1.0  0.18420  0.48763  0.01532  1.0000
  C   C335      1.0  0.03294  0.91641  0.20574  1.0000
  H   H406      1.0  0.42418  0.83854  0.16864  1.0000
  C   C336      1.0  0.44644  0.86504  0.16067  1.0000
  H   H407      1.0  0.42464  0.78819  0.24070  1.0000
  H   H408      1.0  0.02171  0.81480  0.20893  1.0000
  C   C337      1.0  0.06518  0.88657  0.14355  1.0000
  C   C338      1.0  0.48455  0.85716  0.13797  1.0000
  H   H409      1.0  0.21501  0.56559  0.07327  1.0000
  H   H410      1.0  0.46737  0.55709  0.18751  1.0000
  H   H411      1.0  0.26712  0.76067  0.22649  1.0000
  C   C339      1.0  0.21297  0.74986  0.19119  1.0000
  H   H412      1.0  0.48117  0.83470  0.09521  1.0000
  C   C340      1.0  0.05710  0.80741  0.19203  1.0000
  C   C341      1.0  0.20847  0.58239  0.10724  1.0000
  H   H413      1.0  0.19410  0.55897  0.14641  1.0000
  C   C342      1.0  0.35967  0.78858  0.18255  1.0000
  C   C343      1.0  0.15718  0.71172  0.22679  1.0000
  C   C344      1.0  0.39372  0.89943  0.20724  1.0000
  S   S101      1.0  0.13355  0.81498  0.19237  1.0000
  N   N21       1.0  0.22044  0.55971  0.11677  1.0000
  H   H414      1.0  0.01423  0.85196  0.18545  1.0000
  C   C345      1.0  0.39116  0.85869  0.21156  1.0000
  C   C346      1.0  0.03139  0.84240  0.18173  1.0000
  H   H415      1.0  0.29691  0.53116  0.19065  1.0000
  H   H416      1.0  0.45019  0.58127  0.22458  1.0000
  H   H417      1.0  0.42704  0.62228  0.19903  1.0000
  C   C347      1.0  0.20304  0.54786  0.13448  1.0000
  H   H418      1.0  0.21114  0.53167  0.14377  1.0000
  H   H419      1.0  0.19296  0.58036  0.10122  1.0000
  H   H420      1.0  0.21466  0.67636  0.22004  1.0000
  C   C348      1.0  0.08818  0.49386  0.01462  1.0000
  H   H421      1.0  0.23923  0.79398  0.22003  1.0000
  C   C349      1.0  0.23044  0.54470  0.10072  1.0000
  H   H422      1.0  0.24788  0.51767  0.12297  1.0000
  C   C350      1.0  0.21854  0.67107  0.17863  1.0000
  C   C351      1.0  0.07482  0.81523  0.17483  1.0000
  H   H423      1.0  0.30077  0.48185  0.21878  1.0000
  H   H424      1.0  0.21703  0.67721  0.16126  1.0000
  H   H425      1.0  0.18928  0.54318  0.12773  1.0000
  C   C352      1.0  0.48076  0.56775  0.18631  1.0000
  C   C353      1.0  0.22589  0.55011  0.07924  1.0000
  N   N22       1.0  0.04505  0.87321  0.14867  1.0000
  H   H426      1.0  0.37774  0.78038  0.18419  1.0000
  C   C354      1.0  0.11229  0.53029  0.01268  1.0000
  H   H427      1.0  0.33473  0.76960  0.22108  1.0000
  C   C355      1.0  0.39296  0.70098  0.22723  1.0000
  C   C356      1.0  0.45750  0.82879  0.14845  1.0000
  C   C357      1.0  0.07098  0.83663  0.16097  1.0000
  C   C358      1.0  0.46816  0.87170  0.14983  1.0000
  S   S102      1.0  0.08683  0.81455  0.23236  1.0000
  H   H428      1.0  0.42501  0.70583  0.20380  1.0000
  H   H429      1.0  0.00740  0.88109  0.15866  1.0000
  C   C359      1.0  0.38101  0.88174  0.20746  1.0000
  C   C360      1.0  0.05674  0.90878  0.19881  1.0000
  S   S103      1.0  0.48989  0.87425  0.19866  1.0000
  Fe  Fe46      1.0  0.17746  0.49762  0.06411  1.0000
  C   C361      1.0  0.15174  0.69101  0.22422  1.0000
  H   H430      1.0  0.20084  0.66859  0.18888  1.0000
  C   C362      1.0  0.20958  0.82035  0.21884  1.0000
  C   C363      1.0  0.23239  0.81150  0.22166  1.0000
  H   H431      1.0  0.02453  0.89156  0.17324  1.0000
  H   H432      1.0  0.42317  0.77835  0.21720  1.0000
  H   H433      1.0  0.09163  0.80451  0.17225  1.0000
  H   H434      1.0  0.41650  0.64700  0.23785  1.0000
  C   C364      1.0  0.45861  0.61956  0.23762  1.0000
  N   N23       1.0  0.15993  0.49679  0.20772  1.0000
  H   H435      1.0  0.23051  0.53910  0.04878  1.0000
  C   C365      1.0  0.49058  0.76991  0.21737  1.0000
  H   H436      1.0  0.40082  0.62537  0.23565  1.0000
  H   H437      1.0  0.45359  0.65715  0.22776  1.0000
  S   S104      1.0  0.27636  0.71336  0.22134  1.0000
  C   C366      1.0  0.18035  0.49476  0.21793  1.0000
  C   C367      1.0  0.27898  0.75128  0.23691  1.0000
  H   H438      1.0  0.47399  0.79788  0.12013  1.0000
  C   C368      1.0  0.28566  0.72760  0.23801  1.0000
  H   H439      1.0  0.37973  0.78415  0.22563  1.0000
  H   H440      1.0  0.20833  0.48596  0.13290  1.0000
  C   C369      1.0  0.11337  0.52297  0.99301  1.0000
  H   H441      1.0  0.17216  0.71173  0.23367  1.0000
  C   C370      1.0  0.28372  0.49290  0.21808  1.0000
  S   S105      1.0  0.15667  0.60062  0.23903  1.0000
  H   H442      1.0  0.25425  0.50216  0.06043  1.0000
  C   C371      1.0  0.41652  0.62805  0.24099  1.0000
  H   H443      1.0  0.15319  0.48627  0.04050  1.0000
  H   H444      1.0  0.08540  0.89935  0.23153  1.0000
  C   C372      1.0  0.39887  0.74134  0.23984  1.0000
  H   H445      1.0  0.19573  0.48399  0.20997  1.0000
  Fe  Fe47      1.0  0.13010  0.48565  0.09089  1.0000
  H   H446      1.0  0.07890  0.49234  0.04926  1.0000
  C   C373      1.0  0.49044  0.79728  0.12582  1.0000
  H   H447      1.0  0.48850  0.78782  0.14308  1.0000
  C   C374      1.0  0.16148  0.48268  0.02467  1.0000
  H   H448      1.0  0.49119  0.54821  0.21569  1.0000
  H   H449      1.0  0.29108  0.58903  0.24154  1.0000
  Fe  Fe48      1.0  0.49169  0.73737  0.18042  1.0000
  S   S106      1.0  0.13643  0.78430  0.24166  1.0000
  C   C375      1.0  0.10064  0.50452  0.99456  1.0000
  H   H450      1.0  0.48627  0.66343  0.24196  1.0000
  H   H451      1.0  0.44657  0.48924  0.31204  1.0000
  C   C376      1.0  0.30794  0.51804  0.25099  1.0000
  H   H452      1.0  0.09335  0.91843  0.24543  1.0000
  S   S107      1.0  0.10033  0.81055  0.29037  1.0000
  H   H453      1.0  0.38316  0.79659  0.24707  1.0000
  C   C377      1.0  0.17685  0.49469  0.27880  1.0000
  S   S108      1.0  0.28392  0.82995  0.27859  1.0000
  H   H454      1.0  0.25761  0.49348  0.26216  1.0000
  C   C378      1.0  0.06927  0.86882  0.26774  1.0000
  S   S109      1.0  0.34122  0.82013  0.26910  1.0000
  H   H455      1.0  0.26674  0.89236  0.28521  1.0000
  Fe  Fe49      1.0  0.31190  0.80316  0.26607  1.0000
  S   S110      1.0  0.31487  0.76482  0.27775  1.0000
  Fe  Fe50      1.0  0.31356  0.84868  0.27805  1.0000
  S   S111      1.0  0.31730  0.86748  0.30298  1.0000
  C   C379      1.0  0.37354  0.88041  0.30422  1.0000
  C   C380      1.0  0.26200  0.56611  0.27497  1.0000
  S   S112      1.0  0.40341  0.52080  0.30652  1.0000
  Fe  Fe51      1.0  0.36683  0.52613  0.30072  1.0000
  S   S113      1.0  0.33993  0.55305  0.31426  1.0000
  C   C381      1.0  0.25686  0.64988  0.27031  1.0000
  C   C382      1.0  0.28795  0.76291  0.24902  1.0000
  C   C383      1.0  0.48244  0.64603  0.24367  1.0000
  C   C384      1.0  0.45297  0.48139  0.32681  1.0000
  H   H456      1.0  0.40615  0.90336  0.25544  1.0000
  Fe  Fe52      1.0  0.17479  0.85641  0.34537  1.0000
  S   S114      1.0  0.18440  0.89201  0.33885  1.0000
  S   S115      1.0  0.18531  0.83865  0.31701  1.0000
  Fe  Fe53      1.0  0.15325  0.85681  0.39258  1.0000
  S   S116      1.0  0.16141  0.89230  0.39031  1.0000
  Fe  Fe54      1.0  0.14900  0.90074  0.35882  1.0000
  S   S117      1.0  0.12433  0.93276  0.34997  1.0000
  Fe  Fe55      1.0  0.19602  0.88033  0.37067  1.0000
  S   S118      1.0  0.22874  0.89087  0.37477  1.0000
  S   S119      1.0  0.13806  0.86614  0.36246  1.0000
  S   S120      1.0  0.18924  0.84375  0.37587  1.0000
  H   H457      1.0  0.06261  0.86669  0.25365  1.0000
  H   H458      1.0  0.10100  0.90222  0.33700  1.0000
  C   C385      1.0  0.14065  0.71189  0.28161  1.0000
  C   C386      1.0  0.34609  0.58031  0.29920  1.0000
  C   C387      1.0  0.34970  0.58499  0.27643  1.0000
  C   C388      1.0  0.35425  0.60697  0.26448  1.0000
  H   H459      1.0  0.01860  0.92094  0.39458  1.0000
  C   C389      1.0  0.34725  0.59754  0.31001  1.0000
  C   C390      1.0  0.19780  0.53532  0.26601  1.0000
  H   H460      1.0  0.23021  0.59821  0.26403  1.0000
  H   H461      1.0  0.34439  0.59396  0.32762  1.0000
  C   C391      1.0  0.44600  0.85037  0.29652  1.0000
  H   H462      1.0  0.46789  0.82124  0.28532  1.0000
  C   C392      1.0  0.22451  0.91726  0.25657  1.0000
  C   C393      1.0  0.07701  0.85475  0.36972  1.0000
  H   H463      1.0  0.19711  0.95709  0.33985  1.0000
  C   C394      1.0  0.41527  0.84467  0.27187  1.0000
  H   H464      1.0  0.25788  0.56777  0.25866  1.0000
  C   C395      1.0  0.09032  0.90035  0.24688  1.0000
  H   H465      1.0  0.05135  0.92294  0.29568  1.0000
  H   H466      1.0  0.18918  0.93334  0.28508  1.0000
  H   H467      1.0  0.20511  0.88578  0.29025  1.0000
  C   C396      1.0  0.12062  0.93083  0.43192  1.0000
  H   H468      1.0  0.28649  0.62635  0.27797  1.0000
  H   H469      1.0  0.13491  0.92357  0.42066  1.0000
  H   H470      1.0  0.22753  0.93562  0.25069  1.0000
  C   C397      1.0  0.04722  0.88014  0.38875  1.0000
  H   H471      1.0  0.05068  0.92627  0.25991  1.0000
  N   N24       1.0  0.40139  0.76234  0.24683  1.0000
  H   H472      1.0  0.14981  0.88840  0.43940  1.0000
  C   C398      1.0  0.47245  0.48882  0.33064  1.0000
  H   H473      1.0  0.39904  0.54662  0.34634  1.0000
  C   C399      1.0  0.30310  0.75070  0.26271  1.0000
  C   C400      1.0  0.30904  0.72687  0.26446  1.0000
  H   H474      1.0  0.07309  0.74653  0.26210  1.0000
  H   H475      1.0  0.32055  0.71731  0.27522  1.0000
  C   C401      1.0  0.29255  0.87270  0.32330  1.0000
  C   C402      1.0  0.29372  0.88665  0.33746  1.0000
  C   C403      1.0  0.27416  0.89181  0.35344  1.0000
  C   C404      1.0  0.25326  0.88312  0.35532  1.0000
  C   C405      1.0  0.25203  0.86900  0.34129  1.0000
  C   C406      1.0  0.27174  0.86370  0.32533  1.0000
  H   H476      1.0  0.30975  0.89361  0.33604  1.0000
  H   H477      1.0  0.27516  0.90270  0.36428  1.0000
  H   H478      1.0  0.23593  0.86213  0.34280  1.0000
  H   H479      1.0  0.27076  0.85269  0.31468  1.0000
  C   C407      1.0  0.16155  0.83019  0.31044  1.0000
  C   C408      1.0  0.14076  0.82676  0.32581  1.0000
  C   C409      1.0  0.12189  0.82031  0.31990  1.0000
  C   C410      1.0  0.12413  0.81670  0.29880  1.0000
  C   C411      1.0  0.14539  0.81883  0.28397  1.0000
  C   C412      1.0  0.16379  0.82618  0.28954  1.0000
  H   H480      1.0  0.13924  0.82894  0.34224  1.0000
  H   H481      1.0  0.10564  0.81817  0.33160  1.0000
  C   C413      1.0  0.10749  0.88461  0.31039  1.0000
  H   H482      1.0  0.21563  0.72398  0.24386  1.0000
  H   H483      1.0  0.02156  0.93177  0.48049  1.0000
  H   H484      1.0  0.10227  0.68983  0.28285  1.0000
  H   H485      1.0  0.17718  0.70138  0.28233  1.0000
  H   H486      1.0  0.29451  0.59123  0.29747  1.0000
  H   H487      1.0  0.11022  0.86967  0.28302  1.0000
  H   H488      1.0  0.14915  0.51444  0.26328  1.0000
  H   H489      1.0  0.44803  0.55552  0.34583  1.0000
  C   C414      1.0  0.47571  0.55076  0.29164  1.0000
  H   H490      1.0  0.14781  0.81487  0.26811  1.0000
  H   H491      1.0  0.04586  0.96227  0.38500  1.0000
  C   C415      1.0  0.14336  0.82766  0.48467  1.0000
  H   H492      1.0  0.44010  0.53505  0.33327  1.0000
  H   H493      1.0  0.22437  0.51627  0.28339  1.0000
  H   H494      1.0  0.04421  0.90484  0.24815  1.0000
  C   C416      1.0  0.04334  0.87358  0.35417  1.0000
  C   C417      1.0  0.09885  0.93143  0.37037  1.0000
  H   H495      1.0  0.10993  0.70758  0.25606  1.0000
  H   H496      1.0  0.05656  0.90811  0.46533  1.0000
  C   C418      1.0  0.29588  0.50270  0.28961  1.0000
  C   C419      1.0  0.06445  0.85871  0.35317  1.0000
  C   C420      1.0  0.40315  0.54906  0.36163  1.0000
  C   C421      1.0  0.29591  0.58505  0.25780  1.0000
  C   C422      1.0  0.09866  0.93494  0.46787  1.0000
  H   H497      1.0  0.44104  0.81630  0.26328  1.0000
  C   C423      1.0  0.12342  0.74679  0.29495  1.0000
  C   C424      1.0  0.12494  0.76970  0.48541  1.0000
  H   H498      1.0  0.14038  0.69731  0.27461  1.0000
  C   C425      1.0  0.14496  0.74885  0.29910  1.0000
  C   C426      1.0  0.27268  0.49969  0.26440  1.0000
  H   H499      1.0  0.06537  0.92643  0.32704  1.0000
  H   H500      1.0  0.24533  0.56561  0.28735  1.0000
  H   H501      1.0  0.44760  0.53967  0.44161  1.0000
  H   H502      1.0  0.07834  0.86235  0.40029  1.0000
  C   C427      1.0  0.06697  0.91170  0.29918  1.0000
  H   H503      1.0  0.46017  0.52593  0.35112  1.0000
  H   H504      1.0  0.05688  0.86220  0.28293  1.0000
  C   C428      1.0  0.10378  0.94699  0.42272  1.0000
  H   H505      1.0  0.42212  0.87941  0.30435  1.0000
  H   H506      1.0  0.48079  0.50250  0.31888  1.0000
  Fe  Fe56      1.0  0.41395  0.51801  0.27143  1.0000
  H   H507      1.0  0.02424  0.96185  0.33343  1.0000
  C   C429      1.0  0.40190  0.75685  0.27042  1.0000
  H   H508      1.0  0.07129  0.85040  0.33933  1.0000
  C   C430      1.0  0.45151  0.83262  0.28499  1.0000
  H   H509      1.0  0.40412  0.90959  0.28165  1.0000
  H   H510      1.0  0.19814  0.83821  0.45736  1.0000
  C   C431      1.0  0.03416  0.88495  0.37199  1.0000
  C   C432      1.0  0.04826  0.90311  0.48235  1.0000
  C   C433      1.0  0.11856  0.92429  0.45491  1.0000
  N   N25       1.0  0.13596  0.90718  0.46534  1.0000
  C   C434      1.0  0.08185  0.95096  0.45847  1.0000
  C   C435      1.0  0.16210  0.71403  0.28596  1.0000
  C   C436      1.0  0.12055  0.72826  0.28605  1.0000
  H   H511      1.0  0.20569  0.91602  0.25813  1.0000
  C   C437      1.0  0.23505  0.65299  0.26467  1.0000
  S   S121      1.0  0.37764  0.52680  0.26490  1.0000
  C   C438      1.0  0.20458  0.94779  0.32681  1.0000
  C   C439      1.0  0.08960  0.74774  0.26693  1.0000
  C   C440      1.0  0.19142  0.94709  0.31175  1.0000
  C   C441      1.0  0.06039  0.94879  0.38621  1.0000
  H   H512      1.0  0.26613  0.92036  0.26717  1.0000
  H   H513      1.0  0.25365  0.91341  0.30988  1.0000
  H   H514      1.0  0.06668  0.95864  0.46876  1.0000
  S   S122      1.0  0.36212  0.65136  0.26044  1.0000
  H   H515      1.0  0.23107  0.87238  0.27487  1.0000
  C   C442      1.0  0.37929  0.72934  0.25002  1.0000
  C   C443      1.0  0.44283  0.53870  0.42661  1.0000
  C   C444      1.0  0.43034  0.53556  0.38753  1.0000
  C   C445      1.0  0.41742  0.55162  0.40041  1.0000
  C   C446      1.0  0.44985  0.52132  0.39507  1.0000
  C   C447      1.0  0.37651  0.70944  0.24381  1.0000
  C   C448      1.0  0.16565  0.77467  0.47217  1.0000
  S   S123      1.0  0.31602  0.86819  0.24356  1.0000
  H   H516      1.0  0.06254  0.72202  0.30048  1.0000
  C   C449      1.0  0.42369  0.55307  0.41965  1.0000
  H   H517      1.0  0.18086  0.73392  0.29816  1.0000
  C   C450      1.0  0.14585  0.91792  0.47912  1.0000
  H   H518      1.0  0.40430  0.84154  0.26197  1.0000
  H   H519      1.0  0.08609  0.85719  0.26760  1.0000
  C   C451      1.0  0.28215  0.57970  0.29672  1.0000
  C   C452      1.0  0.09502  0.90045  0.32291  1.0000
  C   C453      1.0  0.08436  0.95692  0.43592  1.0000
  C   C454      1.0  0.13279  0.83010  0.46685  1.0000
  H   H520      1.0  0.26567  0.89469  0.25777  1.0000
  H   H521      1.0  0.35645  0.88754  0.26853  1.0000
  H   H522      1.0  0.35683  0.89228  0.30375  1.0000
  C   C455      1.0  0.22457  0.88436  0.28641  1.0000
  C   C456      1.0  0.39450  0.90331  0.27178  1.0000
  C   C457      1.0  0.30047  0.71537  0.25201  1.0000
  C   C458      1.0  0.20810  0.51582  0.27878  1.0000
  H   H523      1.0  0.08042  0.96265  0.35469  1.0000
  C   C459      1.0  0.17634  0.53492  0.26069  1.0000
  Fe  Fe57      1.0  0.40042  0.48314  0.31254  1.0000
  H   H524      1.0  0.19258  0.76245  0.24380  1.0000
  N   N26       1.0  0.09742  0.72651  0.28196  1.0000
  C   C460      1.0  0.17989  0.83593  0.46006  1.0000
  C   C461      1.0  0.37254  0.87478  0.26896  1.0000
  S   S124      1.0  0.47563  0.88432  0.24897  1.0000
  H   H525      1.0  0.12334  0.87431  0.31468  1.0000
  N   N27       1.0  0.42401  0.53310  0.36733  1.0000
  H   H526      1.0  0.08574  0.70873  0.31484  1.0000
  H   H527      1.0  0.10901  0.76001  0.29863  1.0000
  H   H528      1.0  0.35387  0.63248  0.30639  1.0000
  C   C462      1.0  0.15587  0.89784  0.44957  1.0000
  C   C463      1.0  0.28819  0.51113  0.24639  1.0000
  C   C464      1.0  0.22581  0.63408  0.26264  1.0000
  C   C465      1.0  0.16561  0.51475  0.26752  1.0000
  S   S125      1.0  0.36242  0.48865  0.31034  1.0000
  C   C466      1.0  0.46535  0.53434  0.26474  1.0000
  C   C467      1.0  0.26057  0.60812  0.27219  1.0000
  C   C468      1.0  0.23834  0.61197  0.26620  1.0000
  H   H529      1.0  0.08004  0.70594  0.26873  1.0000
  C   C469      1.0  0.09750  0.70657  0.27204  1.0000
  C   C470      1.0  0.44386  0.53762  0.34864  1.0000
  C   C471      1.0  0.06842  0.86544  0.38746  1.0000
  H   H530      1.0  0.17971  0.82890  0.27753  1.0000
  C   C472      1.0  0.40923  0.86319  0.28324  1.0000
  H   H531      1.0  0.26679  0.58103  0.31036  1.0000
  H   H532      1.0  0.38166  0.87534  0.25176  1.0000
  C   C473      1.0  0.07820  0.91314  0.40573  1.0000
  H   H533      1.0  0.44059  0.55367  0.28638  1.0000
  H   H534      1.0  0.38721  0.54599  0.37457  1.0000
  C   C474      1.0  0.16422  0.73238  0.29480  1.0000
  S   S126      1.0  0.21248  0.55964  0.25572  1.0000
  H   H535      1.0  0.10783  0.76973  0.48212  1.0000
  S   S127      1.0  0.44517  0.53279  0.24936  1.0000
  C   C475      1.0  0.41881  0.50928  0.36992  1.0000
  H   H536      1.0  0.47082  0.51183  0.41982  1.0000
  S   S128      1.0  0.03620  0.93116  0.42715  1.0000
  N   N28       1.0  0.22810  0.77777  0.29557  1.0000
  C   C476      1.0  0.23228  0.80110  0.28256  1.0000
  C   C477      1.0  0.20656  0.77990  0.31254  1.0000
  C   C478      1.0  0.24807  0.76882  0.30682  1.0000
  C   C479      1.0  0.22504  0.76280  0.28144  1.0000
  C   C480      1.0  0.23738  0.74021  0.28163  1.0000
  C   C481      1.0  0.20840  0.77019  0.26772  1.0000
  C   C482      1.0  0.23366  0.72633  0.26845  1.0000
  H   H537      1.0  0.02977  0.93042  0.36604  1.0000
  H   H538      1.0  0.47173  0.58321  0.24896  1.0000
  H   H539      1.0  0.21754  0.81022  0.27471  1.0000
  H   H540      1.0  0.23462  0.81269  0.29285  1.0000
  H   H541      1.0  0.24818  0.80015  0.26943  1.0000
  H   H542      1.0  0.19097  0.78752  0.30534  1.0000
  H   H543      1.0  0.20788  0.79126  0.32347  1.0000
  H   H544      1.0  0.20295  0.76280  0.32288  1.0000
  H   H545      1.0  0.26479  0.76629  0.29492  1.0000
  H   H546      1.0  0.25058  0.78103  0.31642  1.0000
  H   H547      1.0  0.24541  0.75225  0.31857  1.0000
  H   H548      1.0  0.25052  0.73306  0.29134  1.0000
  H   H549      1.0  0.19779  0.78685  0.26702  1.0000
  H   H550      1.0  0.24388  0.70951  0.26826  1.0000
  C   C483      1.0  0.04950  0.90749  0.26277  1.0000
  C   C484      1.0  0.27652  0.49553  0.28564  1.0000
  N   N29       1.0  0.23286  0.90716  0.27728  1.0000
  C   C485      1.0  0.21785  0.73447  0.25460  1.0000
  C   C486      1.0  0.20067  0.93424  0.29548  1.0000
  S   S129      1.0  0.00278  0.94858  0.30354  1.0000
  C   C487      1.0  0.22368  0.92198  0.29359  1.0000
  H   H551      1.0  0.99899  0.93569  0.37766  1.0000
  H   H552      1.0  0.17931  0.84291  0.42578  1.0000
  H   H553      1.0  0.38517  0.75142  0.28078  1.0000
  H   H554      1.0  0.11699  0.87866  0.46946  1.0000
  C   C488      1.0  0.09770  0.91326  0.38853  1.0000
  C   C489      1.0  0.45866  0.54647  0.28174  1.0000
  H   H555      1.0  0.03489  0.90313  0.27685  1.0000
  H   H556      1.0  0.26473  0.48607  0.29896  1.0000
  H   H557      1.0  0.41618  0.74265  0.27405  1.0000
  N   N30       1.0  0.38779  0.88000  0.28200  1.0000
  H   H558      1.0  0.32702  0.51873  0.27545  1.0000
  H   H559      1.0  0.08640  0.76341  0.27405  1.0000
  C   C490      1.0  0.35266  0.61926  0.29803  1.0000
  H   H560      1.0  0.41371  0.62166  0.25898  1.0000
  H   H561      1.0  0.46053  0.50862  0.38624  1.0000
  C   C491      1.0  0.07990  0.94890  0.36896  1.0000
  H   H562      1.0  0.40424  0.50502  0.38403  1.0000
  H   H563      1.0  0.30535  0.69697  0.25331  1.0000
  N   N31       1.0  0.07202  0.89322  0.26630  1.0000
  C   C492      1.0  0.22702  0.93572  0.32562  1.0000
  H   H564      1.0  0.10546  0.95138  0.40519  1.0000
  C   C493      1.0  0.16687  0.83079  0.48135  1.0000
  Fe  Fe58      1.0  0.11153  0.81268  0.25431  1.0000
  C   C494      1.0  0.43625  0.82983  0.27264  1.0000
  H   H565      1.0  0.16812  0.55001  0.25105  1.0000
  H   H566      1.0  0.35673  0.61060  0.24690  1.0000
  H   H567      1.0  0.34859  0.57178  0.26803  1.0000
  H   H568      1.0  0.40597  0.56742  0.35876  1.0000
  H   H569      1.0  0.11202  0.89950  0.38970  1.0000
  S   S130      1.0  0.13198  0.83898  0.42358  1.0000
  H   H570      1.0  0.37896  0.91636  0.26944  1.0000
  C   C495      1.0  0.35601  0.62402  0.27529  1.0000
  H   H571      1.0  0.16865  0.88517  0.45800  1.0000
  H   H572      1.0  0.36587  0.73527  0.26286  1.0000
  N   N32       1.0  0.27472  0.58509  0.27541  1.0000
  H   H573      1.0  0.36148  0.70047  0.25195  1.0000
  H   H574      1.0  0.16583  0.91168  0.43869  1.0000
  H   H575      1.0  0.14666  0.76341  0.30561  1.0000
  H   H576      1.0  0.40233  0.56315  0.39609  1.0000
  C   C496      1.0  0.45590  0.52292  0.41431  1.0000
  C   C497      1.0  0.09978  0.88211  0.29228  1.0000
  H   H577      1.0  0.48786  0.55638  0.40156  1.0000
  H   H578      1.0  0.40483  0.77206  0.27602  1.0000
  H   H579      1.0  0.22537  0.67009  0.26166  1.0000
  H   H580      1.0  0.45821  0.85275  0.30573  1.0000
  H   H581      1.0  0.15961  0.90577  0.48666  1.0000
  C   C498      1.0  0.05976  0.93117  0.40482  1.0000
  H   H582      1.0  0.07775  0.89935  0.42000  1.0000
  H   H583      1.0  0.20885  0.63653  0.25812  1.0000
  C   C499      1.0  0.07484  0.91398  0.31732  1.0000
  C   C500      1.0  0.16923  0.83866  0.44218  1.0000
  C   C501      1.0  0.25891  0.90364  0.27169  1.0000
  C   C502      1.0  0.42527  0.86554  0.29561  1.0000
  H   H584      1.0  0.23687  0.93550  0.33792  1.0000
  C   C503      1.0  0.31155  0.51390  0.27234  1.0000
  H   H585      1.0  0.11464  0.82751  0.46953  1.0000
  C   C504      1.0  0.47372  0.60101  0.24742  1.0000
  C   C505      1.0  0.07927  0.89560  0.28607  1.0000
  H   H586      1.0  0.04117  0.88776  0.40303  1.0000
  C   C506      1.0  0.14566  0.83570  0.44561  1.0000
  H   H587      1.0  0.36868  0.86298  0.31259  1.0000
  C   C507      1.0  0.26943  0.62781  0.27409  1.0000
  C   C508      1.0  0.38122  0.78014  0.24304  1.0000
  Fe  Fe59      1.0  0.01222  0.96458  0.42683  1.0000
  H   H588      1.0  0.47081  0.56123  0.30390  1.0000
  H   H589      1.0  0.27250  0.54894  0.27845  1.0000
  H   H590      1.0  0.09346  0.84337  0.36880  1.0000
  H   H591      1.0  0.10304  0.75086  0.25170  1.0000
  H   H592      1.0  0.36646  0.85762  0.27599  1.0000
  H   H593      1.0  0.15379  0.93353  0.46941  1.0000
  C   C509      1.0  0.08003  0.72407  0.30282  1.0000
  H   H594      1.0  0.38272  0.88626  0.31470  1.0000
  H   H595      1.0  0.29176  0.56195  0.30005  1.0000
  H   H596      1.0  0.03468  0.87596  0.34069  1.0000
  H   H597      1.0  0.26432  0.66466  0.27140  1.0000
  H   H598      1.0  0.23055  0.87597  0.30188  1.0000
  H   H599      1.0  0.41355  0.56530  0.42935  1.0000
  C   C510      1.0  0.12442  0.88735  0.47929  1.0000
  H   H600      1.0  0.41383  0.50660  0.35514  1.0000
  H   H601      1.0  0.13697  0.87431  0.48762  1.0000
  H   H602      1.0  0.18003  0.77891  0.45860  1.0000
  C   C511      1.0  0.19777  0.49542  0.28496  1.0000
  H   H603      1.0  0.30715  0.56806  0.25945  1.0000
  C   C512      1.0  0.23650  0.92296  0.30935  1.0000
  C   C513      1.0  0.00595  0.96894  0.33624  1.0000
  C   C514      1.0  0.20509  0.75626  0.25441  1.0000
  H   H604      1.0  0.17358  0.95573  0.31330  1.0000
  H   H605      1.0  0.29917  0.49890  0.30602  1.0000
  H   H606      1.0  0.23363  0.90794  0.24330  1.0000
  H   H607      1.0  0.43410  0.49623  0.37271  1.0000
  H   H608      1.0  0.30706  0.59815  0.25759  1.0000
  H   H609      1.0  0.14127  0.77755  0.45141  1.0000
  H   H610      1.0  0.07106  0.96900  0.42865  1.0000
  H   H611      1.0  0.07740  0.73939  0.31039  1.0000
  C   C515      1.0  0.02816  0.91656  0.49122  1.0000
  H   H612      1.0  0.28304  0.78125  0.24782  1.0000
  H   H613      1.0  0.10738  0.88918  0.24737  1.0000
  Fe  Fe60      1.0  0.28809  0.84755  0.24338  1.0000
  H   H614      1.0  0.12815  0.97730  0.36974  1.0000
  H   H615      1.0  0.36429  0.77483  0.25308  1.0000
  C   C516      1.0  0.14378  0.77397  0.46808  1.0000
  C   C517      1.0  0.48874  0.52516  0.25873  1.0000
  Fe  Fe61      1.0  0.37602  0.48870  0.27476  1.0000
  C   C518      1.0  0.01499  0.92280  0.37812  1.0000
  H   H616      1.0  0.09582  0.93086  0.48544  1.0000
  H   H617      1.0  0.43195  0.58321  0.25095  1.0000
  C   C519      1.0  0.00179  0.90599  0.35375  1.0000
  H   H618      1.0  0.01446  0.91373  0.33929  1.0000
  H   H619      1.0  0.07317  0.87284  0.48834  1.0000
  N   N33       1.0  0.01172  0.90057  0.37377  1.0000
  S   S131      1.0  0.00340  0.98061  0.45630  1.0000
  H   H620      1.0  0.99987  0.88665  0.40799  1.0000
  C   C520      1.0  0.99427  0.88969  0.39211  1.0000
  H   H621      1.0  0.99668  0.89047  0.35043  1.0000
  C   C521      1.0  0.49208  0.60506  0.25567  1.0000
  S   S132      1.0  0.00699  0.95895  0.24243  1.0000
  C   C522      1.0  0.03004  0.90624  0.58267  1.0000
  Fe  Fe62      1.0  0.15584  0.84254  0.53125  1.0000
  S   S133      1.0  0.11710  0.84683  0.53407  1.0000
  C   C523      1.0  0.16883  0.77112  0.49359  1.0000
  Fe  Fe63      1.0  0.15129  0.86186  0.57160  1.0000
  S   S134      1.0  0.11230  0.86690  0.57824  1.0000
  S   S135      1.0  0.16961  0.87576  0.59124  1.0000
  Fe  Fe64      1.0  0.11625  0.83236  0.56948  1.0000
  S   S136      1.0  0.09100  0.80658  0.58376  1.0000
  Fe  Fe65      1.0  0.11729  0.88069  0.54224  1.0000
  S   S137      1.0  0.15529  0.82564  0.56635  1.0000
  S   S138      1.0  0.15614  0.87812  0.53606  1.0000
  S   S139      1.0  0.23734  0.83117  0.67130  1.0000
  Fe  Fe66      1.0  0.15629  0.70589  0.64911  1.0000
  S   S140      1.0  0.14148  0.70956  0.68351  1.0000
  S   S141      1.0  0.13137  0.70700  0.62747  1.0000
  Fe  Fe67      1.0  0.20586  0.69482  0.65654  1.0000
  S   S142      1.0  0.19513  0.69722  0.69196  1.0000
  S   S143      1.0  0.24211  0.68637  0.63740  1.0000
  Fe  Fe68      1.0  0.16600  0.67765  0.69247  1.0000
  S   S144      1.0  0.15225  0.65034  0.72099  1.0000
  Fe  Fe69      1.0  0.17172  0.72879  0.67965  1.0000
  S   S145      1.0  0.16250  0.76197  0.69176  1.0000
  S   S146      1.0  0.17869  0.67258  0.65817  1.0000
  S   S147      1.0  0.18450  0.72800  0.64417  1.0000
  H   H622      1.0  0.06509  0.93485  0.70271  1.0000
  C   C524      1.0  0.08455  0.82503  0.63536  1.0000
  S   S148      1.0  0.13403  0.55602  0.70451  1.0000
  S   S149      1.0  0.27420  0.72618  0.72716  1.0000
  Fe  Fe70      1.0  0.30978  0.71378  0.70930  1.0000
  S   S150      1.0  0.32085  0.71428  0.67343  1.0000
  Fe  Fe71      1.0  0.20401  0.88358  0.72282  1.0000
  C   C525      1.0  0.39079  0.73914  0.71734  1.0000
  S   S151      1.0  0.99597  0.96372  0.62079  1.0000
  S   S152      1.0  0.25501  0.48980  0.72442  1.0000
  C   C526      1.0  0.44654  0.60456  0.66063  1.0000
  H   H623      1.0  0.09550  0.77829  0.64916  1.0000
  C   C527      1.0  0.39742  0.66374  0.70717  1.0000
  C   C528      1.0  0.38034  0.67261  0.72319  1.0000
  C   C529      1.0  0.13046  0.86496  0.65246  1.0000
  H   H624      1.0  0.39226  0.65723  0.69497  1.0000
  H   H625      1.0  0.43536  0.87107  0.73437  1.0000
  S   S153      1.0  0.32874  0.73239  0.72450  1.0000
  Fe  Fe72      1.0  0.46915  0.51311  0.71683  1.0000
  H   H626      1.0  0.24790  0.54269  0.67128  1.0000
  C   C530      1.0  0.06325  0.88870  0.55967  1.0000
  S   S154      1.0  0.44180  0.64967  0.68808  1.0000
  C   C531      1.0  0.05275  0.92423  0.62573  1.0000
  H   H627      1.0  0.11058  0.97190  0.60617  1.0000
  S   S155      1.0  0.43649  0.53853  0.71549  1.0000
  H   H628      1.0  0.48258  0.82033  0.70292  1.0000
  C   C532      1.0  0.14824  0.62384  0.71621  1.0000
  C   C533      1.0  0.15552  0.61843  0.69553  1.0000
  C   C534      1.0  0.15094  0.59766  0.69200  1.0000
  C   C535      1.0  0.13932  0.58208  0.70918  1.0000
  C   C536      1.0  0.20409  0.74257  0.73889  1.0000
  H   H629      1.0  0.12836  0.80290  0.63558  1.0000
  H   H630      1.0  0.16443  0.63029  0.68220  1.0000
  H   H631      1.0  0.15613  0.59382  0.67585  1.0000
  H   H632      1.0  0.15598  0.95279  0.68220  1.0000
  C   C537      1.0  0.06896  0.91053  0.54858  1.0000
  C   C538      1.0  0.26433  0.69284  0.64789  1.0000
  C   C539      1.0  0.26003  0.69600  0.66930  1.0000
  C   C540      1.0  0.27754  0.70218  0.67724  1.0000
  C   C541      1.0  0.29937  0.70543  0.66378  1.0000
  C   C542      1.0  0.30394  0.70181  0.64242  1.0000
  C   C543      1.0  0.28646  0.69535  0.63454  1.0000
  H   H633      1.0  0.24328  0.69359  0.67987  1.0000
  H   H634      1.0  0.27393  0.70472  0.69372  1.0000
  H   H635      1.0  0.32084  0.70431  0.63191  1.0000
  H   H636      1.0  0.28987  0.69286  0.61794  1.0000
  C   C544      1.0  0.21698  0.81160  0.67593  1.0000
  C   C545      1.0  0.22439  0.78804  0.67647  1.0000
  C   C546      1.0  0.20786  0.77259  0.68055  1.0000
  C   C547      1.0  0.18390  0.78062  0.68501  1.0000
  C   C548      1.0  0.17658  0.80410  0.68465  1.0000
  C   C549      1.0  0.19303  0.81957  0.67956  1.0000
  H   H637      1.0  0.24287  0.78164  0.67403  1.0000
  H   H638      1.0  0.21366  0.75442  0.68097  1.0000
  H   H639      1.0  0.15811  0.81048  0.68800  1.0000
  H   H640      1.0  0.18701  0.83778  0.67821  1.0000
  C   C550      1.0  0.10260  0.77925  0.59623  1.0000
  C   C551      1.0  0.09091  0.76044  0.59816  1.0000
  C   C552      1.0  0.10004  0.73829  0.60761  1.0000
  C   C553      1.0  0.12054  0.73495  0.61570  1.0000
  C   C554      1.0  0.13216  0.75380  0.61403  1.0000
  C   C555      1.0  0.12334  0.77595  0.60402  1.0000
  H   H641      1.0  0.07486  0.76298  0.59215  1.0000
  H   H642      1.0  0.09103  0.72374  0.60886  1.0000
  H   H643      1.0  0.14810  0.75126  0.62012  1.0000
  H   H644      1.0  0.13250  0.79044  0.60235  1.0000
  C   C556      1.0  0.15368  0.87981  0.61703  1.0000
  C   C557      1.0  0.15807  0.89768  0.62535  1.0000
  C   C558      1.0  0.13871  0.86417  0.63025  1.0000
  H   H645      1.0  0.16928  0.91009  0.61513  1.0000
  H   H646      1.0  0.13479  0.85065  0.62373  1.0000
  C   C559      1.0  0.45987  0.62053  0.64592  1.0000
  H   H647      1.0  0.42242  0.71473  0.67518  1.0000
  H   H648      1.0  0.44633  0.75043  0.71384  1.0000
  C   C560      1.0  0.15000  0.76661  0.51169  1.0000
  C   C561      1.0  0.17697  0.76263  0.53691  1.0000
  H   H649      1.0  0.10119  0.94833  0.68591  1.0000
  H   H650      1.0  0.45917  0.77199  0.66606  1.0000
  C   C562      1.0  0.00136  0.94824  0.52129  1.0000
  H   H651      1.0  0.47580  0.50415  0.65922  1.0000
  H   H652      1.0  0.06710  0.84496  0.60983  1.0000
  H   H653      1.0  0.18839  0.74819  0.53006  1.0000
  H   H654      1.0  0.46946  0.84025  0.66556  1.0000
  C   C563      1.0  0.20199  0.54874  0.71345  1.0000
  C   C564      1.0  0.47753  0.57373  0.65276  1.0000
  H   H655      1.0  0.19826  0.53051  0.71889  1.0000
  C   C565      1.0  0.27598  0.90549  0.72810  1.0000
  H   H656      1.0  0.09282  0.81243  0.62558  1.0000
  H   H657      1.0  0.41303  0.59119  0.64027  1.0000
  C   C566      1.0  0.27769  0.63635  0.71796  1.0000
  H   H658      1.0  0.42956  0.61039  0.66970  1.0000
  C   C567      1.0  0.07597  0.93414  0.64838  1.0000
  S   S156      1.0  0.18014  0.82847  0.50358  1.0000
  H   H659      1.0  0.45319  0.63875  0.64355  1.0000
  H   H660      1.0  0.19971  0.58862  0.65668  1.0000
  H   H661      1.0  0.05963  0.94721  0.54590  1.0000
  Fe  Fe73      1.0  0.47695  0.66215  0.67947  1.0000
  C   C568      1.0  0.45514  0.58118  0.66370  1.0000
  N   N34       1.0  0.15238  0.76395  0.53455  1.0000
  C   C569      1.0  0.14316  0.74268  0.54830  1.0000
  H   H662      1.0  0.99692  0.91466  0.55650  1.0000
  C   C570      1.0  0.13876  0.78407  0.54321  1.0000
  C   C571      1.0  0.02681  0.89014  0.52611  1.0000
  H   H663      1.0  0.07510  0.61198  0.68772  1.0000
  C   C572      1.0  0.25282  0.90056  0.73337  1.0000
  H   H664      1.0  0.10995  0.89251  0.49238  1.0000
  H   H665      1.0  0.14606  0.73959  0.56530  1.0000
  H   H666      1.0  0.12394  0.74355  0.55010  1.0000
  H   H667      1.0  0.09757  0.63100  0.65936  1.0000
  H   H668      1.0  0.30598  0.86847  0.70544  1.0000
  H   H669      1.0  0.21234  0.55142  0.72471  1.0000
  H   H670      1.0  0.11971  0.78549  0.54355  1.0000
  H   H671      1.0  0.14053  0.78315  0.56015  1.0000
  H   H672      1.0  0.35245  0.53377  0.73248  1.0000
  C   C573      1.0  0.07310  0.91717  0.61166  1.0000
  H   H673      1.0  0.14500  0.80035  0.53317  1.0000
  H   H674      1.0  0.15267  0.91276  0.65351  1.0000
  H   H675      1.0  0.05972  0.65219  0.67204  1.0000
  H   H676      1.0  0.04508  0.93055  0.68802  1.0000
  H   H677      1.0  0.11046  0.92435  0.67289  1.0000
  H   H678      1.0  0.07388  0.87337  0.55516  1.0000
  C   C574      1.0  0.09634  0.92739  0.63335  1.0000
  C   C575      1.0  0.26463  0.75995  0.63165  1.0000
  C   C576      1.0  0.27778  0.61314  0.72828  1.0000
  H   H679      1.0  0.17831  0.75976  0.55433  1.0000
  H   H680      1.0  0.44613  0.67096  0.72275  1.0000
  H   H681      1.0  0.05730  0.67329  0.68823  1.0000
  C   C577      1.0  0.22724  0.80772  0.73488  1.0000
  C   C578      1.0  0.39567  0.72772  0.69995  1.0000
  H   H682      1.0  0.27639  0.74495  0.63725  1.0000
  Fe  Fe74      1.0  0.27057  0.51132  0.73989  1.0000
  H   H683      1.0  0.48307  0.55539  0.65588  1.0000
  S   S157      1.0  0.36584  0.83838  0.74079  1.0000
  H   H684      1.0  0.38798  0.79159  0.72332  1.0000
  H   H685      1.0  0.01523  0.94709  0.53068  1.0000
  C   C579      1.0  0.38802  0.57149  0.66361  1.0000
  H   H686      1.0  0.24779  0.53967  0.69967  1.0000
  C   C580      1.0  0.43153  0.74464  0.71056  1.0000
  H   H687      1.0  0.26410  0.83197  0.70431  1.0000
  N   N35       1.0  0.21653  0.81951  0.61072  1.0000
  C   C581      1.0  0.19218  0.81581  0.62204  1.0000
  C   C582      1.0  0.22100  0.84137  0.61505  1.0000
  C   C583      1.0  0.21824  0.82263  0.58693  1.0000
  C   C584      1.0  0.23321  0.79929  0.61799  1.0000
  C   C585      1.0  0.25389  0.80136  0.62459  1.0000
  C   C586      1.0  0.22937  0.77663  0.61801  1.0000
  C   C587      1.0  0.24476  0.75729  0.62500  1.0000
  H   H688      1.0  0.19091  0.81074  0.63994  1.0000
  H   H689      1.0  0.17960  0.83169  0.61887  1.0000
  H   H690      1.0  0.18568  0.80230  0.61678  1.0000
  H   H691      1.0  0.22020  0.84005  0.63268  1.0000
  H   H692      1.0  0.20774  0.85613  0.61031  1.0000
  H   H693      1.0  0.23817  0.84654  0.60561  1.0000
  H   H694      1.0  0.21380  0.80739  0.58254  1.0000
  H   H695      1.0  0.20609  0.83786  0.58075  1.0000
  H   H696      1.0  0.23629  0.82542  0.57782  1.0000
  H   H697      1.0  0.25828  0.81777  0.62533  1.0000
  H   H698      1.0  0.21440  0.77363  0.61274  1.0000
  H   H699      1.0  0.24126  0.74007  0.62535  1.0000
  N   N36       1.0  0.34588  0.63677  0.67078  1.0000
  C   C588      1.0  0.32402  0.63760  0.66303  1.0000
  C   C589      1.0  0.33958  0.63879  0.69402  1.0000
  C   C590      1.0  0.35719  0.65736  0.65821  1.0000
  H   H700      1.0  0.31369  0.62347  0.67259  1.0000
  H   H701      1.0  0.31223  0.65405  0.66446  1.0000
  H   H702      1.0  0.32784  0.63605  0.64564  1.0000
  H   H703      1.0  0.32923  0.65580  0.69608  1.0000
  H   H704      1.0  0.35546  0.63694  0.70100  1.0000
  S   S158      1.0  0.43266  0.83593  0.71214  1.0000
  H   H705      1.0  0.36088  0.65801  0.64034  1.0000
  H   H706      1.0  0.34571  0.67366  0.66075  1.0000
  C   C591      1.0  0.26932  0.78191  0.63122  1.0000
  C   C592      1.0  0.14896  0.89897  0.64719  1.0000
  C   C593      1.0  0.12790  0.76616  0.50690  1.0000
  N   N37       1.0  0.29994  0.83930  0.69443  1.0000
  C   C594      1.0  0.06930  0.66481  0.67541  1.0000
  H   H707      1.0  0.04693  0.87486  0.63075  1.0000
  S   S159      1.0  0.30512  0.52410  0.72423  1.0000
  C   C595      1.0  0.31105  0.81622  0.69033  1.0000
  C   C596      1.0  0.29852  0.80217  0.68347  1.0000
  C   C597      1.0  0.33460  0.80738  0.69214  1.0000
  C   C598      1.0  0.30898  0.78088  0.67837  1.0000
  C   C599      1.0  0.34499  0.78617  0.68670  1.0000
  C   C600      1.0  0.33227  0.77310  0.67960  1.0000
  H   H708      1.0  0.23983  0.91184  0.72516  1.0000
  H   H709      1.0  0.05344  0.87226  0.66784  1.0000
  C   C601      1.0  0.13699  0.60807  0.73345  1.0000
  N   N38       1.0  0.99544  0.92503  0.52231  1.0000
  C   C602      1.0  0.41157  0.52516  0.72895  1.0000
  H   H710      1.0  0.38189  0.72057  0.69623  1.0000
  N   N39       1.0  0.10344  0.80205  0.66624  1.0000
  H   H711      1.0  0.44483  0.80997  0.67623  1.0000
  H   H712      1.0  0.15176  0.72725  0.54141  1.0000
  H   H713      1.0  0.28050  0.80756  0.68198  1.0000
  H   H714      1.0  0.34536  0.81646  0.69775  1.0000
  H   H715      1.0  0.29895  0.77019  0.67360  1.0000
  H   H716      1.0  0.36294  0.77970  0.68814  1.0000
  H   H717      1.0  0.34029  0.75658  0.67555  1.0000
  H   H718      1.0  0.18434  0.77905  0.52874  1.0000
  H   H719      1.0  0.37319  0.74018  0.72685  1.0000
  C   C603      1.0  0.10115  0.94223  0.67089  1.0000
  C   C604      1.0  0.08568  0.63624  0.70293  1.0000
  C   C605      1.0  0.08711  0.63971  0.72366  1.0000
  C   C606      1.0  0.09484  0.91881  0.61544  1.0000
  H   H720      1.0  0.06509  0.58369  0.72119  1.0000
  C   C607      1.0  0.47033  0.78551  0.66092  1.0000
  H   H721      1.0  0.24533  0.79845  0.73191  1.0000
  H   H722      1.0  0.12012  0.66428  0.69101  1.0000
  C   C608      1.0  0.48221  0.61329  0.63485  1.0000
  C   C609      1.0  0.18073  0.97260  0.65817  1.0000
  C   C610      1.0  0.47956  0.83466  0.71110  1.0000
  C   C611      1.0  0.47172  0.87064  0.73365  1.0000
  H   H723      1.0  0.18493  0.56005  0.71585  1.0000
  H   H724      1.0  0.11367  0.92868  0.63500  1.0000
  C   C612      1.0  0.29301  0.89120  0.73866  1.0000
  Fe  Fe75      1.0  0.21782  0.86326  0.68258  1.0000
  S   S160      1.0  0.19393  0.88948  0.66484  1.0000
  H   H725      1.0  0.10872  0.68404  0.66932  1.0000
  C   C613      1.0  0.13667  0.88165  0.66118  1.0000
  C   C614      1.0  0.99515  0.95451  0.71180  1.0000
  S   S161      1.0  0.09514  0.91259  0.52960  1.0000
  C   C615      1.0  0.36934  0.52573  0.73597  1.0000
  S   S162      1.0  0.20604  0.95211  0.66024  1.0000
  H   H726      1.0  0.11258  0.76373  0.51975  1.0000
  H   H727      1.0  0.39055  0.62835  0.64406  1.0000
  C   C616      1.0  0.45287  0.86295  0.72912  1.0000
  H   H728      1.0  0.46852  0.53562  0.62782  1.0000
  C   C617      1.0  0.45668  0.84511  0.71770  1.0000
  H   H729      1.0  0.00780  0.95728  0.50433  1.0000
  S   S163      1.0  0.31450  0.68058  0.73316  1.0000
  H   H730      1.0  0.12054  0.85195  0.66322  1.0000
  S   S164      1.0  0.23186  0.89030  0.69269  1.0000
  Fe  Fe76      1.0  0.20327  0.91585  0.67946  1.0000
  C   C618      1.0  0.38306  0.61326  0.65393  1.0000
  C   C619      1.0  0.12769  0.80161  0.65314  1.0000
  H   H731      1.0  0.18602  0.77288  0.49543  1.0000
  C   C620      1.0  0.06984  0.84368  0.62616  1.0000
  C   C621      1.0  0.21016  0.59359  0.66603  1.0000
  H   H732      1.0  0.33623  0.59306  0.69134  1.0000
  C   C622      1.0  0.48591  0.50332  0.64303  1.0000
  C   C623      1.0  0.05854  0.86055  0.63791  1.0000
  C   C624      1.0  0.03552  0.92815  0.57146  1.0000
  H   H733      1.0  0.05443  0.86150  0.52717  1.0000
  C   C625      1.0  0.48168  0.52101  0.62528  1.0000
  H   H734      1.0  0.18237  0.55725  0.67871  1.0000
  C   C626      1.0  0.07713  0.61573  0.70269  1.0000
  H   H735      1.0  0.44454  0.56873  0.67483  1.0000
  C   C627      1.0  0.07665  0.84015  0.66832  1.0000
  C   C628      1.0  0.05494  0.93032  0.55421  1.0000
  H   H736      1.0  0.22848  0.82595  0.73496  1.0000
  C   C629      1.0  0.41846  0.72440  0.68811  1.0000
  H   H737      1.0  0.27000  0.67149  0.72225  1.0000
  H   H738      1.0  0.12234  0.63213  0.67034  1.0000
  H   H739      1.0  0.31860  0.84123  0.71883  1.0000
  C   C630      1.0  0.06210  0.85891  0.65886  1.0000
  H   H740      1.0  0.03774  0.93809  0.65412  1.0000
  C   C631      1.0  0.42112  0.66313  0.70697  1.0000
  Fe  Fe77      1.0  0.16717  0.88367  0.69587  1.0000
  S   S165      1.0  0.13247  0.87896  0.68962  1.0000
  C   C632      1.0  0.39628  0.59193  0.65159  1.0000
  S   S166      1.0  0.32228  0.89691  0.72980  1.0000
  N   N40       1.0  0.21442  0.55353  0.69033  1.0000
  H   H741      1.0  0.26986  0.85409  0.71554  1.0000
  C   C633      1.0  0.23715  0.53838  0.68801  1.0000
  H   H742      1.0  0.35973  0.55631  0.68694  1.0000
  H   H743      1.0  0.28478  0.78384  0.63653  1.0000
  H   H744      1.0  0.08712  0.80099  0.70010  1.0000
  C   C634      1.0  0.36633  0.57226  0.67781  1.0000
  C   C635      1.0  0.27764  0.83735  0.71068  1.0000
  C   C636      1.0  0.04377  0.88653  0.57671  1.0000
  H   H745      1.0  0.23472  0.51985  0.69120  1.0000
  H   H746      1.0  0.02526  0.94342  0.57643  1.0000
  Fe  Fe78      1.0  0.28765  0.55687  0.73505  1.0000
  C   C637      1.0  0.05406  0.93264  0.64381  1.0000
  H   H747      1.0  0.28231  0.84732  0.66725  1.0000
  H   H748      1.0  0.13241  0.92324  0.49291  1.0000
  H   H749      1.0  0.11246  0.81637  0.69054  1.0000
  H   H750      1.0  0.13625  0.81598  0.65460  1.0000
  C   C638      1.0  0.26978  0.65358  0.73020  1.0000
  S   S167      1.0  0.00600  0.90326  0.60409  1.0000
  H   H751      1.0  0.07205  0.91047  0.59776  1.0000
  H   H752      1.0  0.28391  0.64109  0.70056  1.0000
  C   C639      1.0  0.35300  0.59344  0.68028  1.0000
  C   C640      1.0  0.40845  0.74817  0.72308  1.0000
  H   H753      1.0  0.04689  0.96895  0.66543  1.0000
  H   H754      1.0  0.20878  0.54915  0.65971  1.0000
  H   H755      1.0  0.19697  0.52861  0.68290  1.0000
  H   H756      1.0  0.23204  0.64212  0.66631  1.0000
  C   C641      1.0  0.20005  0.54701  0.67722  1.0000
  C   C642      1.0  0.06586  0.96717  0.66550  1.0000
  C   C643      1.0  0.23695  0.60958  0.68837  1.0000
  H   H757      1.0  0.37370  0.65793  0.66333  1.0000
  C   C644      1.0  0.13244  0.58729  0.72995  1.0000
  H   H758      1.0  0.24742  0.61581  0.69695  1.0000
  H   H759      1.0  0.11280  0.65552  0.65005  1.0000
  C   C645      1.0  0.38966  0.53543  0.72444  1.0000
  H   H760      1.0  0.11159  0.95353  0.65713  1.0000
  C   C646      1.0  0.36087  0.61464  0.66843  1.0000
  C   C647      1.0  0.10657  0.64252  0.66488  1.0000
  H   H761      1.0  0.07568  0.78088  0.67451  1.0000
  H   H762      1.0  0.32844  0.62565  0.70431  1.0000
  S   S168      1.0  0.17614  0.91083  0.71025  1.0000
  S   S169      1.0  0.19083  0.85580  0.71303  1.0000
  S   S170      1.0  0.38669  0.88646  0.73535  1.0000
  N   N41       1.0  0.07697  0.94291  0.66773  1.0000
  H   H763      1.0  0.28039  0.82459  0.72572  1.0000
  H   H764      1.0  0.11068  0.91335  0.60441  1.0000
  H   H765      1.0  0.07355  0.97138  0.59484  1.0000
  C   C648      1.0  0.31479  0.85115  0.70282  1.0000
  H   H766      1.0  0.39838  0.55500  0.66182  1.0000
  H   H767      1.0  0.99949  0.94199  0.72583  1.0000
  C   C649      1.0  0.15841  0.96904  0.67101  1.0000
  H   H768      1.0  0.07146  0.91044  0.68967  1.0000
  C   C650      1.0  0.43631  0.73278  0.69345  1.0000
  H   H769      1.0  0.36217  0.67291  0.72320  1.0000
  C   C651      1.0  0.21503  0.61642  0.65991  1.0000
  S   S171      1.0  0.29009  0.59166  0.71322  1.0000
  C   C652      1.0  0.46233  0.80688  0.66662  1.0000
  C   C653      1.0  0.06411  0.92901  0.68779  1.0000
  C   C654      1.0  0.29474  0.85426  0.67382  1.0000
  H   H770      1.0  0.20851  0.62807  0.64636  1.0000
  H   H771      1.0  0.07269  0.67824  0.66022  1.0000
  C   C655      1.0  0.10469  0.80138  0.68915  1.0000
  C   C656      1.0  0.21868  0.57798  0.68366  1.0000
  H   H772      1.0  0.40963  0.61363  0.71138  1.0000
  C   C657      1.0  0.23230  0.58671  0.69457  1.0000
  H   H773      1.0  0.42913  0.78280  0.72994  1.0000
  Fe  Fe79      1.0  0.11845  0.53245  0.73534  1.0000
  H   H774      1.0  0.45410  0.72971  0.68450  1.0000
  S   S172      1.0  0.11689  0.49468  0.73840  1.0000
  H   H775      1.0  0.13887  0.78534  0.65862  1.0000
  H   H776      1.0  0.49196  0.62645  0.62380  1.0000
  N   N42       1.0  0.09133  0.65356  0.68252  1.0000
  C   C658      1.0  0.47686  0.82424  0.66035  1.0000
  H   H777      1.0  0.28649  0.87188  0.67617  1.0000
  H   H778      1.0  0.43216  0.59034  0.71742  1.0000
  C   C659      1.0  0.09436  0.78068  0.66599  1.0000
  C   C660      1.0  0.41292  0.59596  0.72122  1.0000
  C   C661      1.0  0.22830  0.62442  0.67110  1.0000
  H   H779      1.0  0.19833  0.61681  0.72339  1.0000
  H   H780      1.0  0.03940  0.86961  0.58528  1.0000
  H   H781      1.0  0.11604  0.78573  0.69580  1.0000
  H   H782      1.0  0.09259  0.68264  0.69642  1.0000
  H   H783      1.0  0.03582  0.92311  0.62264  1.0000
  C   C662      1.0  0.42780  0.67153  0.72279  1.0000
  H   H784      1.0  0.09377  0.65450  0.72562  1.0000
  H   H785      1.0  0.10453  0.76495  0.67411  1.0000
  C   C663      1.0  0.08831  0.82250  0.65677  1.0000
  H   H786      1.0  0.19635  0.73835  0.72685  1.0000
  H   H787      1.0  0.38848  0.55090  0.71205  1.0000
  H   H788      1.0  0.13339  0.82270  0.50089  1.0000
  H   H789      1.0  0.31097  0.85602  0.66102  1.0000
  H   H790      1.0  0.07864  0.84004  0.68456  1.0000
  H   H791      1.0  0.33151  0.85428  0.69109  1.0000
  H   H792      1.0  0.40482  0.58412  0.71519  1.0000
  C   C664      1.0  0.10368  0.67186  0.68505  1.0000
  H   H793      1.0  0.23973  0.57589  0.70788  1.0000
  H   H794      1.0  0.21969  0.80793  0.72060  1.0000
  C   C665      1.0  0.07101  0.59950  0.72185  1.0000
  H   H795      1.0  0.28077  0.92025  0.71548  1.0000
  C   C666      1.0  0.04694  0.87681  0.51707  1.0000
  C   C667      1.0  0.01676  0.91048  0.51339  1.0000
  H   H796      1.0  0.07430  0.97808  0.65020  1.0000
  H   H797      1.0  0.36659  0.77297  0.73905  1.0000
  H   H798      1.0  0.36843  0.57853  0.73536  1.0000
  H   H799      1.0  0.01961  0.88426  0.54318  1.0000
  H   H800      1.0  0.19571  0.77862  0.72800  1.0000
  S   S173      1.0  0.03014  0.97640  0.71536  1.0000
  Fe  Fe80      1.0  0.40121  0.84953  0.73492  1.0000
  H   H801      1.0  0.06727  0.97464  0.67929  1.0000
  C   C668      1.0  0.22796  0.48193  0.73956  1.0000
  C   C669      1.0  0.38329  0.77904  0.73887  1.0000
  C   C670      1.0  0.19761  0.61309  0.74080  1.0000
  C   C671      1.0  0.00735  0.97359  0.70334  1.0000
  C   C672      1.0  0.05763  0.88326  0.49525  1.0000
  S   S174      1.0  0.48097  0.69614  0.65663  1.0000
  C   C673      1.0  0.41061  0.67977  0.73931  1.0000
  C   C674      1.0  0.38684  0.68027  0.73951  1.0000
  H   H802      1.0  0.49034  0.86843  0.64334  1.0000
  H   H803      1.0  0.18144  0.96589  0.71197  1.0000
  C   C675      1.0  0.49205  0.58973  0.63846  1.0000
  H   H804      1.0  0.21391  0.64272  0.73949  1.0000
  N   N43       1.0  0.40262  0.75990  0.74180  1.0000
  H   H805      1.0  0.14563  0.97085  0.74024  1.0000
  C   C676      1.0  0.20369  0.76563  0.73977  1.0000
  H   H806      1.0  0.32655  0.59241  0.74203  1.0000
  C   C677      1.0  0.07268  0.60341  0.74185  1.0000
  H   H807      1.0  0.13560  0.50800  0.85550  1.0000
  C   C678      1.0  0.29169  0.52463  0.84018  1.0000
  H   H808      1.0  0.08269  0.58066  0.83939  1.0000
  S   S175      1.0  0.21797  0.87361  0.75390  1.0000
  Fe  Fe81      1.0  0.08145  0.50069  0.75981  1.0000
  S   S176      1.0  0.47279  0.85750  0.84518  1.0000
  H   H809      1.0  0.43002  0.49717  0.74872  1.0000
  N   N44       1.0  0.21320  0.79640  0.75564  1.0000
  C   C679      1.0  0.26176  0.64769  0.75273  1.0000
  C   C680      1.0  0.22275  0.80005  0.77376  1.0000
  C   C681      1.0  0.18874  0.80814  0.75799  1.0000
  H   H810      1.0  0.09634  0.55814  0.96462  1.0000
  C   C682      1.0  0.40788  0.57150  0.75713  1.0000
  Fe  Fe82      1.0  0.38720  0.87677  0.77104  1.0000
  H   H811      1.0  0.12302  0.57563  0.74321  1.0000
  S   S177      1.0  0.40034  0.90251  0.78416  1.0000
  Fe  Fe83      1.0  0.36802  0.83207  0.77604  1.0000
  C   C683      1.0  0.21376  0.77180  0.75522  1.0000
  S   S178      1.0  0.35928  0.79789  0.79603  1.0000
  H   H812      1.0  0.04805  0.49453  0.82951  1.0000
  H   H813      1.0  0.13956  0.53174  0.93827  1.0000
  H   H814      1.0  0.13733  0.50494  0.95742  1.0000
  C   C684      1.0  0.21472  0.49386  0.75555  1.0000
  S   S179      1.0  0.40444  0.84068  0.76987  1.0000
  S   S180      1.0  0.35060  0.86725  0.78104  1.0000
  H   H815      1.0  0.11362  0.56886  0.97856  1.0000
  H   H816      1.0  0.16315  0.58195  0.82111  1.0000
  H   H817      1.0  0.36001  0.92140  0.76579  1.0000
  S   S181      1.0  0.28511  0.77796  0.74958  1.0000
  S   S182      1.0  0.29687  0.71073  0.77183  1.0000
  H   H818      1.0  0.37868  0.73632  0.76198  1.0000
  S   S183      1.0  0.25450  0.66922  0.76813  1.0000
  H   H819      1.0  0.33850  0.64615  0.76995  1.0000
  H   H820      1.0  0.24321  0.52200  0.88091  1.0000
  H   H821      1.0  0.29961  0.86121  0.76333  1.0000
  H   H822      1.0  0.19120  0.56391  0.81765  1.0000
  S   S184      1.0  0.23907  0.53978  0.80926  1.0000
  C   C685      1.0  0.34841  0.93394  0.75603  1.0000
  C   C686      1.0  0.26101  0.62453  0.76296  1.0000
  H   H823      1.0  0.14737  0.57357  0.77135  1.0000
  H   H824      1.0  0.38000  0.63316  0.76399  1.0000
  H   H825      1.0  0.48433  0.97096  0.93501  1.0000
  H   H826      1.0  0.25487  0.61991  0.78041  1.0000
  H   H827      1.0  0.16444  0.55157  0.82444  1.0000
  C   C687      1.0  0.33687  0.79186  0.78564  1.0000
  C   C688      1.0  0.33564  0.76926  0.78444  1.0000
  C   C689      1.0  0.31985  0.76498  0.77320  1.0000
  C   C690      1.0  0.30461  0.78315  0.76396  1.0000
  C   C691      1.0  0.30529  0.80566  0.76588  1.0000
  C   C692      1.0  0.32165  0.81003  0.77645  1.0000
  H   H828      1.0  0.34731  0.75517  0.79162  1.0000
  H   H829      1.0  0.31960  0.74759  0.77169  1.0000
  H   H830      1.0  0.46543  0.81993  0.80221  1.0000
  H   H831      1.0  0.32253  0.82746  0.77758  1.0000
  C   C693      1.0  0.12402  0.52374  0.85213  1.0000
  H   H832      1.0  0.40853  0.72800  0.76457  1.0000
  C   C694      1.0  0.37874  0.60429  0.74889  1.0000
  H   H833      1.0  0.41732  0.77925  0.75852  1.0000
  C   C695      1.0  0.27150  0.49445  0.87719  1.0000
  C   C696      1.0  0.34507  0.94690  0.79819  1.0000
  S   S185      1.0  0.09501  0.49400  0.79076  1.0000
  H   H834      1.0  0.26643  0.49485  0.81743  1.0000
  H   H835      1.0  0.18381  0.54733  0.76744  1.0000
  H   H836      1.0  0.25854  0.85224  0.77260  1.0000
  H   H837      1.0  0.11849  0.51680  0.82241  1.0000
  Fe  Fe84      1.0  0.26448  0.53253  0.77922  1.0000
  H   H838      1.0  0.43725  0.75637  0.74852  1.0000
  C   C697      1.0  0.21342  0.51494  0.84497  1.0000
  H   H839      1.0  0.17730  0.79916  0.77273  1.0000
  H   H840      1.0  0.29783  0.92538  0.79323  1.0000
  C   C698      1.0  0.43733  0.85727  0.82505  1.0000
  S   S186      1.0  0.08676  0.55616  0.80568  1.0000
  H   H841      1.0  0.26827  0.58943  0.75872  1.0000
  H   H842      1.0  0.33944  0.52680  0.82133  1.0000
  C   C699      1.0  0.21465  0.72499  0.75323  1.0000
  H   H843      1.0  0.35499  0.92990  0.79863  1.0000
  H   H844      1.0  0.09967  0.57177  0.87246  1.0000
  C   C700      1.0  0.36927  0.62353  0.75891  1.0000
  C   C701      1.0  0.09424  0.56477  0.84288  1.0000
  C   C702      1.0  0.43617  0.90356  0.80407  1.0000
  C   C703      1.0  0.42078  0.89008  0.80081  1.0000
  C   C704      1.0  0.42151  0.86689  0.81123  1.0000
  H   H845      1.0  0.43557  0.92155  0.79609  1.0000
  H   H846      1.0  0.40941  0.85651  0.80915  1.0000
  C   C705      1.0  0.06325  0.50337  0.85245  1.0000
  H   H847      1.0  0.41572  0.68578  0.75185  1.0000
  C   C706      1.0  0.11442  0.52881  0.83330  1.0000
  S   S187      1.0  0.08154  0.53905  0.75375  1.0000
  C   C707      1.0  0.05620  0.48744  0.84340  1.0000
  S   S188      1.0  0.29845  0.54720  0.76744  1.0000
  H   H848      1.0  0.29797  0.53697  0.82574  1.0000
  H   H849      1.0  0.24163  0.79322  0.77230  1.0000
  H   H850      1.0  0.34597  0.49669  0.85549  1.0000
  C   C708      1.0  0.17311  0.56674  0.81453  1.0000
  H   H851      1.0  0.31133  0.62624  0.75919  1.0000
  H   H852      1.0  0.32645  0.90992  0.79412  1.0000
  C   C709      1.0  0.20912  0.49523  0.86107  1.0000
  C   C710      1.0  0.26332  0.86723  0.76029  1.0000
  H   H853      1.0  0.17838  0.53254  0.79517  1.0000
  H   H854      1.0  0.35391  0.50570  0.80535  1.0000
  C   C711      1.0  0.07431  0.49590  0.87016  1.0000
  S   S189      1.0  0.12924  0.53301  0.89065  1.0000
  H   H855      1.0  0.43733  0.83947  0.83352  1.0000
  C   C712      1.0  0.45236  0.89380  0.81762  1.0000
  H   H856      1.0  0.47699  0.95340  0.91901  1.0000
  H   H857      1.0  0.40199  0.57051  0.77500  1.0000
  Fe  Fe85      1.0  0.09829  0.53164  0.78281  1.0000
  H   H858      1.0  0.18045  0.58353  0.74636  1.0000
  C   C713      1.0  0.19423  0.60479  0.78585  1.0000
  H   H859      1.0  0.13902  0.58912  0.79307  1.0000
  C   C714      1.0  0.19271  0.48771  0.76693  1.0000
  H   H860      1.0  0.19374  0.60256  0.80305  1.0000
  H   H861      1.0  0.48374  0.79412  0.81207  1.0000
  H   H862      1.0  0.43762  0.60243  0.74788  1.0000
  C   C715      1.0  0.24647  0.88116  0.74913  1.0000
  H   H863      1.0  0.12381  0.56795  0.95023  1.0000
  C   C716      1.0  0.18555  0.54797  0.78406  1.0000
  H   H864      1.0  0.22134  0.50791  0.75900  1.0000
  S   S190      1.0  0.49081  0.90959  0.86425  1.0000
  H   H865      1.0  0.46422  0.90421  0.82009  1.0000
  H   H866      1.0  0.16196  0.54288  0.95813  1.0000
  H   H867      1.0  0.21211  0.48742  0.98700  1.0000
  H   H868      1.0  0.23370  0.71661  0.77911  1.0000
  N   N45       1.0  0.40408  0.59555  0.74484  1.0000
  N   N46       1.0  0.17343  0.56966  0.79091  1.0000
  N   N47       1.0  0.12664  0.53482  0.97203  1.0000
  H   H869      1.0  0.21102  0.63547  0.77926  1.0000
  C   C717      1.0  0.33664  0.51227  0.81470  1.0000
  C   C718      1.0  0.10389  0.55976  0.86156  1.0000
  H   H870      1.0  0.06043  0.52167  0.84545  1.0000
  H   H871      1.0  0.39089  0.75116  0.77675  1.0000
  S   S191      1.0  0.36531  0.68985  0.76042  1.0000
  H   H872      1.0  0.29166  0.95813  0.76325  1.0000
  H   H873      1.0  0.29342  0.81974  0.75903  1.0000
  H   H874      1.0  0.11149  0.52300  0.94974  1.0000
  H   H875      1.0  0.47726  0.82837  0.97803  1.0000
  S   S192      1.0  0.27943  0.49740  0.77269  1.0000
  C   C719      1.0  0.12878  0.52304  0.95368  1.0000
  H   H876      1.0  0.21529  0.70710  0.75235  1.0000
  C   C720      1.0  0.39490  0.74316  0.76213  1.0000
  C   C721      1.0  0.31659  0.97794  0.78493  1.0000
  H   H877      1.0  0.30797  0.94218  0.74341  1.0000
  N   N48       1.0  0.32635  0.49384  0.83230  1.0000
  C   C722      1.0  0.22478  0.75344  0.76934  1.0000
  C   C723      1.0  0.14880  0.57287  0.78833  1.0000
  H   H878      1.0  0.42670  0.56404  0.75386  1.0000
  Fe  Fe86      1.0  0.31258  0.51314  0.75793  1.0000
  H   H879      1.0  0.26314  0.48253  0.89110  1.0000
  C   C724      1.0  0.26888  0.60725  0.75070  1.0000
  C   C725      1.0  0.39292  0.49522  0.75637  1.0000
  C   C726      1.0  0.30384  0.50213  0.84569  1.0000
  H   H880      1.0  0.32543  0.51907  0.80236  1.0000
  H   H881      1.0  0.46852  0.88448  0.74250  1.0000
  C   C727      1.0  0.34884  0.95997  0.81201  1.0000
  H   H882      1.0  0.21305  0.79178  0.78991  1.0000
  C   C728      1.0  0.29294  0.48718  0.86449  1.0000
  H   H883      1.0  0.47944  0.81905  0.82391  1.0000
  H   H884      1.0  0.20457  0.54589  0.78411  1.0000
  C   C729      1.0  0.32899  0.95554  0.78406  1.0000
  Fe  Fe87      1.0  0.14276  0.49599  0.90209  1.0000
  C   C730      1.0  0.23388  0.51471  0.82893  1.0000
  H   H885      1.0  0.48426  0.85539  0.78145  1.0000
  S   S193      1.0  0.34586  0.49327  0.76679  1.0000
  H   H886      1.0  0.07991  0.50835  0.87696  1.0000
  H   H887      1.0  0.23377  0.75639  0.78101  1.0000
  H   H888      1.0  0.19327  0.49571  0.87333  1.0000
  C   C731      1.0  0.45280  0.87064  0.82824  1.0000
  H   H889      1.0  0.48613  0.97976  0.88524  1.0000
  H   H890      1.0  0.20091  0.53037  0.84511  1.0000
  C   C732      1.0  0.34525  0.63125  0.76249  1.0000
  C   C733      1.0  0.31513  0.92057  0.78295  1.0000
  C   C734      1.0  0.18728  0.59415  0.75415  1.0000
  C   C735      1.0  0.33858  0.60112  0.74666  1.0000
  C   C736      1.0  0.08056  0.62353  0.74276  1.0000
  S   S194      1.0  0.13519  0.52745  0.76411  1.0000
  C   C737      1.0  0.25018  0.49477  0.82918  1.0000
  C   C738      1.0  0.09932  0.54926  0.82883  1.0000
  H   H891      1.0  0.13938  0.55840  0.79853  1.0000
  C   C739      1.0  0.18515  0.58944  0.77712  1.0000
  C   C740      1.0  0.15076  0.53621  0.97410  1.0000
  C   C741      1.0  0.34393  0.48401  0.84619  1.0000
  H   H892      1.0  0.41379  0.60887  0.76939  1.0000
  H   H893      1.0  0.18235  0.49697  0.77917  1.0000
  S   S195      1.0  0.17329  0.48749  0.91885  1.0000
  C   C742      1.0  0.37100  0.50554  0.75190  1.0000
  H   H894      1.0  0.10055  0.49751  0.98064  1.0000
  C   C743      1.0  0.11851  0.53911  0.86643  1.0000
  C   C744      1.0  0.11461  0.55850  0.96611  1.0000
  H   H895      1.0  0.06816  0.59070  0.75669  1.0000
  C   C745      1.0  0.20436  0.62380  0.77233  1.0000
  C   C746      1.0  0.32994  0.62011  0.75638  1.0000
  C   C747      1.0  0.41319  0.50504  0.74493  1.0000
  C   C748      1.0  0.22499  0.73042  0.76838  1.0000
  C   C749      1.0  0.41865  0.60920  0.75157  1.0000
  H   H896      1.0  0.39823  0.55980  0.75262  1.0000
  H   H897      1.0  0.37918  0.78861  0.75239  1.0000
  Fe  Fe88      1.0  0.28036  0.69420  0.75245  1.0000
  H   H898      1.0  0.26092  0.54868  0.84810  1.0000
  C   C750      1.0  0.42255  0.76994  0.74472  1.0000
  H   H899      1.0  0.31240  0.90918  0.77264  1.0000
  H   H900      1.0  0.13124  0.61224  0.74947  1.0000
  C   C751      1.0  0.30974  0.95340  0.75434  1.0000
  N   N49       1.0  0.32550  0.94130  0.76951  1.0000
  H   H901      1.0  0.08223  0.62628  0.75833  1.0000
  H   H902      1.0  0.22161  0.81875  0.77381  1.0000
  H   H903      1.0  0.36145  0.95296  0.82245  1.0000
  C   C752      1.0  0.26021  0.51668  0.87147  1.0000
  C   C753      1.0  0.20610  0.62791  0.74986  1.0000
  C   C754      1.0  0.28660  0.87222  0.75502  1.0000
  Fe  Fe89      1.0  0.33068  0.70027  0.75000  1.0000
  Fe  Fe90      1.0  0.29381  0.74162  0.74478  1.0000
  Fe  Fe91      1.0  0.13024  0.49047  0.76902  1.0000
  H   H904      1.0  0.15942  0.51893  0.98079  1.0000
  C   C755      1.0  0.27027  0.53171  0.85302  1.0000
  S   S196      1.0  0.25238  0.54511  0.74764  1.0000
  Fe  Fe92      1.0  0.35125  0.87435  0.74517  1.0000
  H   H905      1.0  0.41699  0.62741  0.74269  1.0000
  C   C756      1.0  0.36260  0.59333  0.74289  1.0000
  H   H906      1.0  0.15122  0.54778  0.98505  1.0000
  S   S197      1.0  0.04996  0.48203  0.76510  1.0000
  H   H907      1.0  0.18768  0.82640  0.75953  1.0000
  C   C757      1.0  0.48199  0.81329  0.80827  1.0000
  H   H908      1.0  0.35801  0.94890  0.74756  1.0000
  H   H909      1.0  0.18100  0.80888  0.74370  1.0000
  H   H910      1.0  0.48567  0.82289  0.76557  1.0000
  H   H911      1.0  0.34640  0.92516  0.74333  1.0000
  H   H912      1.0  0.31664  0.96911  0.74356  1.0000
  H   H913      1.0  0.31003  0.48251  0.81085  1.0000
  S   S198      1.0  0.48975  0.50572  0.74337  1.0000
  C   C758      1.0  0.49159  0.95765  0.92494  1.0000
  Fe  Fe93      1.0  0.61636  0.04385  0.20700  1.0000
  S   S199      1.0  0.60558  0.00919  0.22361  1.0000
  S   S200      1.0  0.63859  0.04846  0.17352  1.0000
  N   N50       1.0  0.77469  0.19559  0.19988  1.0000
  C   C759      1.0  0.72905  0.07104  0.15274  1.0000
  C   C760      1.0  0.73112  0.00713  0.14149  1.0000
  C   C761      1.0  0.78236  0.17634  0.21704  1.0000
  H   H914      1.0  0.87878  0.11384  0.16958  1.0000
  Fe  Fe94      1.0  0.75955  0.01570  0.22998  1.0000
  H   H915      1.0  0.74755  0.10811  0.23968  1.0000
  Fe  Fe95      1.0  0.77126  0.05797  0.19480  1.0000
  S   S201      1.0  0.78866  0.03719  0.16926  1.0000
  S   S202      1.0  0.76280  0.09651  0.18724  1.0000
  Fe  Fe96      1.0  0.75855  0.01645  0.18262  1.0000
  H   H916      1.0  0.65686  0.30385  0.23309  1.0000
  S   S203      1.0  0.58122  0.06375  0.21618  1.0000
  S   S204      1.0  0.74004  0.03919  0.20593  1.0000
  S   S205      1.0  0.78937  0.03672  0.22122  1.0000
  C   C762      1.0  0.98927  0.35956  0.06340  1.0000
  S   S206      1.0  0.70542  0.18946  0.24053  1.0000
  N   N51       1.0  0.71117  0.05895  0.01039  1.0000
  H   H917      1.0  0.50219  0.99710  0.22670  1.0000
  C   C763      1.0  0.97438  0.33732  0.22736  1.0000
  S   S207      1.0  0.66795  0.40315  0.21138  1.0000
  Fe  Fe97      1.0  0.74174  0.40463  0.23821  1.0000
  S   S208      1.0  0.84235  0.14669  0.23220  1.0000
  C   C764      1.0  0.93357  0.07085  0.21524  1.0000
  H   H918      1.0  0.73642  0.47198  0.23505  1.0000
  H   H919      1.0  0.69512  0.99559  0.11246  1.0000
  Fe  Fe98      1.0  0.85949  0.15875  0.19741  1.0000
  S   S209      1.0  0.58236  0.48084  0.22894  1.0000
  S   S210      1.0  0.84586  0.15562  0.16869  1.0000
  Fe  Fe99      1.0  0.89518  0.18154  0.20949  1.0000
  C   C765      1.0  0.60579  0.44384  0.21197  1.0000
  S   S211      1.0  0.92412  0.20359  0.19684  1.0000
  C   C766      1.0  0.89748  0.08740  0.19060  1.0000
  C   C767      1.0  0.51375  0.98511  0.23611  1.0000
  H   H920      1.0  0.64243  0.13700  0.16354  1.0000
  C   C768      1.0  0.68898  0.06111  0.02668  1.0000
  S   S212      1.0  0.89637  0.14671  0.20215  1.0000
  S   S213      1.0  0.86009  0.19465  0.20113  1.0000
  Fe  Fe100     1.0  0.90284  0.32766  0.19614  1.0000
  S   S214      1.0  0.89205  0.36525  0.19627  1.0000
  S   S215      1.0  0.89135  0.29983  0.22468  1.0000
  Fe  Fe101     1.0  0.92596  0.33612  0.14784  1.0000
  S   S216      1.0  0.91714  0.37443  0.14369  1.0000
  S   S217      1.0  0.94524  0.31659  0.12176  1.0000
  Fe  Fe102     1.0  0.92809  0.36915  0.17573  1.0000
  S   S218      1.0  0.95506  0.38872  0.17977  1.0000
  Fe  Fe103     1.0  0.88212  0.36685  0.16431  1.0000
  S   S219      1.0  0.84760  0.38079  0.15448  1.0000
  S   S220      1.0  0.93963  0.33120  0.17837  1.0000
  S   S221      1.0  0.89020  0.32886  0.16596  1.0000
  C   C769      1.0  0.53016  0.00425  0.18052  1.0000
  S   S222      1.0  0.66316  0.16373  0.22098  1.0000
  H   H921      1.0  0.72045  0.12195  0.21628  1.0000
  H   H922      1.0  0.74717  0.06310  0.00808  1.0000
  H   H923      1.0  0.84999  0.32887  0.20828  1.0000
  H   H924      1.0  0.52664  0.02117  0.18467  1.0000
  S   S223      1.0  0.72286  0.01451  0.07118  1.0000
  C   C770      1.0  0.62236  0.11395  0.22957  1.0000
  S   S224      1.0  0.65802  0.01725  0.06712  1.0000
  H   H925      1.0  0.58781  0.00287  0.15549  1.0000
  H   H926      1.0  0.58742  0.00417  0.05632  1.0000
  C   C771      1.0  0.78244  0.28621  0.22483  1.0000
  H   H927      1.0  0.69974  0.21594  0.18328  1.0000
  H   H928      1.0  0.73336  0.03225  0.99535  1.0000
  C   C772      1.0  0.86587  0.08134  0.17544  1.0000
  H   H929      1.0  0.94055  0.03683  0.19209  1.0000
  C   C773      1.0  0.71395  0.18072  0.18215  1.0000
  H   H930      1.0  0.78814  0.35587  0.21509  1.0000
  Fe  Fe104     1.0  0.65896  0.00058  0.03930  1.0000
  C   C774      1.0  0.70971  0.00179  0.11554  1.0000
  C   C775      1.0  0.96098  0.35387  0.21442  1.0000
  C   C776      1.0  0.97196  0.36903  0.19650  1.0000
  C   C777      1.0  0.64559  0.44115  0.22904  1.0000
  H   H931      1.0  0.94208  0.35498  0.21836  1.0000
  C   C778      1.0  0.91545  0.23002  0.20522  1.0000
  C   C779      1.0  0.92835  0.24839  0.19534  1.0000
  C   C780      1.0  0.92081  0.26995  0.20112  1.0000
  C   C781      1.0  0.90082  0.27296  0.21731  1.0000
  C   C782      1.0  0.88829  0.25440  0.22764  1.0000
  C   C783      1.0  0.89531  0.23309  0.22128  1.0000
  H   H932      1.0  0.94395  0.24610  0.18294  1.0000
  H   H933      1.0  0.93075  0.28410  0.19328  1.0000
  H   H934      1.0  0.98141  0.36224  0.14913  1.0000
  H   H935      1.0  0.72143  0.02318  0.02389  1.0000
  C   C784      1.0  0.96088  0.33329  0.09844  1.0000
  Fe  Fe105     1.0  0.69511  0.39646  0.23189  1.0000
  H   H936      1.0  0.67484  0.06430  0.18344  1.0000
  S   S225      1.0  0.65085  0.02274  0.00807  1.0000
  H   H937      1.0  0.69821  0.17662  0.17892  1.0000
  C   C785      1.0  0.79387  0.41286  0.20593  1.0000
  C   C786      1.0  0.78659  0.40331  0.19123  1.0000
  C   C787      1.0  0.80321  0.39413  0.17499  1.0000
  C   C788      1.0  0.82712  0.39414  0.17368  1.0000
  C   C789      1.0  0.83440  0.40387  0.18825  1.0000
  C   C790      1.0  0.81775  0.41342  0.20425  1.0000
  H   H938      1.0  0.76815  0.40322  0.19224  1.0000
  H   H939      1.0  0.79755  0.38676  0.16361  1.0000
  H   H940      1.0  0.85284  0.40419  0.18709  1.0000
  C   C791      1.0  0.71973  0.31243  0.23771  1.0000
  H   H941      1.0  0.96572  0.32592  0.24144  1.0000
  C   C792      1.0  0.97957  0.32237  0.08511  1.0000
  H   H942      1.0  0.96625  0.16853  0.23939  1.0000
  C   C793      1.0  0.70847  0.10935  0.22612  1.0000
  C   C794      1.0  0.71215  0.99954  0.13701  1.0000
  H   H943      1.0  0.79659  0.18047  0.22352  1.0000
  C   C795      1.0  0.78763  0.11067  0.18162  1.0000
  C   C796      1.0  0.79222  0.12684  0.16214  1.0000
  C   C797      1.0  0.81069  0.13989  0.15810  1.0000
  C   C798      1.0  0.82426  0.13736  0.17377  1.0000
  C   C799      1.0  0.81985  0.12103  0.19323  1.0000
  C   C800      1.0  0.80167  0.10749  0.19706  1.0000
  H   H944      1.0  0.78136  0.12944  0.15021  1.0000
  H   H945      1.0  0.81409  0.15241  0.14300  1.0000
  H   H946      1.0  0.83051  0.11871  0.20525  1.0000
  H   H947      1.0  0.79813  0.09505  0.21219  1.0000
  H   H948      1.0  0.82340  0.42090  0.21557  1.0000
  C   C801      1.0  0.74745  0.01773  0.12423  1.0000
  C   C802      1.0  0.74486  0.02021  0.10255  1.0000
  C   C803      1.0  0.72605  0.01199  0.09820  1.0000
  C   C804      1.0  0.60676  0.45993  0.22413  1.0000
  Fe  Fe106     1.0  0.87931  0.13746  0.23742  1.0000
  H   H949      1.0  0.76219  0.02366  0.12752  1.0000
  H   H950      1.0  0.75762  0.02811  0.08917  1.0000
  C   C805      1.0  0.83365  0.34127  0.20972  1.0000
  C   C806      1.0  0.86801  0.05826  0.18596  1.0000
  C   C807      1.0  0.63152  0.03134  0.15808  1.0000
  C   C808      1.0  0.60998  0.02269  0.16400  1.0000
  C   C809      1.0  0.60469  0.00896  0.15140  1.0000
  C   C810      1.0  0.62101  0.00367  0.13312  1.0000
  C   C811      1.0  0.64258  0.01209  0.12745  1.0000
  C   C812      1.0  0.64781  0.02598  0.13984  1.0000
  H   H951      1.0  0.59714  0.02715  0.17787  1.0000
  C   C813      1.0  0.71756  0.03446  0.00839  1.0000
  H   H952      1.0  0.65528  0.00795  0.11348  1.0000
  H   H953      1.0  0.66456  0.03242  0.13530  1.0000
  C   C814      1.0  0.79947  0.26705  0.22651  1.0000
  H   H954      1.0  0.85266  0.08807  0.16563  1.0000
  H   H955      1.0  0.55921  0.99472  0.19578  1.0000
  H   H956      1.0  0.90809  0.09965  0.19181  1.0000
  Fe  Fe107     1.0  0.64388  0.98542  0.08816  1.0000
  H   H957      1.0  0.67463  0.05433  0.02262  1.0000
  H   H958      1.0  0.92415  0.08631  0.22175  1.0000
  H   H959      1.0  0.65276  0.00089  0.19211  1.0000
  H   H960      1.0  0.70322  0.02750  0.00451  1.0000
  H   H961      1.0  0.98477  0.36590  0.12022  1.0000
  H   H962      1.0  0.72838  0.11409  0.14871  1.0000
  H   H963      1.0  0.67524  0.06981  0.14374  1.0000
  C   C815      1.0  0.72975  0.06515  0.01914  1.0000
  H   H964      1.0  0.70057  0.04906  0.14151  1.0000
  H   H965      1.0  0.71242  0.15419  0.14747  1.0000
  H   H966      1.0  0.94694  0.06282  0.22530  1.0000
  H   H967      1.0  0.66086  0.44022  0.23563  1.0000
  C   C816      1.0  0.98756  0.25271  0.23659  1.0000
  C   C817      1.0  0.96970  0.18674  0.23618  1.0000
  C   C818      1.0  0.72863  0.47340  0.20446  1.0000
  H   H968      1.0  0.83281  0.01572  0.23142  1.0000
  H   H969      1.0  0.71653  0.47510  0.17511  1.0000
  H   H970      1.0  0.65149  0.12719  0.20572  1.0000
  H   H971      1.0  0.97403  0.34091  0.13738  1.0000
  C   C819      1.0  0.75392  0.19089  0.19341  1.0000
  Fe  Fe108     1.0  0.57124  0.02942  0.23528  1.0000
  C   C820      1.0  0.73459  0.20808  0.18990  1.0000
  C   C821      1.0  0.82703  0.29109  0.22871  1.0000
  C   C822      1.0  0.71479  0.20286  0.18471  1.0000
  H   H972      1.0  0.92137  0.01888  0.21239  1.0000
  H   H973      1.0  0.76762  0.23280  0.19601  1.0000
  Fe  Fe109     1.0  0.80484  0.01433  0.19666  1.0000
  S   S226      1.0  0.77348  0.42306  0.22717  1.0000
  H   H974      1.0  0.73393  0.22555  0.19177  1.0000
  H   H975      1.0  0.77309  0.32177  0.22485  1.0000
  C   C823      1.0  0.88061  0.09584  0.17772  1.0000
  C   C824      1.0  0.71448  0.29763  0.22615  1.0000
  S   S227      1.0  0.63004  0.04929  0.23469  1.0000
  C   C825      1.0  0.75296  0.16887  0.18950  1.0000
  H   H976      1.0  0.98801  0.40784  0.24115  1.0000
  H   H977      1.0  0.50083  0.00998  0.16478  1.0000
  H   H978      1.0  0.59038  0.44473  0.20540  1.0000
  C   C826      1.0  0.58614  0.00729  0.02330  1.0000
  H   H979      1.0  0.72561  0.08310  0.02199  1.0000
  N   N52       1.0  0.88392  0.26623  0.14791  1.0000
  C   C827      1.0  0.90751  0.27225  0.14658  1.0000
  C   C828      1.0  0.87922  0.24745  0.16735  1.0000
  C   C829      1.0  0.88438  0.25699  0.12841  1.0000
  C   C830      1.0  0.86631  0.28704  0.14857  1.0000
  C   C831      1.0  0.86897  0.30693  0.13165  1.0000
  C   C832      1.0  0.84625  0.28831  0.16573  1.0000
  C   C833      1.0  0.85291  0.32698  0.13215  1.0000
  C   C834      1.0  0.83020  0.30839  0.16593  1.0000
  C   C835      1.0  0.83361  0.32772  0.14927  1.0000
  H   H980      1.0  0.90750  0.28104  0.15994  1.0000
  H   H981      1.0  0.92098  0.25677  0.14779  1.0000
  H   H982      1.0  0.91391  0.28393  0.13097  1.0000
  H   H983      1.0  0.87887  0.25333  0.18256  1.0000
  H   H984      1.0  0.89308  0.23228  0.16673  1.0000
  H   H985      1.0  0.86239  0.24099  0.16873  1.0000
  H   H986      1.0  0.88978  0.26946  0.11299  1.0000
  H   H987      1.0  0.89704  0.24096  0.12770  1.0000
  H   H988      1.0  0.86680  0.25286  0.12845  1.0000
  H   H989      1.0  0.88390  0.30742  0.11821  1.0000
  H   H990      1.0  0.84267  0.27416  0.17935  1.0000
  H   H991      1.0  0.85579  0.34234  0.11956  1.0000
  H   H992      1.0  0.81516  0.30910  0.17922  1.0000
  H   H993      1.0  0.82154  0.34353  0.14974  1.0000
  H   H994      1.0  0.75468  0.21685  0.22226  1.0000
  C   C836      1.0  0.84964  0.00525  0.23003  1.0000
  C   C837      1.0  0.88485  0.04967  0.19882  1.0000
  H   H995      1.0  0.87301  0.25654  0.24039  1.0000
  H   H996      1.0  0.88565  0.03176  0.20680  1.0000
  C   C838      1.0  0.71170  0.47768  0.19175  1.0000
  H   H997      1.0  0.62133  0.10077  0.22112  1.0000
  H   H998      1.0  0.80016  0.36816  0.23185  1.0000
  H   H999      1.0  0.79534  0.25021  0.22672  1.0000
  C   C839      1.0  0.79534  0.35168  0.23021  1.0000
  C   C840      1.0  0.54896  0.98867  0.18694  1.0000
  C   C841      1.0  0.85851  0.99469  0.21211  1.0000
  H   H1000     1.0  0.96321  0.19596  0.22111  1.0000
  C   C842      1.0  0.71623  0.27384  0.23449  1.0000
  H   H1001     1.0  0.71784  0.33083  0.23142  1.0000
  H   H1002     1.0  0.78990  0.16028  0.21092  1.0000
  C   C843      1.0  0.69463  0.06778  0.14096  1.0000
  H   H1003     1.0  0.96601  0.38906  0.07255  1.0000
  C   C844      1.0  0.93170  0.03337  0.20959  1.0000
  C   C845      1.0  0.70057  0.14136  0.15119  1.0000
  C   C846      1.0  0.63806  0.98546  0.99813  1.0000
  H   H1004     1.0  0.70105  0.07722  0.12412  1.0000
  S   S228      1.0  0.84235  0.99736  0.19177  1.0000
  S   S229      1.0  0.70815  0.25576  0.22061  1.0000
  H   H1005     1.0  0.88511  0.21909  0.22889  1.0000
  S   S230      1.0  0.53646  0.02190  0.23244  1.0000
  H   H1006     1.0  0.89257  0.03531  0.24073  1.0000
  C   C847      1.0  0.90436  0.04838  0.23873  1.0000
  H   H1007     1.0  0.73169  0.05378  0.03520  1.0000
  H   H1008     1.0  0.74665  0.46732  0.19770  1.0000
  Fe  Fe110     1.0  0.69327  0.99673  0.06875  1.0000
  C   C848      1.0  0.70953  0.11814  0.15176  1.0000
  C   C849      1.0  0.58239  0.99599  0.04519  1.0000
  C   C850      1.0  0.63927  0.12906  0.22074  1.0000
  S   S231      1.0  0.73303  0.00310  0.16902  1.0000
  H   H1009     1.0  0.66957  0.16607  0.15547  1.0000
  C   C851      1.0  0.67647  0.14812  0.15549  1.0000
  H   H1010     1.0  0.73288  0.14679  0.18148  1.0000
  C   C852      1.0  0.53212  0.99285  0.24150  1.0000
  C   C853      1.0  0.96984  0.37045  0.07602  1.0000
  H   H1011     1.0  0.94091  0.36588  0.10327  1.0000
  C   C854      1.0  0.62472  0.42669  0.20807  1.0000
  C   C855      1.0  0.98686  0.35303  0.13534  1.0000
  C   C856      1.0  0.77035  0.21702  0.20869  1.0000
  C   C857      1.0  0.90015  0.06392  0.20154  1.0000
  H   H1012     1.0  0.94344  0.07649  0.19834  1.0000
  C   C858      1.0  0.73323  0.16389  0.18403  1.0000
  H   H1013     1.0  0.76743  0.15528  0.19070  1.0000
  H   H1014     1.0  0.73670  0.07619  0.16481  1.0000
  C   C859      1.0  0.95574  0.35733  0.09358  1.0000
  C   C860      1.0  0.69438  0.10096  0.15632  1.0000
  S   S232      1.0  0.77632  0.99165  0.20748  1.0000
  C   C861      1.0  0.64077  0.14619  0.23159  1.0000
  H   H1015     1.0  0.98350  0.30377  0.08860  1.0000
  H   H1016     1.0  0.76757  0.17241  0.23106  1.0000
  N   N53       1.0  0.70310  0.07618  0.15726  1.0000
  H   H1017     1.0  0.70064  0.04413  0.18085  1.0000
  N   N54       1.0  0.81577  0.33332  0.22917  1.0000
  H   H1018     1.0  0.78941  0.21270  0.16751  1.0000
  C   C862      1.0  0.64467  0.42518  0.21662  1.0000
  N   N55       1.0  0.91724  0.05447  0.21592  1.0000
  H   H1019     1.0  0.56415  0.99155  0.09022  1.0000
  C   C863      1.0  0.88067  0.98154  0.21039  1.0000
  H   H1020     1.0  0.73697  0.07981  0.13607  1.0000
  S   S233      1.0  0.73167  0.37774  0.22434  1.0000
  C   C864      1.0  0.79405  0.19799  0.18056  1.0000
  H   H1021     1.0  0.79830  0.18230  0.17339  1.0000
  Fe  Fe111     1.0  0.84617  0.18165  0.23643  1.0000
  C   C865      1.0  0.80987  0.31085  0.22790  1.0000
  C   C866      1.0  0.72242  0.47613  0.22612  1.0000
  C   C867      1.0  0.66119  0.13174  0.16001  1.0000
  H   H1022     1.0  0.62385  0.41449  0.19845  1.0000
  H   H1023     1.0  0.76514  0.28420  0.22330  1.0000
  H   H1024     1.0  0.78545  0.21909  0.21523  1.0000
  H   H1025     1.0  0.70854  0.30468  0.21099  1.0000
  C   C868      1.0  0.69421  0.06289  0.17933  1.0000
  C   C869      1.0  0.66992  0.10852  0.16038  1.0000
  H   H1026     1.0  0.69962  0.06920  0.19206  1.0000
  H   H1027     1.0  0.66594  0.00385  0.21317  1.0000
  H   H1028     1.0  0.81044  0.20065  0.18474  1.0000
  H   H1029     1.0  0.69108  0.05121  0.04323  1.0000
  H   H1030     1.0  0.73494  0.05226  0.15372  1.0000
  H   H1031     1.0  0.65730  0.09644  0.16411  1.0000
  C   C870      1.0  0.78736  0.30783  0.22566  1.0000
  H   H1032     1.0  0.82704  0.34387  0.19441  1.0000
  H   H1033     1.0  0.84462  0.29216  0.22994  1.0000
  H   H1034     1.0  0.98907  0.18615  0.23256  1.0000
  H   H1035     1.0  0.97132  0.28786  0.23384  1.0000
  S   S234      1.0  0.61463  0.98638  0.11742  1.0000
  H   H1036     1.0  0.68284  0.07943  0.02788  1.0000
  Fe  Fe112     1.0  0.98434  0.99198  0.23213  1.0000
  S   S235      1.0  0.69533  0.98237  0.03912  1.0000
  H   H1037     1.0  0.83884  0.35797  0.21025  1.0000
  H   H1038     1.0  0.85649  0.04694  0.18424  1.0000
  H   H1039     1.0  0.69916  0.99188  0.15017  1.0000
  H   H1040     1.0  0.70774  0.02400  0.24000  1.0000
  H   H1041     1.0  0.94558  0.02669  0.21932  1.0000
  H   H1042     1.0  0.59399  0.02319  0.01829  1.0000
  C   C871      1.0  0.82177  0.26949  0.22830  1.0000
  C   C872      1.0  0.62675  0.45868  0.23259  1.0000
  C   C873      1.0  0.58064  0.99785  0.00764  1.0000
  H   H1043     1.0  0.69051  0.11759  0.22432  1.0000
  C   C874      1.0  0.96851  0.26991  0.23803  1.0000
  H   H1044     1.0  0.71257  0.09393  0.21851  1.0000
  C   C875      1.0  0.66885  0.99554  0.19894  1.0000
  C   C876      1.0  0.51560  0.99794  0.16940  1.0000
  H   H1045     1.0  0.68333  0.00314  0.18641  1.0000
  H   H1046     1.0  0.83492  0.25444  0.22975  1.0000
  C   C877      1.0  0.98406  0.22949  0.24196  1.0000
  H   H1047     1.0  0.62755  0.47107  0.24200  1.0000
  H   H1048     1.0  0.74237  0.07938  0.24165  1.0000
  S   S236      1.0  0.58095  0.03261  0.26591  1.0000
  C   C878      1.0  0.67072  0.09106  0.26282  1.0000
  H   H1049     1.0  0.55013  0.01585  0.33158  1.0000
  H   H1050     1.0  0.78111  0.34670  0.24450  1.0000
  C   C879      1.0  0.65839  0.42784  0.39427  1.0000
  H   H1051     1.0  0.92408  0.07083  0.38331  1.0000
  C   C880      1.0  0.59491  0.36546  0.44634  1.0000
  H   H1052     1.0  0.94977  0.07487  0.26580  1.0000
  Fe  Fe113     1.0  0.52020  0.43313  0.42219  1.0000
  S   S237      1.0  0.65486  0.22185  0.24351  1.0000
  C   C881      1.0  0.81956  0.99235  0.30997  1.0000
  S   S238      1.0  0.95364  0.12698  0.31685  1.0000
  Fe  Fe114     1.0  0.61664  0.01593  0.25231  1.0000
  C   C882      1.0  0.63357  0.31022  0.47508  1.0000
  H   H1053     1.0  0.69834  0.35991  0.46309  1.0000
  Fe  Fe115     1.0  0.69807  0.18174  0.27683  1.0000
  S   S239      1.0  0.96330  0.99265  0.26563  1.0000
  S   S240      1.0  0.72692  0.15760  0.29034  1.0000
  Fe  Fe116     1.0  0.65148  0.21192  0.27984  1.0000
  C   C883      1.0  0.72406  0.26478  0.25400  1.0000
  S   S241      1.0  0.62204  0.23075  0.30057  1.0000
  C   C884      1.0  0.97362  0.99223  0.35533  1.0000
  H   H1054     1.0  0.51426  0.46786  0.30345  1.0000
  C   C885      1.0  0.62354  0.28981  0.26584  1.0000
  N   N56       1.0  0.64455  0.29863  0.26803  1.0000
  S   S242      1.0  0.66158  0.17383  0.28062  1.0000
  S   S243      1.0  0.68737  0.21880  0.27958  1.0000
  Fe  Fe117     1.0  0.66174  0.31622  0.39158  1.0000
  S   S244      1.0  0.65797  0.28375  0.41660  1.0000
  S   S245      1.0  0.69537  0.33125  0.38014  1.0000
  Fe  Fe118     1.0  0.61205  0.32193  0.38540  1.0000
  S   S246      1.0  0.60340  0.28981  0.41008  1.0000
  S   S247      1.0  0.58760  0.34693  0.36672  1.0000
  Fe  Fe119     1.0  0.62316  0.30228  0.42995  1.0000
  S   S248      1.0  0.61079  0.30363  0.46540  1.0000
  Fe  Fe120     1.0  0.63887  0.27439  0.39444  1.0000
  S   S249      1.0  0.64895  0.23879  0.38750  1.0000
  S   S250      1.0  0.62866  0.33566  0.40668  1.0000
  S   S251      1.0  0.64579  0.30540  0.36801  1.0000
  H   H1055     1.0  0.66850  0.43813  0.42677  1.0000
  H   H1056     1.0  0.96127  0.19524  0.28793  1.0000
  C   C886      1.0  0.63994  0.31191  0.28557  1.0000
  H   H1057     1.0  0.65217  0.04055  0.29250  1.0000
  H   H1058     1.0  0.66127  0.36968  0.40689  1.0000
  H   H1059     1.0  0.63775  0.38989  0.41775  1.0000
  Fe  Fe121     1.0  0.96620  0.98465  0.45243  1.0000
  H   H1060     1.0  0.70179  0.20568  0.32942  1.0000
  C   C887      1.0  0.68956  0.39572  0.46453  1.0000
  H   H1061     1.0  0.63675  0.07940  0.27421  1.0000
  C   C888      1.0  0.95968  0.05747  0.27009  1.0000
  H   H1062     1.0  0.62104  0.26034  0.45048  1.0000
  H   H1063     1.0  0.99115  0.02639  0.28494  1.0000
  Fe  Fe122     1.0  0.69991  0.40254  0.27548  1.0000
  H   H1064     1.0  0.67035  0.31921  0.24607  1.0000
  H   H1065     1.0  0.64234  0.43291  0.40606  1.0000
  H   H1066     1.0  0.54337  0.46446  0.26939  1.0000
  H   H1067     1.0  0.61648  0.27761  0.28090  1.0000
  C   C889      1.0  0.67354  0.31822  0.46876  1.0000
  C   C890      1.0  0.65486  0.31431  0.46086  1.0000
  H   H1068     1.0  0.95114  0.04438  0.26622  1.0000
  S   S252      1.0  0.51467  0.39611  0.43492  1.0000
  H   H1069     1.0  0.69028  0.32044  0.45785  1.0000
  H   H1070     1.0  0.65720  0.31408  0.44383  1.0000
  C   C891      1.0  0.56512  0.35888  0.38546  1.0000
  C   C892      1.0  0.55020  0.37851  0.37828  1.0000
  C   C893      1.0  0.53363  0.38928  0.39350  1.0000
  C   C894      1.0  0.53191  0.38035  0.41584  1.0000
  C   C895      1.0  0.54574  0.35983  0.42291  1.0000
  C   C896      1.0  0.56263  0.34932  0.40776  1.0000
  H   H1071     1.0  0.55168  0.38565  0.36104  1.0000
  H   H1072     1.0  0.52216  0.40452  0.38795  1.0000
  H   H1073     1.0  0.54388  0.35239  0.44010  1.0000
  H   H1074     1.0  0.57377  0.33390  0.41337  1.0000
  C   C897      1.0  0.75247  0.17076  0.28013  1.0000
  C   C898      1.0  0.77450  0.15800  0.28112  1.0000
  C   C899      1.0  0.79289  0.19254  0.26385  1.0000
  C   C900      1.0  0.75080  0.19433  0.27096  1.0000
  H   H1075     1.0  0.77590  0.13975  0.28821  1.0000
  S   S253      1.0  0.88138  0.17125  0.24529  1.0000
  H   H1076     1.0  0.73401  0.20425  0.27004  1.0000
  C   C901      1.0  0.62952  0.23290  0.32474  1.0000
  C   C902      1.0  0.61953  0.25185  0.33443  1.0000
  C   C903      1.0  0.62561  0.25388  0.35362  1.0000
  C   C904      1.0  0.64113  0.23659  0.36349  1.0000
  C   C905      1.0  0.65092  0.21752  0.35392  1.0000
  C   C906      1.0  0.64548  0.21589  0.33434  1.0000
  H   H1077     1.0  0.60710  0.26497  0.32711  1.0000
  H   H1078     1.0  0.61786  0.26858  0.36099  1.0000
  H   H1079     1.0  0.66290  0.20410  0.36154  1.0000
  H   H1080     1.0  0.65315  0.20118  0.32696  1.0000
  C   C907      1.0  0.68404  0.39363  0.32636  1.0000
  C   C908      1.0  0.70679  0.38430  0.32907  1.0000
  C   C909      1.0  0.71036  0.36510  0.34570  1.0000
  C   C910      1.0  0.69119  0.35492  0.35916  1.0000
  C   C911      1.0  0.66852  0.36402  0.35613  1.0000
  C   C912      1.0  0.66491  0.38365  0.34006  1.0000
  H   H1081     1.0  0.72163  0.39200  0.31844  1.0000
  H   H1082     1.0  0.72793  0.35805  0.34797  1.0000
  H   H1083     1.0  0.65366  0.35610  0.36621  1.0000
  H   H1084     1.0  0.64736  0.39067  0.33792  1.0000
  H   H1085     1.0  0.64624  0.39082  0.38892  1.0000
  H   H1086     1.0  0.52378  0.06644  0.24900  1.0000
  H   H1087     1.0  0.68003  0.43220  0.46161  1.0000
  H   H1088     1.0  0.72181  0.05749  0.27235  1.0000
  C   C913      1.0  0.93564  0.12346  0.30018  1.0000
  C   C914      1.0  0.91383  0.11608  0.30990  1.0000
  C   C915      1.0  0.90012  0.11092  0.29715  1.0000
  H   H1089     1.0  0.56907  0.34546  0.48430  1.0000
  H   H1090     1.0  0.98050  0.12500  0.36980  1.0000
  C   C916      1.0  0.94334  0.12655  0.27754  1.0000
  H   H1091     1.0  0.90777  0.11373  0.32737  1.0000
  H   H1092     1.0  0.88340  0.10488  0.30475  1.0000
  H   H1093     1.0  0.69455  0.03052  0.29196  1.0000
  H   H1094     1.0  0.96009  0.13234  0.26991  1.0000
  Fe  Fe123     1.0  0.97902  0.00009  0.40319  1.0000
  H   H1095     1.0  0.61307  0.35730  0.44767  1.0000
  S   S254      1.0  0.90062  0.98584  0.26526  1.0000
  S   S255      1.0  0.54033  0.44920  0.43890  1.0000
  H   H1096     1.0  0.58963  0.39014  0.31362  1.0000
  H   H1097     1.0  0.85574  0.01078  0.25995  1.0000
  C   C917      1.0  0.65541  0.07494  0.27379  1.0000
  H   H1098     1.0  0.63375  0.21140  0.44131  1.0000
  H   H1099     1.0  0.61011  0.41264  0.27699  1.0000
  H   H1100     1.0  0.62610  0.16162  0.25958  1.0000
  H   H1101     1.0  0.87962  0.05751  0.31119  1.0000
  C   C918      1.0  0.63078  0.47953  0.36321  1.0000
  H   H1102     1.0  0.84276  0.31979  0.24819  1.0000
  C   C919      1.0  0.53161  0.45860  0.30422  1.0000
  Fe  Fe124     1.0  0.51496  0.47535  0.38693  1.0000
  H   H1103     1.0  0.69447  0.39343  0.48014  1.0000
  H   H1104     1.0  0.51504  0.99565  0.28936  1.0000
  H   H1105     1.0  0.59601  0.13509  0.27511  1.0000
  H   H1106     1.0  0.68747  0.36455  0.42792  1.0000
  N   N57       1.0  0.63734  0.22817  0.46645  1.0000
  N   N58       1.0  0.96179  0.05189  0.29330  1.0000
  C   C920      1.0  0.97510  0.02858  0.29766  1.0000
  C   C921      1.0  0.54798  0.45662  0.28509  1.0000
  C   C922      1.0  0.97567  0.06862  0.29634  1.0000
  C   C923      1.0  0.93885  0.05232  0.30865  1.0000
  C   C924      1.0  0.91715  0.05574  0.30177  1.0000
  C   C925      1.0  0.93786  0.04767  0.33141  1.0000
  C   C926      1.0  0.91663  0.04617  0.34641  1.0000
  S   S256      1.0  0.74304  0.99980  0.26426  1.0000
  H   H1107     1.0  0.98692  0.38379  0.26367  1.0000
  H   H1108     1.0  0.96419  0.01521  0.29827  1.0000
  C   C927      1.0  0.64686  0.21947  0.44595  1.0000
  C   C928      1.0  0.67623  0.40172  0.42384  1.0000
  C   C929      1.0  0.93430  0.11340  0.37457  1.0000
  H   H1109     1.0  0.95537  0.07175  0.42504  1.0000
  H   H1110     1.0  0.54294  0.08899  0.28992  1.0000
  H   H1111     1.0  0.96627  0.08629  0.29370  1.0000
  H   H1112     1.0  0.91593  0.05964  0.28481  1.0000
  C   C930      1.0  0.72979  0.27952  0.26529  1.0000
  C   C931      1.0  0.79846  0.99120  0.30453  1.0000
  H   H1113     1.0  0.68714  0.40201  0.36957  1.0000
  C   C932      1.0  0.61701  0.42213  0.28653  1.0000
  C   C933      1.0  0.55958  0.38732  0.46243  1.0000
  H   H1114     1.0  0.71502  0.45555  0.27113  1.0000
  H   H1115     1.0  0.57489  0.47540  0.36133  1.0000
  H   H1116     1.0  0.61967  0.43964  0.27667  1.0000
  H   H1117     1.0  0.63479  0.41308  0.28835  1.0000
  H   H1118     1.0  0.50581  0.03574  0.27204  1.0000
  H   H1119     1.0  0.76933  0.22369  0.25678  1.0000
  C   C934      1.0  0.54001  0.02053  0.31885  1.0000
  H   H1120     1.0  0.63037  0.42817  0.32046  1.0000
  Fe  Fe125     1.0  0.59364  0.06556  0.24589  1.0000
  C   C935      1.0  0.52364  0.09151  0.29105  1.0000
  C   C936      1.0  0.65304  0.38796  0.40417  1.0000
  H   H1121     1.0  0.98096  0.02468  0.31344  1.0000
  H   H1122     1.0  0.51940  0.10960  0.28242  1.0000
  H   H1123     1.0  0.70512  0.11989  0.27639  1.0000
  H   H1124     1.0  0.61283  0.45424  0.31060  1.0000
  C   C937      1.0  0.95892  0.98815  0.34288  1.0000
  Fe  Fe126     1.0  0.99216  0.12366  0.30250  1.0000
  H   H1125     1.0  0.66653  0.26805  0.25972  1.0000
  H   H1126     1.0  0.60892  0.44900  0.44186  1.0000
  C   C938      1.0  0.56012  0.43734  0.32544  1.0000
  C   C939      1.0  0.65797  0.32270  0.28876  1.0000
  S   S257      1.0  0.63686  0.98795  0.27339  1.0000
  C   C940      1.0  0.97960  0.11536  0.38635  1.0000
  H   H1127     1.0  0.67055  0.44098  0.39078  1.0000
  H   H1128     1.0  0.70296  0.47449  0.28971  1.0000
  C   C941      1.0  0.52871  0.07791  0.25798  1.0000
  H   H1129     1.0  0.82010  0.00337  0.32088  1.0000
  N   N59       1.0  0.51645  0.07463  0.28115  1.0000
  C   C942      1.0  0.70472  0.12403  0.25868  1.0000
  H   H1130     1.0  0.98817  0.18726  0.27017  1.0000
  C   C943      1.0  0.72734  0.30337  0.25732  1.0000
  H   H1131     1.0  0.78252  0.00127  0.31131  1.0000
  H   H1132     1.0  0.93142  0.17522  0.26475  1.0000
  H   H1133     1.0  0.59755  0.32770  0.32797  1.0000
  S   S258      1.0  0.96284  0.01087  0.37369  1.0000
  H   H1134     1.0  0.94072  0.99562  0.34534  1.0000
  H   H1135     1.0  0.73604  0.27242  0.28024  1.0000
  H   H1136     1.0  0.97738  0.06868  0.36733  1.0000
  C   C944      1.0  0.62312  0.42831  0.46909  1.0000
  S   S259      1.0  0.68611  0.37537  0.26552  1.0000
  H   H1137     1.0  0.94609  0.05724  0.39842  1.0000
  C   C945      1.0  0.65350  0.31331  0.24667  1.0000
  H   H1138     1.0  0.60333  0.30611  0.29949  1.0000
  S   S260      1.0  0.54164  0.44395  0.38877  1.0000
  C   C946      1.0  0.66403  0.05315  0.28419  1.0000
  C   C947      1.0  0.94215  0.24084  0.25024  1.0000
  N   N60       1.0  0.58351  0.37630  0.46520  1.0000
  C   C948      1.0  0.90813  0.11328  0.27465  1.0000
  H   H1139     1.0  0.63249  0.44163  0.47052  1.0000
  N   N61       1.0  0.66970  0.40432  0.40250  1.0000
  H   H1140     1.0  0.94406  0.12740  0.36378  1.0000
  S   S261      1.0  0.59846  0.46097  0.39772  1.0000
  H   H1141     1.0  0.52483  0.45033  0.33921  1.0000
  C   C949      1.0  0.59780  0.39367  0.46628  1.0000
  C   C950      1.0  0.61211  0.43599  0.31940  1.0000
  H   H1142     1.0  0.91657  0.04162  0.36373  1.0000
  H   H1143     1.0  0.92261  0.10995  0.36478  1.0000
  H   H1144     1.0  0.97958  0.06470  0.31292  1.0000
  C   C951      1.0  0.67476  0.42071  0.43394  1.0000
  C   C952      1.0  0.63233  0.33711  0.31924  1.0000
  C   C953      1.0  0.96556  0.08565  0.41694  1.0000
  C   C954      1.0  0.57734  0.43521  0.30628  1.0000
  C   C955      1.0  0.92946  0.12167  0.26473  1.0000
  H   H1145     1.0  0.95369  0.04435  0.33774  1.0000
  C   C956      1.0  0.68138  0.41760  0.45400  1.0000
  H   H1146     1.0  0.92316  0.12037  0.38870  1.0000
  C   C957      1.0  0.89568  0.04970  0.33916  1.0000
  H   H1147     1.0  0.70449  0.41039  0.38510  1.0000
  H   H1148     1.0  0.55927  0.39774  0.44575  1.0000
  H   H1149     1.0  0.81183  0.15893  0.27318  1.0000
  H   H1150     1.0  0.71698  0.13698  0.25061  1.0000
  C   C958      1.0  0.70348  0.06333  0.27242  1.0000
  C   C959      1.0  0.67709  0.24214  0.46022  1.0000
  H   H1151     1.0  0.69926  0.38095  0.39003  1.0000
  C   C960      1.0  0.68794  0.04751  0.28378  1.0000
  H   H1152     1.0  0.54118  0.05612  0.31530  1.0000
  C   C961      1.0  0.61438  0.32646  0.31680  1.0000
  H   H1153     1.0  0.65278  0.42904  0.37866  1.0000
  C   C962      1.0  0.68516  0.37972  0.43484  1.0000
  N   N62       1.0  0.71395  0.27759  0.33708  1.0000
  C   C963      1.0  0.70413  0.27295  0.36085  1.0000
  C   C964      1.0  0.73249  0.29267  0.33301  1.0000
  C   C965      1.0  0.69533  0.29070  0.32546  1.0000
  C   C966      1.0  0.72241  0.25539  0.32992  1.0000
  C   C967      1.0  0.70659  0.23932  0.33263  1.0000
  C   C968      1.0  0.74628  0.24876  0.32073  1.0000
  C   C969      1.0  0.71419  0.21774  0.32709  1.0000
  C   C970      1.0  0.75369  0.22712  0.31514  1.0000
  C   C971      1.0  0.73774  0.21155  0.31866  1.0000
  H   H1154     1.0  0.71728  0.26222  0.37011  1.0000
  H   H1155     1.0  0.69845  0.28916  0.36714  1.0000
  H   H1156     1.0  0.68850  0.26371  0.36512  1.0000
  H   H1157     1.0  0.74665  0.28437  0.34205  1.0000
  H   H1158     1.0  0.72542  0.30927  0.33851  1.0000
  H   H1159     1.0  0.74024  0.29736  0.31530  1.0000
  H   H1160     1.0  0.67946  0.28183  0.32949  1.0000
  H   H1161     1.0  0.68942  0.30797  0.32977  1.0000
  H   H1162     1.0  0.70178  0.29351  0.30748  1.0000
  H   H1163     1.0  0.68820  0.24322  0.33939  1.0000
  H   H1164     1.0  0.75953  0.25998  0.31756  1.0000
  H   H1165     1.0  0.77192  0.22233  0.30802  1.0000
  H   H1166     1.0  0.74359  0.19461  0.31480  1.0000
  N   N63       1.0  0.95010  0.09239  0.38192  1.0000
  H   H1167     1.0  0.95476  0.08065  0.35188  1.0000
  C   C972      1.0  0.59978  0.39942  0.32057  1.0000
  C   C973      1.0  0.62512  0.14836  0.25118  1.0000
  C   C974      1.0  0.96488  0.09776  0.39524  1.0000
  C   C975      1.0  0.61626  0.24494  0.46316  1.0000
  H   H1168     1.0  0.68694  0.13294  0.25689  1.0000
  H   H1169     1.0  0.62944  0.34657  0.33220  1.0000
  C   C976      1.0  0.96526  0.08451  0.36251  1.0000
  C   C977      1.0  0.52028  0.00912  0.29511  1.0000
  C   C978      1.0  0.61799  0.31403  0.30026  1.0000
  H   H1170     1.0  0.92328  0.07877  0.40855  1.0000
  H   H1171     1.0  0.60241  0.43625  0.33637  1.0000
  H   H1172     1.0  0.56396  0.43027  0.34147  1.0000
  H   H1173     1.0  0.60328  0.23744  0.45779  1.0000
  C   C979      1.0  0.62501  0.40676  0.48289  1.0000
  C   C980      1.0  0.59259  0.47957  0.35588  1.0000
  H   H1174     1.0  0.58232  0.44453  0.27047  1.0000
  H   H1175     1.0  0.52505  0.09596  0.24903  1.0000
  C   C981      1.0  0.71367  0.99614  0.26664  1.0000
  C   C982      1.0  0.63017  0.20826  0.48390  1.0000
  C   C983      1.0  0.69105  0.39919  0.38613  1.0000
  S   S262      1.0  0.73371  0.32152  0.27215  1.0000
  C   C984      1.0  0.98017  0.09086  0.42880  1.0000
  S   S263      1.0  0.58596  0.09685  0.26086  1.0000
  C   C985      1.0  0.59758  0.41529  0.45146  1.0000
  C   C986      1.0  0.60982  0.43242  0.45309  1.0000
  C   C987      1.0  0.94589  0.26400  0.24494  1.0000
  C   C988      1.0  0.53467  0.04374  0.30928  1.0000
  Fe  Fe127     1.0  0.72344  0.35914  0.25924  1.0000
  H   H1176     1.0  0.92353  0.20102  0.27520  1.0000
  H   H1177     1.0  0.58792  0.41920  0.43846  1.0000
  H   H1178     1.0  0.54741  0.37444  0.46471  1.0000
  H   H1179     1.0  0.72596  0.24640  0.26028  1.0000
  S   S264      1.0  0.73648  0.38445  0.27253  1.0000
  C   C989      1.0  0.60787  0.47418  0.37044  1.0000
  H   H1180     1.0  0.60943  0.30411  0.26210  1.0000
  H   H1181     1.0  0.65613  0.26688  0.28845  1.0000
  C   C990      1.0  0.60675  0.11608  0.24922  1.0000
  H   H1182     1.0  0.61739  0.38928  0.32050  1.0000
  C   C991      1.0  0.53763  0.44882  0.32434  1.0000
  H   H1183     1.0  0.68343  0.23651  0.44494  1.0000
  H   H1184     1.0  0.60703  0.25137  0.47816  1.0000
  C   C992      1.0  0.79478  0.16884  0.27263  1.0000
  H   H1185     1.0  0.64572  0.19586  0.48770  1.0000
  S   S265      1.0  0.81776  0.20615  0.25159  1.0000
  C   C993      1.0  0.89595  0.05453  0.31689  1.0000
  C   C994      1.0  0.77088  0.20535  0.26345  1.0000
  H   H1186     1.0  0.54797  0.07416  0.25667  1.0000
  C   C995      1.0  0.60805  0.13339  0.25992  1.0000
  H   H1187     1.0  0.58527  0.35158  0.44536  1.0000
  C   C996      1.0  0.69158  0.37685  0.45493  1.0000
  H   H1188     1.0  0.59123  0.39869  0.33800  1.0000
  C   C997      1.0  0.65408  0.33521  0.30529  1.0000
  C   C998      1.0  0.53287  0.00327  0.31175  1.0000
  H   H1189     1.0  0.66243  0.20621  0.44736  1.0000
  H   H1190     1.0  0.87923  0.04852  0.35080  1.0000
  C   C999      1.0  0.67689  0.00794  0.25434  1.0000
  H   H1191     1.0  0.51479  0.09027  0.30847  1.0000
  S   S266      1.0  0.67963  0.41629  0.30462  1.0000
  N   N64       1.0  0.60119  0.42339  0.30798  1.0000
  H   H1192     1.0  0.92414  0.23762  0.25517  1.0000
  N   N65       1.0  0.95812  0.19805  0.25480  1.0000
  S   S267      1.0  0.96718  0.01953  0.43032  1.0000
  H   H1193     1.0  0.66804  0.34344  0.30737  1.0000
  H   H1194     1.0  0.67911  0.28366  0.27350  1.0000
  C   C1000     1.0  0.57054  0.44509  0.28598  1.0000
  H   H1195     1.0  0.67529  0.32151  0.27853  1.0000
  H   H1196     1.0  0.65181  0.23369  0.43191  1.0000
  H   H1197     1.0  0.97605  0.09787  0.35213  1.0000
  C   C1001     1.0  0.66634  0.99123  0.27091  1.0000
  C   C1002     1.0  0.93526  0.07403  0.39369  1.0000
  C   C1003     1.0  0.52195  0.05031  0.29213  1.0000
  C   C1004     1.0  0.65423  0.23934  0.47292  1.0000
  C   C1005     1.0  0.69526  0.08571  0.26153  1.0000
  H   H1198     1.0  0.56103  0.98328  0.25814  1.0000
  C   C1006     1.0  0.66237  0.27849  0.27263  1.0000
  H   H1199     1.0  0.98114  0.08083  0.44502  1.0000
  H   H1200     1.0  0.62767  0.27988  0.25255  1.0000
  C   C1007     1.0  0.70038  0.01035  0.25221  1.0000
  C   C1008     1.0  0.51495  0.03223  0.28537  1.0000
  C   C1009     1.0  0.93320  0.19394  0.26064  1.0000
  H   H1201     1.0  0.97708  0.05765  0.25900  1.0000
  H   H1202     1.0  0.73963  0.09054  0.26613  1.0000
  H   H1203     1.0  0.53737  0.98528  0.31895  1.0000
  C   C1010     1.0  0.61284  0.38950  0.48142  1.0000
  H   H1204     1.0  0.57429  0.45271  0.48525  1.0000
  C   C1011     1.0  0.58075  0.35773  0.48509  1.0000
  H   H1205     1.0  0.61836  0.19875  0.47912  1.0000
  C   C1012     1.0  0.96895  0.18671  0.27383  1.0000
  H   H1206     1.0  0.66317  0.10781  0.25529  1.0000
  H   H1207     1.0  0.81331  0.32320  0.26386  1.0000
  H   H1208     1.0  0.59572  0.37813  0.43060  1.0000
  H   H1209     1.0  0.66709  0.01907  0.24305  1.0000
  C   C1013     1.0  0.67005  0.47311  0.26959  1.0000
  N   N66       1.0  0.71104  0.10300  0.24920  1.0000
  S   S268      1.0  0.89183  0.10506  0.25906  1.0000
  Fe  Fe128     1.0  0.66815  0.18444  0.24408  1.0000
  C   C1014     1.0  0.69248  0.25289  0.46685  1.0000
  H   H1210     1.0  0.70964  0.25532  0.45676  1.0000
  C   C1015     1.0  0.82550  0.33083  0.24895  1.0000
  H   H1211     1.0  0.93551  0.12380  0.24726  1.0000
  C   C1016     1.0  0.96123  0.22280  0.24890  1.0000
  H   H1212     1.0  0.91641  0.04094  0.25020  1.0000
  H   H1213     1.0  0.67244  0.45530  0.26668  1.0000
  H   H1214     1.0  0.96640  0.16820  0.27930  1.0000
  Fe  Fe129     1.0  0.69172  0.22583  0.24329  1.0000
  Fe  Fe130     1.0  0.55940  0.46254  0.40511  1.0000
  H   H1215     1.0  0.82867  0.34776  0.25112  1.0000
  C   C1017     1.0  0.73621  0.09475  0.24928  1.0000
  H   H1216     1.0  0.89317  0.06374  0.24412  1.0000
  H   H1217     1.0  0.59759  0.34681  0.48694  1.0000
  C   C1018     1.0  0.68579  0.26088  0.48628  1.0000
  H   H1218     1.0  0.64083  0.32903  0.24292  1.0000
  C   C1019     1.0  0.67071  0.31902  0.49074  1.0000
  C   C1020     1.0  0.86270  0.00243  0.24622  1.0000
  H   H1219     1.0  0.93111  0.27752  0.24599  1.0000
  H   H1220     1.0  0.92418  0.20161  0.24679  1.0000
  H   H1221     1.0  0.64253  0.47580  0.37447  1.0000
  C   C1021     1.0  0.88475  0.98909  0.24461  1.0000
  Fe  Fe131     1.0  0.51416  0.48051  0.43268  1.0000
  C   C1022     1.0  0.70950  0.47404  0.27211  1.0000
  H   H1222     1.0  0.55072  0.47548  0.48541  1.0000
  H   H1223     1.0  0.55161  0.39865  0.47431  1.0000
  H   H1224     1.0  0.66580  0.47173  0.28759  1.0000
  H   H1225     1.0  0.69759  0.26959  0.49120  1.0000
  S   S269      1.0  0.70612  0.42487  0.24242  1.0000
  Fe  Fe132     1.0  0.65208  0.35536  0.56678  1.0000
  Fe  Fe133     1.0  0.88966  0.09095  0.59895  1.0000
  S   S270      1.0  0.88791  0.05579  0.62028  1.0000
  S   S271      1.0  0.91528  0.09634  0.56701  1.0000
  Fe  Fe134     1.0  0.85175  0.11314  0.63048  1.0000
  S   S272      1.0  0.84716  0.08022  0.65498  1.0000
  S   S273      1.0  0.82922  0.14555  0.63697  1.0000
  Fe  Fe135     1.0  0.88646  0.07397  0.64722  1.0000
  S   S274      1.0  0.90680  0.05744  0.67351  1.0000
  Fe  Fe136     1.0  0.84897  0.06521  0.62594  1.0000
  S   S275      1.0  0.82583  0.04032  0.62362  1.0000
  S   S276      1.0  0.89085  0.10860  0.62547  1.0000
  S   S277      1.0  0.85073  0.09877  0.60181  1.0000
  C   C1023     1.0  0.97785  0.28726  0.68209  1.0000
  C   C1024     1.0  0.90367  0.02829  0.57355  1.0000
  C   C1025     1.0  0.90320  0.43445  0.64394  1.0000
  C   C1026     1.0  0.97084  0.33576  0.67283  1.0000
  H   H1226     1.0  0.93720  0.37270  0.63254  1.0000
  C   C1027     1.0  0.98382  0.98672  0.67543  1.0000
  C   C1028     1.0  0.54048  0.40030  0.65593  1.0000
  C   C1029     1.0  0.87030  0.42200  0.63551  1.0000
  C   C1030     1.0  0.65919  0.44726  0.70908  1.0000
  H   H1227     1.0  0.88994  0.02445  0.51867  1.0000
  H   H1228     1.0  0.66448  0.46842  0.55628  1.0000
  H   H1229     1.0  0.75732  0.40913  0.54261  1.0000
  H   H1230     1.0  0.97479  0.33322  0.70570  1.0000
  S   S278      1.0  0.67155  0.17700  0.70923  1.0000
  H   H1231     1.0  0.94476  0.03916  0.69584  1.0000
  H   H1232     1.0  0.90545  0.01669  0.65442  1.0000
  C   C1031     1.0  0.98011  0.04357  0.57178  1.0000
  H   H1233     1.0  0.63391  0.41422  0.55259  1.0000
  H   H1234     1.0  0.72795  0.23475  0.73085  1.0000
  Fe  Fe137     1.0  0.85569  0.25569  0.69770  1.0000
  S   S279      1.0  0.82798  0.27163  0.72219  1.0000
  S   S280      1.0  0.88283  0.27168  0.67062  1.0000
  Fe  Fe138     1.0  0.84365  0.20717  0.71789  1.0000
  C   C1032     1.0  0.90744  0.30683  0.70239  1.0000
  S   S281      1.0  0.85595  0.16990  0.71700  1.0000
  Fe  Fe139     1.0  0.80566  0.24771  0.71708  1.0000
  H   H1235     1.0  0.95442  0.08339  0.53430  1.0000
  C   C1033     1.0  0.57623  0.47627  0.51436  1.0000
  S   S282      1.0  0.98222  0.25699  0.68670  1.0000
  S   S283      1.0  0.83252  0.23433  0.69054  1.0000
  S   S284      1.0  0.86941  0.22748  0.72242  1.0000
  C   C1034     1.0  0.73454  0.11027  0.65483  1.0000
  Fe  Fe140     1.0  0.63515  0.32741  0.71515  1.0000
  H   H1236     1.0  0.97414  0.17170  0.66862  1.0000
  S   S285      1.0  0.65407  0.29566  0.70330  1.0000
  C   C1035     1.0  0.64303  0.44418  0.52823  1.0000
  C   C1036     1.0  0.64795  0.24791  0.49252  1.0000
  C   C1037     1.0  0.84460  0.47503  0.68762  1.0000
  S   S286      1.0  0.65534  0.35755  0.70184  1.0000
  Fe  Fe141     1.0  0.76373  0.40592  0.65752  1.0000
  S   S287      1.0  0.72960  0.41393  0.64598  1.0000
  Fe  Fe142     1.0  0.81405  0.38449  0.64809  1.0000
  S   S288      1.0  0.84195  0.36924  0.62358  1.0000
  Fe  Fe143     1.0  0.78610  0.37616  0.69394  1.0000
  C   C1038     1.0  0.72254  0.43863  0.58002  1.0000
  S   S289      1.0  0.78070  0.36924  0.66303  1.0000
  N   N67       1.0  0.79506  0.30079  0.63885  1.0000
  H   H1237     1.0  0.90415  0.18323  0.71327  1.0000
  C   C1039     1.0  0.64906  0.31610  0.50482  1.0000
  H   H1238     1.0  0.60781  0.47536  0.62344  1.0000
  C   C1040     1.0  0.73249  0.35824  0.71900  1.0000
  C   C1041     1.0  0.58145  0.39672  0.53613  1.0000
  H   H1239     1.0  0.72323  0.03108  0.73338  1.0000
  H   H1240     1.0  0.52086  0.38136  0.73175  1.0000
  H   H1241     1.0  0.69713  0.36314  0.71411  1.0000
  H   H1242     1.0  0.74030  0.35652  0.70243  1.0000
  H   H1243     1.0  0.72026  0.41534  0.52947  1.0000
  C   C1042     1.0  0.66131  0.43663  0.59334  1.0000
  C   C1043     1.0  0.87184  0.29901  0.65777  1.0000
  C   C1044     1.0  0.85219  0.31139  0.66857  1.0000
  C   C1045     1.0  0.84318  0.33312  0.65812  1.0000
  C   C1046     1.0  0.85365  0.34237  0.63673  1.0000
  C   C1047     1.0  0.87341  0.33008  0.62591  1.0000
  C   C1048     1.0  0.88266  0.30846  0.63654  1.0000
  H   H1244     1.0  0.84397  0.30438  0.68505  1.0000
  H   H1245     1.0  0.82794  0.34252  0.66659  1.0000
  H   H1246     1.0  0.88154  0.33725  0.60936  1.0000
  H   H1247     1.0  0.89793  0.29889  0.62818  1.0000
  C   C1049     1.0  0.63060  0.31128  0.49706  1.0000
  C   C1050     1.0  0.84760  0.99393  0.56825  1.0000
  C   C1051     1.0  0.66737  0.24992  0.71626  1.0000
  C   C1052     1.0  0.65142  0.26896  0.72122  1.0000
  C   C1053     1.0  0.68189  0.46132  0.60420  1.0000
  H   H1248     1.0  0.67060  0.40098  0.70977  1.0000
  H   H1249     1.0  0.52215  0.45888  0.53061  1.0000
  H   H1250     1.0  0.68115  0.25188  0.70184  1.0000
  H   H1251     1.0  0.98083  0.29005  0.71405  1.0000
  H   H1252     1.0  0.79152  0.31776  0.66572  1.0000
  H   H1253     1.0  0.87429  0.37440  0.65212  1.0000
  C   C1054     1.0  0.62044  0.36326  0.61325  1.0000
  N   N68       1.0  0.93268  0.19659  0.68825  1.0000
  H   H1254     1.0  0.70516  0.07047  0.62946  1.0000
  S   S290      1.0  0.60115  0.34703  0.70766  1.0000
  H   H1255     1.0  0.76818  0.38817  0.62131  1.0000
  H   H1256     1.0  0.78274  0.08348  0.62467  1.0000
  H   H1257     1.0  0.71650  0.09747  0.61748  1.0000
  H   H1258     1.0  0.70007  0.09212  0.64496  1.0000
  H   H1259     1.0  0.86101  0.05086  0.58278  1.0000
  S   S291      1.0  0.70670  0.37094  0.52334  1.0000
  C   C1055     1.0  0.94005  0.14238  0.65261  1.0000
  H   H1260     1.0  0.59403  0.46907  0.50664  1.0000
  C   C1056     1.0  0.66912  0.47336  0.57015  1.0000
  C   C1057     1.0  0.98226  0.07318  0.65904  1.0000
  H   H1261     1.0  0.84181  0.44875  0.62922  1.0000
  H   H1262     1.0  0.91610  0.23188  0.68602  1.0000
  H   H1263     1.0  0.76955  0.36461  0.59427  1.0000
  H   H1264     1.0  0.91559  0.36693  0.67198  1.0000
  H   H1265     1.0  0.65835  0.26499  0.51400  1.0000
  C   C1058     1.0  0.91738  0.21675  0.67849  1.0000
  H   H1266     1.0  0.64502  0.41966  0.73497  1.0000
  H   H1267     1.0  0.60971  0.10434  0.72224  1.0000
  H   H1268     1.0  0.53604  0.41776  0.71406  1.0000
  C   C1059     1.0  0.74270  0.42716  0.56884  1.0000
  H   H1269     1.0  0.97378  0.09652  0.63019  1.0000
  C   C1060     1.0  0.63386  0.26632  0.74009  1.0000
  H   H1270     1.0  0.98871  0.05310  0.53675  1.0000
  H   H1271     1.0  0.64438  0.44460  0.60201  1.0000
  C   C1061     1.0  0.80624  0.02905  0.64732  1.0000
  C   C1062     1.0  0.79340  0.01189  0.64668  1.0000
  C   C1063     1.0  0.77769  0.00250  0.66533  1.0000
  C   C1064     1.0  0.77516  0.00986  0.68486  1.0000
  C   C1065     1.0  0.78805  0.02695  0.68556  1.0000
  C   C1066     1.0  0.80325  0.03682  0.66673  1.0000
  H   H1272     1.0  0.79566  0.00576  0.63174  1.0000
  C   C1067     1.0  0.64963  0.10895  0.68287  1.0000
  H   H1273     1.0  0.78610  0.03277  0.70061  1.0000
  H   H1274     1.0  0.81273  0.05025  0.66736  1.0000
  C   C1068     1.0  0.83628  0.15199  0.65947  1.0000
  C   C1069     1.0  0.85281  0.13713  0.67023  1.0000
  C   C1070     1.0  0.85862  0.14254  0.68810  1.0000
  C   C1071     1.0  0.84797  0.16285  0.69517  1.0000
  C   C1072     1.0  0.83073  0.17718  0.68499  1.0000
  C   C1073     1.0  0.82508  0.17185  0.66700  1.0000
  H   H1275     1.0  0.86122  0.12149  0.66480  1.0000
  H   H1276     1.0  0.87161  0.13112  0.69614  1.0000
  H   H1277     1.0  0.82132  0.19206  0.69119  1.0000
  H   H1278     1.0  0.81193  0.18295  0.65899  1.0000
  H   H1279     1.0  0.96416  0.21145  0.67089  1.0000
  H   H1280     1.0  0.56835  0.46733  0.67615  1.0000
  C   C1074     1.0  0.95104  0.05172  0.68152  1.0000
  C   C1075     1.0  0.93609  0.06292  0.66727  1.0000
  C   C1076     1.0  0.94454  0.07875  0.64855  1.0000
  C   C1077     1.0  0.96750  0.08401  0.64455  1.0000
  S   S292      1.0  0.79679  0.42075  0.63985  1.0000
  H   H1281     1.0  0.93338  0.08712  0.63723  1.0000
  H   H1282     1.0  0.89817  0.17640  0.68053  1.0000
  H   H1283     1.0  0.91848  0.39577  0.67217  1.0000
  S   S293      1.0  0.62124  0.34742  0.59351  1.0000
  C   C1078     1.0  0.62232  0.35166  0.63434  1.0000
  C   C1079     1.0  0.62266  0.36405  0.65007  1.0000
  H   H1284     1.0  0.62390  0.33305  0.63844  1.0000
  H   H1285     1.0  0.62544  0.35482  0.66590  1.0000
  C   C1080     1.0  0.94143  0.07778  0.56903  1.0000
  C   C1081     1.0  0.55703  0.45849  0.49498  1.0000
  C   C1082     1.0  0.75212  0.38618  0.61718  1.0000
  H   H1286     1.0  0.88732  0.41894  0.69957  1.0000
  S   S294      1.0  0.67091  0.38430  0.56697  1.0000
  C   C1083     1.0  0.95745  0.07382  0.55008  1.0000
  C   C1084     1.0  0.85389  0.43373  0.69076  1.0000
  S   S295      1.0  0.82144  0.38767  0.67974  1.0000
  C   C1085     1.0  0.61820  0.38736  0.60803  1.0000
  C   C1086     1.0  0.61953  0.38817  0.64523  1.0000
  C   C1087     1.0  0.73840  0.22765  0.71717  1.0000
  C   C1088     1.0  0.77519  0.16291  0.73119  1.0000
  S   S296      1.0  0.96017  0.42798  0.72990  1.0000
  H   H1287     1.0  0.75737  0.30644  0.64392  1.0000
  C   C1089     1.0  0.70068  0.43337  0.55457  1.0000
  H   H1288     1.0  0.61462  0.41849  0.62034  1.0000
  C   C1090     1.0  0.86499  0.00104  0.52990  1.0000
  H   H1289     1.0  0.88925  0.37934  0.62386  1.0000
  H   H1290     1.0  0.71671  0.20109  0.72152  1.0000
  S   S297      1.0  0.75625  0.99779  0.70862  1.0000
  H   H1291     1.0  0.59821  0.45620  0.64825  1.0000
  H   H1292     1.0  0.54233  0.42674  0.68513  1.0000
  S   S298      1.0  0.90841  0.45837  0.70284  1.0000
  C   C1091     1.0  0.88254  0.28912  0.73496  1.0000
  H   H1293     1.0  0.95685  0.99251  0.50472  1.0000
  C   C1092     1.0  0.63153  0.43279  0.54835  1.0000
  H   H1294     1.0  0.91914  0.20231  0.72101  1.0000
  H   H1295     1.0  0.61669  0.39625  0.59169  1.0000
  C   C1093     1.0  0.61726  0.39986  0.62414  1.0000
  H   H1296     1.0  0.81804  0.13979  0.72905  1.0000
  S   S299      1.0  0.70047  0.12485  0.71293  1.0000
  H   H1297     1.0  0.69969  0.31306  0.73332  1.0000
  H   H1298     1.0  0.86969  0.03282  0.67510  1.0000
  H   H1299     1.0  0.52928  0.46893  0.61617  1.0000
  S   S300      1.0  0.73932  0.17413  0.68887  1.0000
  H   H1300     1.0  0.81147  0.33195  0.62666  1.0000
  C   C1094     1.0  0.91798  0.15239  0.66157  1.0000
  Fe  Fe144     1.0  0.66336  0.14113  0.71359  1.0000
  C   C1095     1.0  0.61909  0.44884  0.73098  1.0000
  H   H1301     1.0  0.69806  0.40338  0.69123  1.0000
  C   C1096     1.0  0.87543  0.43454  0.69620  1.0000
  C   C1097     1.0  0.54326  0.41143  0.69864  1.0000
  H   H1302     1.0  0.78014  0.29060  0.67294  1.0000
  H   H1303     1.0  0.71644  0.10938  0.66296  1.0000
  C   C1098     1.0  0.79892  0.27685  0.63527  1.0000
  C   C1099     1.0  0.78177  0.26692  0.62955  1.0000
  C   C1100     1.0  0.82018  0.26242  0.63817  1.0000
  C   C1101     1.0  0.78598  0.24413  0.62657  1.0000
  C   C1102     1.0  0.82420  0.23970  0.63508  1.0000
  C   C1103     1.0  0.80719  0.23062  0.62918  1.0000
  H   H1304     1.0  0.76492  0.27629  0.62739  1.0000
  H   H1305     1.0  0.83378  0.26849  0.64317  1.0000
  H   H1306     1.0  0.77263  0.23675  0.62243  1.0000
  H   H1307     1.0  0.84049  0.22894  0.63757  1.0000
  H   H1308     1.0  0.81035  0.21297  0.62684  1.0000
  N   N69       1.0  0.68816  0.30972  0.63681  1.0000
  C   C1104     1.0  0.68166  0.33199  0.62240  1.0000
  C   C1105     1.0  0.70220  0.29397  0.62257  1.0000
  C   C1106     1.0  0.66612  0.30022  0.64842  1.0000
  C   C1107     1.0  0.70163  0.31180  0.65280  1.0000
  C   C1108     1.0  0.70740  0.33323  0.65439  1.0000
  C   C1109     1.0  0.70953  0.29190  0.66743  1.0000
  C   C1110     1.0  0.72003  0.33451  0.66979  1.0000
  C   C1111     1.0  0.72218  0.29337  0.68271  1.0000
  C   C1112     1.0  0.72736  0.31462  0.68398  1.0000
  H   H1309     1.0  0.69745  0.33928  0.61199  1.0000
  H   H1310     1.0  0.67079  0.33002  0.61116  1.0000
  H   H1311     1.0  0.67105  0.34482  0.63194  1.0000
  H   H1312     1.0  0.71927  0.30021  0.61406  1.0000
  H   H1313     1.0  0.69296  0.29280  0.60976  1.0000
  H   H1314     1.0  0.70582  0.27608  0.63182  1.0000
  H   H1315     1.0  0.65492  0.31189  0.65893  1.0000
  H   H1316     1.0  0.65566  0.29808  0.63693  1.0000
  H   H1317     1.0  0.66918  0.28307  0.65922  1.0000
  H   H1318     1.0  0.70220  0.34931  0.64406  1.0000
  H   H1319     1.0  0.70551  0.27505  0.66752  1.0000
  H   H1320     1.0  0.72403  0.35111  0.67076  1.0000
  H   H1321     1.0  0.72772  0.27791  0.69384  1.0000
  H   H1322     1.0  0.73708  0.31558  0.69600  1.0000
  N   N70       1.0  0.88858  0.03917  0.55754  1.0000
  S   S301      1.0  0.69107  0.01303  0.71172  1.0000
  C   C1113     1.0  0.90388  0.05049  0.53750  1.0000
  C   C1114     1.0  0.87124  0.05743  0.56630  1.0000
  C   C1115     1.0  0.87600  0.02176  0.55384  1.0000
  C   C1116     1.0  0.86035  0.00983  0.57141  1.0000
  C   C1117     1.0  0.87807  0.01677  0.53292  1.0000
  H   H1323     1.0  0.97714  0.14132  0.64869  1.0000
  C   C1118     1.0  0.91828  0.26765  0.71933  1.0000
  H   H1324     1.0  0.62043  0.21361  0.49929  1.0000
  C   C1119     1.0  0.55069  0.39306  0.63636  1.0000
  H   H1325     1.0  0.68486  0.43519  0.54840  1.0000
  H   H1326     1.0  0.92487  0.33273  0.71868  1.0000
  C   C1120     1.0  0.97459  0.32375  0.69345  1.0000
  C   C1121     1.0  0.92166  0.18860  0.71140  1.0000
  H   H1327     1.0  0.91784  0.03772  0.53045  1.0000
  C   C1122     1.0  0.93564  0.17768  0.67633  1.0000
  C   C1123     1.0  0.64727  0.08520  0.65796  1.0000
  H   H1328     1.0  0.85363  0.02288  0.65968  1.0000
  S   S302      1.0  0.51104  0.46410  0.66197  1.0000
  H   H1329     1.0  0.62927  0.11969  0.65780  1.0000
  H   H1330     1.0  0.86720  0.99716  0.51389  1.0000
  H   H1331     1.0  0.50346  0.41877  0.68383  1.0000
  C   C1124     1.0  0.56620  0.43801  0.53091  1.0000
  H   H1332     1.0  0.72447  0.44413  0.59422  1.0000
  H   H1333     1.0  0.56998  0.36505  0.62140  1.0000
  H   H1334     1.0  0.75895  0.42422  0.57465  1.0000
  H   H1335     1.0  0.91290  0.04112  0.57707  1.0000
  H   H1336     1.0  0.78603  0.16751  0.71455  1.0000
  C   C1125     1.0  0.57374  0.41730  0.52279  1.0000
  Fe  Fe145     1.0  0.72319  0.98840  0.70329  1.0000
  C   C1126     1.0  0.56303  0.35541  0.65638  1.0000
  H   H1337     1.0  0.89909  0.21326  0.68067  1.0000
  C   C1127     1.0  0.86596  0.47584  0.69293  1.0000
  C   C1128     1.0  0.94172  0.12600  0.73934  1.0000
  H   H1338     1.0  0.67108  0.09322  0.70646  1.0000
  H   H1339     1.0  0.93273  0.17363  0.71938  1.0000
  H   H1340     1.0  0.85796  0.01259  0.58782  1.0000
  H   H1341     1.0  0.98547  0.04779  0.68835  1.0000
  H   H1342     1.0  0.67248  0.30232  0.73806  1.0000
  H   H1343     1.0  0.83156  0.30629  0.62973  1.0000
  H   H1344     1.0  0.86071  0.40932  0.63336  1.0000
  H   H1345     1.0  0.64691  0.31651  0.52187  1.0000
  C   C1129     1.0  0.68060  0.41312  0.69654  1.0000
  C   C1130     1.0  0.91572  0.16951  0.67354  1.0000
  H   H1346     1.0  0.64066  0.08309  0.64436  1.0000
  H   H1347     1.0  0.80617  0.13502  0.70062  1.0000
  C   C1131     1.0  0.55284  0.36245  0.67607  1.0000
  Fe  Fe146     1.0  0.68483  0.34312  0.52657  1.0000
  H   H1348     1.0  0.68234  0.05693  0.69308  1.0000
  C   C1132     1.0  0.75292  0.37304  0.60168  1.0000
  C   C1133     1.0  0.56686  0.43669  0.55306  1.0000
  C   C1134     1.0  0.91958  0.29801  0.73804  1.0000
  H   H1349     1.0  0.64740  0.47712  0.50662  1.0000
  Fe  Fe147     1.0  0.80134  0.42284  0.67297  1.0000
  H   H1350     1.0  0.77230  0.31561  0.61600  1.0000
  C   C1135     1.0  0.81442  0.31353  0.62514  1.0000
  H   H1351     1.0  0.77066  0.33220  0.63609  1.0000
  H   H1352     1.0  0.81632  0.31327  0.60760  1.0000
  H   H1353     1.0  0.72085  0.04489  0.66118  1.0000
  C   C1136     1.0  0.79442  0.30016  0.66212  1.0000
  C   C1137     1.0  0.78146  0.11408  0.63582  1.0000
  H   H1354     1.0  0.95990  0.10259  0.69361  1.0000
  C   C1138     1.0  0.77286  0.31423  0.63343  1.0000
  C   C1139     1.0  0.73243  0.37139  0.59523  1.0000
  C   C1140     1.0  0.96478  0.04835  0.59078  1.0000
  N   N71       1.0  0.73575  0.07464  0.64037  1.0000
  C   C1141     1.0  0.75024  0.06070  0.62461  1.0000
  C   C1142     1.0  0.73047  0.05894  0.66187  1.0000
  C   C1143     1.0  0.71351  0.08414  0.63273  1.0000
  C   C1144     1.0  0.74729  0.09357  0.64265  1.0000
  C   C1145     1.0  0.77133  0.09571  0.63358  1.0000
  H   H1355     1.0  0.76648  0.05149  0.63004  1.0000
  H   H1356     1.0  0.74077  0.04703  0.62287  1.0000
  H   H1357     1.0  0.75517  0.07165  0.60814  1.0000
  H   H1358     1.0  0.71949  0.06821  0.67449  1.0000
  H   H1359     1.0  0.74680  0.05075  0.66773  1.0000
  H   H1360     1.0  0.66771  0.42114  0.60475  1.0000
  H   H1361     1.0  0.69532  0.44249  0.72937  1.0000
  H   H1362     1.0  0.73466  0.14129  0.66596  1.0000
  C   C1146     1.0  0.71013  0.39514  0.62075  1.0000
  N   N72       1.0  0.53020  0.39336  0.69690  1.0000
  C   C1147     1.0  0.54094  0.38514  0.67642  1.0000
  C   C1148     1.0  0.73072  0.39722  0.62676  1.0000
  H   H1363     1.0  0.56212  0.40474  0.69828  1.0000
  H   H1364     1.0  0.53242  0.41801  0.65489  1.0000
  Fe  Fe148     1.0  0.62080  0.37776  0.69693  1.0000
  C   C1149     1.0  0.88863  0.99222  0.69392  1.0000
  C   C1150     1.0  0.87003  0.46225  0.63564  1.0000
  H   H1365     1.0  0.75661  0.16647  0.72941  1.0000
  C   C1151     1.0  0.61708  0.44542  0.56320  1.0000
  H   H1366     1.0  0.58752  0.38117  0.52966  1.0000
  H   H1367     1.0  0.79974  0.11563  0.62862  1.0000
  H   H1368     1.0  0.81101  0.29144  0.66721  1.0000
  H   H1369     1.0  0.83610  0.98478  0.58204  1.0000
  C   C1152     1.0  0.60211  0.47427  0.64132  1.0000
  C   C1153     1.0  0.74485  0.12857  0.65684  1.0000
  C   C1154     1.0  0.76821  0.13059  0.64724  1.0000
  S   S303      1.0  0.76628  0.41169  0.68991  1.0000
  Fe  Fe149     1.0  0.96571  0.38725  0.69029  1.0000
  H   H1370     1.0  0.77613  0.14482  0.64896  1.0000
  H   H1371     1.0  0.69353  0.40316  0.62858  1.0000
  C   C1155     1.0  0.53034  0.37491  0.71680  1.0000
  S   S304      1.0  0.77729  0.35182  0.72570  1.0000
  S   S305      1.0  0.93346  0.39158  0.71609  1.0000
  Fe  Fe150     1.0  0.67249  0.98219  0.72613  1.0000
  C   C1156     1.0  0.92477  0.11242  0.70801  1.0000
  C   C1157     1.0  0.75762  0.09527  0.71948  1.0000
  H   H1372     1.0  0.68298  0.41599  0.73706  1.0000
  H   H1373     1.0  0.62705  0.03092  0.73654  1.0000
  S   S306      1.0  0.66430  0.42842  0.51155  1.0000
  S   S307      1.0  0.71687  0.98728  0.67067  1.0000
  S   S308      1.0  0.61830  0.40352  0.66561  1.0000
  H   H1374     1.0  0.93372  0.06906  0.60413  1.0000
  C   C1158     1.0  0.94554  0.06554  0.58940  1.0000
  C   C1159     1.0  0.95798  0.16684  0.66722  1.0000
  C   C1160     1.0  0.76543  0.20905  0.68199  1.0000
  H   H1375     1.0  0.91308  0.06341  0.54096  1.0000
  H   H1376     1.0  0.94006  0.40082  0.63465  1.0000
  H   H1377     1.0  0.96751  0.03854  0.60657  1.0000
  S   S309      1.0  0.65045  0.36579  0.53141  1.0000
  H   H1378     1.0  0.89048  0.12359  0.72551  1.0000
  C   C1161     1.0  0.97686  0.05677  0.55146  1.0000
  Fe  Fe151     1.0  0.67222  0.39271  0.53092  1.0000
  S   S310      1.0  0.68442  0.32977  0.56219  1.0000
  Fe  Fe152     1.0  0.70333  0.35973  0.55959  1.0000
  C   C1162     1.0  0.97024  0.32350  0.65712  1.0000
  C   C1163     1.0  0.90919  0.12173  0.72459  1.0000
  S   S311      1.0  0.94628  0.99562  0.61075  1.0000
  C   C1164     1.0  0.96001  0.14938  0.65562  1.0000
  C   C1165     1.0  0.97367  0.29940  0.66174  1.0000
  C   C1166     1.0  0.89199  0.45713  0.64114  1.0000
  S   S312      1.0  0.73420  0.35471  0.57574  1.0000
  C   C1167     1.0  0.94892  0.11007  0.70683  1.0000
  H   H1379     1.0  0.69509  0.38118  0.60014  1.0000
  C   C1168     1.0  0.71102  0.38256  0.60473  1.0000
  H   H1380     1.0  0.66509  0.46974  0.61265  1.0000
  H   H1381     1.0  0.55008  0.40500  0.62098  1.0000
  C   C1169     1.0  0.89177  0.37516  0.64101  1.0000
  C   C1170     1.0  0.76004  0.10894  0.73343  1.0000
  Fe  Fe153     1.0  0.93763  0.42909  0.70606  1.0000
  N   N73       1.0  0.87832  0.99666  0.67425  1.0000
  H   H1382     1.0  0.55800  0.47121  0.64095  1.0000
  H   H1383     1.0  0.94810  0.98958  0.54504  1.0000
  C   C1171     1.0  0.75896  0.23663  0.70544  1.0000
  H   H1384     1.0  0.57321  0.36491  0.50002  1.0000
  C   C1172     1.0  0.95502  0.20478  0.68784  1.0000
  H   H1385     1.0  0.55477  0.34988  0.69078  1.0000
  H   H1386     1.0  0.69899  0.28514  0.72815  1.0000
  Fe  Fe154     1.0  0.68346  0.01012  0.68027  1.0000
  C   C1173     1.0  0.67060  0.07027  0.68549  1.0000
  C   C1174     1.0  0.61302  0.46937  0.55755  1.0000
  C   C1175     1.0  0.85925  0.44475  0.63280  1.0000
  H   H1387     1.0  0.89893  0.30044  0.69168  1.0000
  H   H1388     1.0  0.85858  0.06505  0.55543  1.0000
  H   H1389     1.0  0.49514  0.39047  0.69488  1.0000
  H   H1390     1.0  0.89370  0.01976  0.58940  1.0000
  H   H1391     1.0  0.61876  0.06712  0.71028  1.0000
  C   C1176     1.0  0.66458  0.09112  0.69282  1.0000
  C   C1177     1.0  0.97808  0.29941  0.69812  1.0000
  H   H1392     1.0  0.61712  0.47660  0.64784  1.0000
  C   C1178     1.0  0.79041  0.10986  0.69296  1.0000
  N   N74       1.0  0.67879  0.45312  0.58516  1.0000
  H   H1393     1.0  0.91142  0.98698  0.65370  1.0000
  H   H1394     1.0  0.84929  0.41750  0.68983  1.0000
  H   H1395     1.0  0.92419  0.22231  0.66069  1.0000
  H   H1396     1.0  0.91094  0.26281  0.70688  1.0000
  H   H1397     1.0  0.94162  0.12915  0.64332  1.0000
  H   H1398     1.0  0.68832  0.44676  0.61658  1.0000
  H   H1399     1.0  0.77072  0.08531  0.68841  1.0000
  H   H1400     1.0  0.60890  0.43663  0.57911  1.0000
  S   S313      1.0  0.81185  0.45481  0.67829  1.0000
  S   S314      1.0  0.52499  0.46914  0.71551  1.0000
  S   S315      1.0  0.96825  0.42510  0.67857  1.0000
  Fe  Fe155     1.0  0.95908  0.38981  0.73727  1.0000
  H   H1401     1.0  0.83147  0.99243  0.67472  1.0000
  H   H1402     1.0  0.77569  0.20202  0.66827  1.0000
  C   C1179     1.0  0.74554  0.19932  0.69432  1.0000
  C   C1180     1.0  0.86125  0.01793  0.67459  1.0000
  H   H1403     1.0  0.87979  0.07170  0.56798  1.0000
  C   C1181     1.0  0.69932  0.44733  0.68616  1.0000
  C   C1182     1.0  0.66201  0.06720  0.66804  1.0000
  H   H1404     1.0  0.87511  0.98866  0.70908  1.0000
  C   C1183     1.0  0.79283  0.12371  0.70668  1.0000
  H   H1405     1.0  0.65723  0.43032  0.58001  1.0000
  C   C1184     1.0  0.83851  0.45411  0.68629  1.0000
  N   N75       1.0  0.68275  0.43416  0.70375  1.0000
  N   N76       1.0  0.55887  0.46034  0.51709  1.0000
  C   C1185     1.0  0.91765  0.12839  0.74025  1.0000
  C   C1186     1.0  0.73189  0.20875  0.71181  1.0000
  H   H1406     1.0  0.66503  0.47938  0.68499  1.0000
  N   N77       1.0  0.90460  0.39217  0.64518  1.0000
  H   H1407     1.0  0.91989  0.43129  0.64889  1.0000
  H   H1408     1.0  0.89997  0.47065  0.64411  1.0000
  C   C1187     1.0  0.69346  0.42719  0.72333  1.0000
  S   S316      1.0  0.67052  0.04178  0.65758  1.0000
  H   H1409     1.0  0.90131  0.35736  0.64372  1.0000
  C   C1188     1.0  0.90720  0.38510  0.66822  1.0000
  H   H1410     1.0  0.70213  0.46326  0.69058  1.0000
  H   H1411     1.0  0.78795  0.23467  0.67830  1.0000
  H   H1412     1.0  0.87263  0.28371  0.72475  1.0000
  C   C1189     1.0  0.88155  0.45573  0.69700  1.0000
  H   H1413     1.0  0.71693  0.43703  0.68295  1.0000
  C   C1190     1.0  0.77234  0.22749  0.68770  1.0000
  H   H1414     1.0  0.87349  0.30596  0.73881  1.0000
  C   C1191     1.0  0.92816  0.39074  0.63077  1.0000
  N   N78       1.0  0.98353  0.11372  0.72245  1.0000
  H   H1415     1.0  0.57479  0.41545  0.58309  1.0000
  C   C1192     1.0  0.70806  0.36208  0.72559  1.0000
  H   H1416     1.0  0.88986  0.38674  0.67952  1.0000
  H   H1417     1.0  0.71114  0.41706  0.71993  1.0000
  S   S317      1.0  0.76838  0.25869  0.71341  1.0000
  S   S318      1.0  0.96661  0.36602  0.66577  1.0000
  H   H1418     1.0  0.96697  0.19097  0.69606  1.0000
  C   C1193     1.0  0.61348  0.47124  0.71982  1.0000
  H   H1419     1.0  0.54843  0.36816  0.71940  1.0000
  C   C1194     1.0  0.89268  0.41615  0.64129  1.0000
  C   C1195     1.0  0.70075  0.44182  0.57335  1.0000
  H   H1420     1.0  0.91546  0.25358  0.73399  1.0000
  S   S319      1.0  0.61185  0.38735  0.72976  1.0000
  H   H1421     1.0  0.67151  0.41744  0.68253  1.0000
  H   H1422     1.0  0.95213  0.21921  0.69668  1.0000
  C   C1196     1.0  0.74683  0.35637  0.73392  1.0000
  H   H1423     1.0  0.92699  0.39721  0.61334  1.0000
  H   H1424     1.0  0.69329  0.45180  0.67041  1.0000
  C   C1197     1.0  0.77797  0.12348  0.72749  1.0000
  H   H1425     1.0  0.91735  0.01492  0.56729  1.0000
  C   C1198     1.0  0.97416  0.05665  0.67729  1.0000
  C   C1199     1.0  0.63860  0.46822  0.52226  1.0000
  C   C1200     1.0  0.53555  0.47070  0.52759  1.0000
  Fe  Fe156     1.0  0.70786  0.16034  0.71190  1.0000
  H   H1426     1.0  0.93746  0.26740  0.71315  1.0000
  C   C1201     1.0  0.72091  0.42195  0.54355  1.0000
  C   C1202     1.0  0.74183  0.41864  0.55080  1.0000
  H   H1427     1.0  0.91810  0.10680  0.69604  1.0000
  C   C1203     1.0  0.64088  0.10592  0.66552  1.0000
  C   C1204     1.0  0.50537  0.40330  0.69695  1.0000
  C   C1205     1.0  0.65286  0.47013  0.69790  1.0000
  H   H1428     1.0  0.76806  0.98909  0.66474  1.0000
  H   H1429     1.0  0.90251  0.14682  0.65920  1.0000
  H   H1430     1.0  0.57411  0.41666  0.50615  1.0000
  C   C1206     1.0  0.95816  0.11697  0.72247  1.0000
  H   H1431     1.0  0.57227  0.33813  0.65647  1.0000
  H   H1432     1.0  0.61418  0.30805  0.50815  1.0000
  H   H1433     1.0  0.89362  0.05997  0.52498  1.0000
  N   N79       1.0  0.90726  0.29069  0.72379  1.0000
  C   C1207     1.0  0.61312  0.08851  0.73391  1.0000
  S   S320      1.0  0.64121  0.13490  0.69217  1.0000
  C   C1208     1.0  0.77284  0.09564  0.69933  1.0000
  H   H1434     1.0  0.74347  0.08476  0.72420  1.0000
  C   C1209     1.0  0.56185  0.37061  0.63658  1.0000
  H   H1435     1.0  0.97924  0.99935  0.66155  1.0000
  H   H1436     1.0  0.84688  0.01593  0.68926  1.0000
  C   C1210     1.0  0.57421  0.41594  0.56631  1.0000
  H   H1437     1.0  0.63071  0.24702  0.50274  1.0000
  H   H1438     1.0  0.56230  0.45186  0.56021  1.0000
  H   H1439     1.0  0.97335  0.29011  0.64936  1.0000
  H   H1440     1.0  0.89751  0.32399  0.70424  1.0000
  H   H1441     1.0  0.58793  0.38011  0.56804  1.0000
  C   C1211     1.0  0.62293  0.04720  0.74193  1.0000
  H   H1442     1.0  0.67782  0.21363  0.72583  1.0000
  C   C1212     1.0  0.66362  0.25829  0.49912  1.0000
  C   C1213     1.0  0.84987  0.98958  0.54753  1.0000
  H   H1443     1.0  0.80194  0.11068  0.67705  1.0000
  H   H1444     1.0  0.92569  0.30894  0.69336  1.0000
  C   C1214     1.0  0.92728  0.32007  0.73320  1.0000
  H   H1445     1.0  0.89008  0.00462  0.63942  1.0000
  C   C1215     1.0  0.58168  0.39604  0.55783  1.0000
  Fe  Fe157     1.0  0.98367  0.98978  0.59329  1.0000
  S   S321      1.0  0.69481  0.32232  0.50047  1.0000
  H   H1446     1.0  0.96736  0.33265  0.64117  1.0000
  C   C1216     1.0  0.89704  0.00147  0.65460  1.0000
  H   H1447     1.0  0.89701  0.00719  0.69453  1.0000
  H   H1448     1.0  0.49674  0.40916  0.71245  1.0000
  C   C1217     1.0  0.61819  0.06753  0.72714  1.0000
  H   H1449     1.0  0.54429  0.44663  0.49579  1.0000
  H   H1450     1.0  0.52149  0.36031  0.71625  1.0000
  S   S322      1.0  0.99099  0.38210  0.71230  1.0000
  Fe  Fe158     1.0  0.64461  0.36390  0.73578  1.0000
  C   C1218     1.0  0.66548  0.22817  0.72978  1.0000
  C   C1219     1.0  0.64156  0.43701  0.72577  1.0000
  Fe  Fe159     1.0  0.99195  0.23740  0.71819  1.0000
  C   C1220     1.0  0.69111  0.29715  0.73945  1.0000
  H   H1451     1.0  0.77781  0.17504  0.74079  1.0000
  Fe  Fe160     1.0  0.59498  0.35492  0.74098  1.0000
  N   N80       1.0  0.78095  0.13848  0.74163  1.0000
  C   C1221     1.0  0.62335  0.48085  0.53688  1.0000
  H   H1452     1.0  0.53562  0.47496  0.54341  1.0000
  Fe  Fe161     1.0  0.99072  0.42055  0.70337  1.0000
  H   H1453     1.0  0.57765  0.47959  0.53020  1.0000
  H   H1454     1.0  0.59606  0.48044  0.72407  1.0000
  H   H1455     1.0  0.75031  0.02580  0.74203  1.0000
  H   H1456     1.0  0.69446  0.47424  0.59915  1.0000
  H   H1457     1.0  0.98593  0.15001  0.71100  1.0000
  C   C1222     1.0  0.94283  0.98324  0.51494  1.0000
  H   H1458     1.0  0.63610  0.40344  0.49478  1.0000
  H   H1459     1.0  0.86094  0.47967  0.63435  1.0000
  Fe  Fe162     1.0  0.50151  0.47976  0.69153  1.0000
  C   C1223     1.0  0.99092  0.13550  0.72404  1.0000
  H   H1460     1.0  0.98319  0.14062  0.73998  1.0000
  H   H1461     1.0  0.98242  0.07911  0.74122  1.0000
  C   C1224     1.0  0.98820  0.09563  0.74153  1.0000
  C   C1225     1.0  0.93797  0.98143  0.53777  1.0000
  H   H1462     1.0  0.61550  0.37307  0.49236  1.0000
  H   H1463     1.0  0.99224  0.33193  0.74201  1.0000
  C   C1226     1.0  0.69804  0.36514  0.74683  1.0000
  Fe  Fe163     1.0  0.64423  0.03165  0.87679  1.0000
  S   S323      1.0  0.66375  0.99762  0.89007  1.0000
  S   S324      1.0  0.65479  0.06718  0.86906  1.0000
  H   H1464     1.0  0.80822  0.14520  0.75563  1.0000
  H   H1465     1.0  0.57868  0.98729  0.93850  1.0000
  H   H1466     1.0  0.63207  0.98191  0.83238  1.0000
  C   C1227     1.0  0.54077  0.37622  0.76695  1.0000
  S   S325      1.0  0.63660  0.01943  0.84938  1.0000
  S   S326      1.0  0.60984  0.02493  0.89909  1.0000
  H   H1467     1.0  0.74582  0.98536  0.75707  1.0000
  N   N81       1.0  0.90133  0.43119  0.77954  1.0000
  C   C1228     1.0  0.63199  0.24437  0.75367  1.0000
  C   C1229     1.0  0.73347  0.29669  0.75777  1.0000
  H   H1468     1.0  0.59572  0.10114  0.79653  1.0000
  C   C1230     1.0  0.74937  0.02537  0.78593  1.0000
  S   S327      1.0  0.70400  0.08822  0.76957  1.0000
  H   H1469     1.0  0.63872  0.01534  0.93765  1.0000
  H   H1470     1.0  0.51823  0.00455  0.81896  1.0000
  H   H1471     1.0  0.69101  0.03741  0.77648  1.0000
  Fe  Fe164     1.0  0.69105  0.12189  0.74922  1.0000
  H   H1472     1.0  0.74686  0.13878  0.76300  1.0000
  H   H1473     1.0  0.74737  0.10812  0.74858  1.0000
  H   H1474     1.0  0.89149  0.46664  0.76445  1.0000
  H   H1475     1.0  0.66071  0.27187  0.76842  1.0000
  H   H1476     1.0  0.91782  0.26634  0.76280  1.0000
  C   C1231     1.0  0.95040  0.42139  0.81094  1.0000
  H   H1477     1.0  0.53571  0.43467  0.75081  1.0000
  Fe  Fe165     1.0  0.97414  0.19979  0.75626  1.0000
  H   H1478     1.0  0.74783  0.35730  0.76686  1.0000
  H   H1479     1.0  0.95218  0.31594  0.77672  1.0000
  H   H1480     1.0  0.69859  0.11072  0.93210  1.0000
  H   H1481     1.0  0.65566  0.06788  0.78573  1.0000
  C   C1232     1.0  0.53659  0.99431  0.90877  1.0000
  C   C1233     1.0  0.89484  0.22753  0.78450  1.0000
  C   C1234     1.0  0.66932  0.07389  0.84177  1.0000
  C   C1235     1.0  0.66523  0.09606  0.82908  1.0000
  C   C1236     1.0  0.67594  0.10088  0.80684  1.0000
  C   C1237     1.0  0.69122  0.08366  0.79751  1.0000
  C   C1238     1.0  0.69566  0.06181  0.81042  1.0000
  C   C1239     1.0  0.68450  0.05677  0.83235  1.0000
  H   H1482     1.0  0.65342  0.10936  0.83634  1.0000
  H   H1483     1.0  0.67237  0.11786  0.79698  1.0000
  H   H1484     1.0  0.70749  0.04863  0.80338  1.0000
  H   H1485     1.0  0.68779  0.03966  0.84205  1.0000
  H   H1486     1.0  0.78490  0.26404  0.76590  1.0000
  H   H1487     1.0  0.60596  0.44057  0.74382  1.0000
  C   C1240     1.0  0.69111  0.06941  0.97843  1.0000
  H   H1488     1.0  0.68790  0.02167  0.75713  1.0000
  H   H1489     1.0  0.92047  0.40700  0.75997  1.0000
  H   H1490     1.0  0.58277  0.06164  0.80572  1.0000
  H   H1491     1.0  0.92163  0.40400  0.81275  1.0000
  Fe  Fe166     1.0  0.60349  0.01021  0.87237  1.0000
  H   H1492     1.0  0.88957  0.40572  0.76725  1.0000
  C   C1241     1.0  0.93049  0.41874  0.80417  1.0000
  C   C1242     1.0  0.71790  0.10506  0.95773  1.0000
  C   C1243     1.0  0.64416  0.01858  0.96869  1.0000
  C   C1244     1.0  0.63843  0.00698  0.95451  1.0000
  C   C1245     1.0  0.72964  0.99891  0.82577  1.0000
  H   H1493     1.0  0.90758  0.39377  0.78691  1.0000
  H   H1494     1.0  0.64872  0.03590  0.96272  1.0000
  C   C1246     1.0  0.71241  0.36343  0.76166  1.0000
  N   N82       1.0  0.72133  0.01369  0.76706  1.0000
  H   H1495     1.0  0.72711  0.31459  0.75249  1.0000
  H   H1496     1.0  0.75758  0.03615  0.77118  1.0000
  H   H1497     1.0  0.61812  0.24216  0.76800  1.0000
  H   H1498     1.0  0.68482  0.29556  0.79350  1.0000
  H   H1499     1.0  0.70804  0.98888  0.80863  1.0000
  C   C1247     1.0  0.76575  0.13442  0.76372  1.0000
  C   C1248     1.0  0.90480  0.40847  0.77323  1.0000
  S   S328      1.0  0.56013  0.35100  0.76353  1.0000
  H   H1500     1.0  0.86444  0.43058  0.79305  1.0000
  S   S329      1.0  0.64306  0.98290  0.75513  1.0000
  H   H1501     1.0  0.95644  0.40890  0.82428  1.0000
  C   C1249     1.0  0.93594  0.45283  0.77565  1.0000
  C   C1250     1.0  0.75217  0.25091  0.77061  1.0000
  C   C1251     1.0  0.73094  0.01284  0.78650  1.0000
  H   H1502     1.0  0.90543  0.13527  0.75332  1.0000
  C   C1252     1.0  0.71833  0.27949  0.76319  1.0000
  H   H1503     1.0  0.53550  0.03036  0.83387  1.0000
  H   H1504     1.0  0.52939  0.00795  0.89699  1.0000
  H   H1505     1.0  0.51326  0.99123  0.87665  1.0000
  H   H1506     1.0  0.75970  0.23311  0.77508  1.0000
  C   C1253     1.0  0.93888  0.32632  0.74707  1.0000
  S   S330      1.0  0.62714  0.33209  0.74962  1.0000
  C   C1254     1.0  0.53057  0.41782  0.75821  1.0000
  C   C1255     1.0  0.61771  0.06891  0.77098  1.0000
  C   C1256     1.0  0.87541  0.22243  0.77858  1.0000
  H   H1507     1.0  0.72825  0.11897  0.94959  1.0000
  C   C1257     1.0  0.70800  0.07349  0.98900  1.0000
  C   C1258     1.0  0.51795  0.37420  0.77883  1.0000
  H   H1508     1.0  0.67481  0.07910  0.95047  1.0000
  H   H1509     1.0  0.93150  0.21754  0.78529  1.0000
  Fe  Fe167     1.0  0.62854  0.98974  0.91012  1.0000
  H   H1510     1.0  0.97908  0.10066  0.75724  1.0000
  H   H1511     1.0  0.62677  0.10367  0.78863  1.0000
  C   C1259     1.0  0.74730  0.01181  0.82478  1.0000
  C   C1260     1.0  0.62260  0.04778  0.76357  1.0000
  H   H1512     1.0  0.96811  0.34834  0.81272  1.0000
  H   H1513     1.0  0.55955  0.01670  0.91194  1.0000
  H   H1514     1.0  0.60931  0.10629  0.75933  1.0000
  C   C1261     1.0  0.94304  0.31105  0.76609  1.0000
  C   C1262     1.0  0.61294  0.08935  0.75544  1.0000
  H   H1515     1.0  0.68623  0.00763  0.78481  1.0000
  C   C1263     1.0  0.76646  0.26830  0.76535  1.0000
  S   S331      1.0  0.95597  0.36774  0.77082  1.0000
  H   H1516     1.0  0.61927  0.99043  0.79724  1.0000
  H   H1517     1.0  0.70472  0.36579  0.77810  1.0000
  H   H1518     1.0  0.64569  0.04026  0.79780  1.0000
  C   C1264     1.0  0.64185  0.05894  0.79807  1.0000
  C   C1265     1.0  0.75714  0.29115  0.75883  1.0000
  C   C1266     1.0  0.89827  0.18760  0.76831  1.0000
  C   C1267     1.0  0.60064  0.05515  0.80902  1.0000
  H   H1519     1.0  0.66313  0.30714  0.77704  1.0000
  H   H1520     1.0  0.51292  0.35733  0.78671  1.0000
  C   C1268     1.0  0.72172  0.99922  0.80694  1.0000
  C   C1269     1.0  0.50753  0.41569  0.76943  1.0000
  C   C1270     1.0  0.69554  0.02033  0.77166  1.0000
  H   H1521     1.0  0.76894  0.14546  0.77411  1.0000
  C   C1271     1.0  0.54210  0.01217  0.83608  1.0000
  H   H1522     1.0  0.76888  0.11616  0.77233  1.0000
  C   C1272     1.0  0.64760  0.22518  0.74826  1.0000
  S   S332      1.0  0.96700  0.23823  0.74978  1.0000
  C   C1273     1.0  0.56010  0.00333  0.84760  1.0000
  C   C1274     1.0  0.68783  0.08268  0.95817  1.0000
  H   H1523     1.0  0.89949  0.17233  0.76187  1.0000
  C   C1275     1.0  0.92360  0.28313  0.75782  1.0000
  S   S333      1.0  0.57040  0.02205  0.85932  1.0000
  H   H1524     1.0  0.68013  0.25710  0.78605  1.0000
  H   H1525     1.0  0.97907  0.44100  0.80492  1.0000
  C   C1276     1.0  0.89542  0.44907  0.76068  1.0000
  H   H1526     1.0  0.61412  0.09203  0.81612  1.0000
  C   C1277     1.0  0.63211  0.98476  0.96225  1.0000
  C   C1278     1.0  0.70121  0.10047  0.94783  1.0000
  C   C1279     1.0  0.91635  0.21328  0.78121  1.0000
  H   H1527     1.0  0.98865  0.40095  0.75682  1.0000
  S   S334      1.0  0.66773  0.37200  0.75518  1.0000
  C   C1280     1.0  0.93543  0.28947  0.77145  1.0000
  H   H1528     1.0  0.77097  0.03491  0.80421  1.0000
  S   S335      1.0  0.64471  0.19742  0.76429  1.0000
  S   S336      1.0  0.70202  0.15598  0.74820  1.0000
  H   H1529     1.0  0.81104  0.11621  0.75124  1.0000
  H   H1530     1.0  0.64372  0.06061  0.81439  1.0000
  C   C1281     1.0  0.56504  0.98303  0.93208  1.0000
  N   N83       1.0  0.69326  0.28605  0.76213  1.0000
  N   N84       1.0  0.61830  0.06909  0.79379  1.0000
  C   C1282     1.0  0.54715  0.39810  0.75684  1.0000
  Fe  Fe168     1.0  0.66481  0.17021  0.74577  1.0000
  H   H1531     1.0  0.87837  0.44839  0.80375  1.0000
  C   C1283     1.0  0.96320  0.43949  0.80003  1.0000
  C   C1284     1.0  0.61345  0.09255  0.79885  1.0000
  H   H1532     1.0  0.88101  0.27626  0.75063  1.0000
  C   C1285     1.0  0.63651  0.98126  0.79850  1.0000
  C   C1286     1.0  0.55416  0.99962  0.91723  1.0000
  H   H1533     1.0  0.90998  0.44915  0.74623  1.0000
  H   H1534     1.0  0.87984  0.44598  0.75540  1.0000
  S   S337      1.0  0.85047  0.24298  0.77716  1.0000
  C   C1287     1.0  0.95603  0.45511  0.78239  1.0000
  C   C1288     1.0  0.72135  0.09184  0.97802  1.0000
  H   H1535     1.0  0.75321  0.01175  0.83948  1.0000
  H   H1536     1.0  0.89346  0.24294  0.79083  1.0000
  C   C1289     1.0  0.50000  0.98507  0.89136  1.0000
  C   C1290     1.0  0.50139  0.39387  0.78010  1.0000
  H   H1537     1.0  0.72180  0.98875  0.84123  1.0000
  C   C1291     1.0  0.97606  0.37439  0.78371  1.0000
  H   H1538     1.0  0.71853  0.24193  0.77339  1.0000
  C   C1292     1.0  0.87696  0.20206  0.77117  1.0000
  H   H1539     1.0  0.56473  0.39988  0.74788  1.0000
  C   C1293     1.0  0.75727  0.02485  0.80489  1.0000
  H   H1540     1.0  0.68026  0.05585  0.98577  1.0000
  H   H1541     1.0  0.62644  0.03152  0.77438  1.0000
  C   C1294     1.0  0.67954  0.26622  0.76900  1.0000
  C   C1295     1.0  0.68229  0.30269  0.77651  1.0000
  H   H1542     1.0  0.86183  0.19777  0.76702  1.0000
  C   C1296     1.0  0.92256  0.43441  0.78633  1.0000
  H   H1543     1.0  0.60434  0.03664  0.80799  1.0000
  C   C1297     1.0  0.91820  0.19359  0.77257  1.0000
  C   C1298     1.0  0.53232  0.99756  0.82765  1.0000
  H   H1544     1.0  0.93892  0.27748  0.78616  1.0000
  C   C1299     1.0  0.72845  0.25627  0.76951  1.0000
  H   H1545     1.0  0.60000  0.05562  0.82635  1.0000
  S   S338      1.0  0.65312  0.13552  0.75008  1.0000
  S   S339      1.0  0.94548  0.17728  0.76550  1.0000
  H   H1546     1.0  0.68958  0.31936  0.77088  1.0000
  C   C1300     1.0  0.88090  0.43194  0.79791  1.0000
  H   H1547     1.0  0.68582  0.25365  0.75798  1.0000
  C   C1301     1.0  0.73676  0.35864  0.75533  1.0000
  H   H1548     1.0  0.76838  0.30465  0.75427  1.0000
  C   C1302     1.0  0.72658  0.99057  0.76146  1.0000
  H   H1549     1.0  0.96633  0.46890  0.77363  1.0000
  H   H1550     1.0  0.88290  0.41754  0.81202  1.0000
  H   H1551     1.0  0.73457  0.09634  0.98470  1.0000
  C   C1303     1.0  0.73115  0.03051  0.74757  1.0000
  C   C1304     1.0  0.97824  0.36238  0.80471  1.0000
  H   H1552     1.0  0.72775  0.04831  0.75079  1.0000
  H   H1553     1.0  0.93161  0.46547  0.76172  1.0000
  Fe  Fe169     1.0  0.65253  0.98468  0.86469  1.0000
  H   H1554     1.0  0.94731  0.13109  0.75217  1.0000
  H   H1555     1.0  0.71907  0.99016  0.74731  1.0000
  C   C1305     1.0  0.64408  0.00779  0.99049  1.0000
  H   H1556     1.0  0.58414  0.00643  0.99062  1.0000
  H   H1557     1.0  0.94481  0.34310  0.74297  1.0000
  S   S340      1.0  0.81485  0.21858  0.74406  1.0000
  Fe  Fe170     1.0  0.83986  0.24117  0.74660  1.0000
  C   C1306     1.0  0.98944  0.39227  0.77330  1.0000
  C   C1307     1.0  0.80556  0.13467  0.74454  1.0000
  H   H1558     1.0  0.62145  0.28100  0.74398  1.0000
  N   N85       1.0  0.57330  0.94900  0.18913  1.0000
  H   H1559     1.0  0.63754  0.97718  0.01499  1.0000
  C   C1308     1.0  0.55698  0.59383  0.18565  1.0000
  C   C1309     1.0  0.66083  0.85935  0.06907  1.0000
  H   H1560     1.0  0.58666  0.84565  0.11085  1.0000
  C   C1310     1.0  0.58233  0.83053  0.12330  1.0000
  S   S341      1.0  0.56335  0.54291  0.23958  1.0000
  C   C1311     1.0  0.56763  0.96552  0.03561  1.0000
  H   H1561     1.0  0.56061  0.94929  0.03952  1.0000
  Fe  Fe171     1.0  0.52587  0.69815  0.19853  1.0000
  S   S342      1.0  0.60490  0.58867  0.21364  1.0000
  N   N86       1.0  0.56861  0.96219  0.07505  1.0000
  H   H1562     1.0  0.55495  0.91931  0.19547  1.0000
  H   H1563     1.0  0.80608  0.95381  0.23485  1.0000
  H   H1564     1.0  0.51116  0.82212  0.08904  1.0000
  H   H1565     1.0  0.50841  0.97105  0.15606  1.0000
  C   C1312     1.0  0.69443  0.96511  0.21626  1.0000
  Fe  Fe172     1.0  0.59538  0.55766  0.23957  1.0000
  C   C1313     1.0  0.68638  0.93729  0.00141  1.0000
  C   C1314     1.0  0.58737  0.95773  0.20103  1.0000
  H   H1566     1.0  0.55569  0.63426  0.15958  1.0000
  H   H1567     1.0  0.71776  0.88465  0.99902  1.0000
  S   S343      1.0  0.56512  0.73495  0.12392  1.0000
  H   H1568     1.0  0.67533  0.93359  0.01807  1.0000
  S   S344      1.0  0.55369  0.85138  0.07190  1.0000
  H   H1569     1.0  0.60481  0.92980  0.17404  1.0000
  Fe  Fe173     1.0  0.58824  0.85930  0.05081  1.0000
  S   S345      1.0  0.62005  0.84736  0.06557  1.0000
  C   C1315     1.0  0.64766  0.90686  0.05739  1.0000
  C   C1316     1.0  0.55580  0.75413  0.10153  1.0000
  C   C1317     1.0  0.56959  0.77119  0.08929  1.0000
  C   C1318     1.0  0.56153  0.78801  0.07263  1.0000
  C   C1319     1.0  0.54010  0.78721  0.06752  1.0000
  C   C1320     1.0  0.56380  0.92834  0.20378  1.0000
  C   C1321     1.0  0.52046  0.81752  0.12853  1.0000
  C   C1322     1.0  0.54769  0.89604  0.10229  1.0000
  H   H1570     1.0  0.57207  0.80145  0.06362  1.0000
  H   H1571     1.0  0.61702  0.87764  0.99676  1.0000
  C   C1323     1.0  0.58785  0.61463  0.21867  1.0000
  H   H1572     1.0  0.53334  0.80599  0.11882  1.0000
  H   H1573     1.0  0.53314  0.84710  0.17326  1.0000
  H   H1574     1.0  0.57413  0.66993  0.19236  1.0000
  S   S346      1.0  0.95890  0.97489  0.22235  1.0000
  H   H1575     1.0  0.59590  0.95721  0.15773  1.0000
  H   H1576     1.0  0.52126  0.57189  0.21390  1.0000
  H   H1577     1.0  0.52306  0.79703  0.00826  1.0000
  C   C1324     1.0  0.66904  0.88318  0.00733  1.0000
  H   H1578     1.0  0.52420  0.83300  0.20084  1.0000
  C   C1325     1.0  0.58780  0.80889  0.11788  1.0000
  H   H1579     1.0  0.53790  0.94849  0.07322  1.0000
  S   S347      1.0  0.58334  0.84439  0.02365  1.0000
  S   S348      1.0  0.53060  0.87504  0.22496  1.0000
  C   C1326     1.0  0.53228  0.82984  0.18424  1.0000
  C   C1327     1.0  0.57459  0.97423  0.09028  1.0000
  C   C1328     1.0  0.58936  0.94196  0.16968  1.0000
  H   H1580     1.0  0.69371  0.86815  0.07120  1.0000
  H   H1581     1.0  0.72679  0.90968  0.00370  1.0000
  H   H1582     1.0  0.53212  0.97598  0.08087  1.0000
  H   H1583     1.0  0.65139  0.95757  0.14460  1.0000
  H   H1584     1.0  0.57769  0.91539  0.21024  1.0000
  C   C1329     1.0  0.57283  0.97474  0.05205  1.0000
  H   H1585     1.0  0.60019  0.63384  0.18641  1.0000
  N   N87       1.0  0.55560  0.81592  0.18390  1.0000
  H   H1586     1.0  0.56360  0.82921  0.20934  1.0000
  H   H1587     1.0  0.70142  0.94527  0.00269  1.0000
  C   C1330     1.0  0.51992  0.97606  0.16447  1.0000
  H   H1588     1.0  0.52809  0.83392  0.12481  1.0000
  N   N88       1.0  0.53498  0.60902  0.18188  1.0000
  H   H1589     1.0  0.57345  0.88687  0.12250  1.0000
  S   S349      1.0  0.53089  0.87487  0.02857  1.0000
  S   S350      1.0  0.53602  0.68441  0.16777  1.0000
  C   C1331     1.0  0.58853  0.63441  0.20202  1.0000
  H   H1590     1.0  0.66604  0.84097  0.07360  1.0000
  H   H1591     1.0  0.69924  0.94627  0.22177  1.0000
  H   H1592     1.0  0.68922  0.93450  0.13277  1.0000
  H   H1593     1.0  0.54019  0.78415  0.19546  1.0000
  H   H1594     1.0  0.69040  0.97270  0.23109  1.0000
  Fe  Fe174     1.0  0.97934  0.94176  0.23626  1.0000
  H   H1595     1.0  0.64593  0.85699  0.01898  1.0000
  C   C1332     1.0  0.49803  0.78121  0.23078  1.0000
  N   N89       1.0  0.69411  0.91600  0.99247  1.0000
  H   H1596     1.0  0.59347  0.97632  0.08616  1.0000
  C   C1333     1.0  0.53877  0.96041  0.17070  1.0000
  H   H1597     1.0  0.67535  0.48848  0.19061  1.0000
  H   H1598     1.0  0.50409  0.78649  0.11608  1.0000
  H   H1599     1.0  0.56803  0.84980  0.14817  1.0000
  C   C1334     1.0  0.70038  0.94708  0.17784  1.0000
  S   S351      1.0  0.49875  0.92358  0.20750  1.0000
  H   H1600     1.0  0.81382  0.97932  0.23954  1.0000
  C   C1335     1.0  0.67870  0.96005  0.18541  1.0000
  H   H1601     1.0  0.56784  0.96937  0.00141  1.0000
  H   H1602     1.0  0.56181  0.58081  0.17510  1.0000
  H   H1603     1.0  0.64271  0.92514  0.05242  1.0000
  C   C1336     1.0  0.55863  0.65558  0.22550  1.0000
  H   H1604     1.0  0.71512  0.94427  0.18571  1.0000
  H   H1605     1.0  0.55065  0.93310  0.21797  1.0000
  H   H1606     1.0  0.58074  0.93296  0.16107  1.0000
  C   C1337     1.0  0.57048  0.82812  0.19189  1.0000
  C   C1338     1.0  0.56638  0.81311  0.16133  1.0000
  C   C1339     1.0  0.57177  0.83268  0.14468  1.0000
  C   C1340     1.0  0.57182  0.79129  0.15516  1.0000
  C   C1341     1.0  0.58252  0.78934  0.13377  1.0000
  H   H1607     1.0  0.54453  0.79650  0.21652  1.0000
  H   H1608     1.0  0.58873  0.81911  0.19042  1.0000
  H   H1609     1.0  0.56823  0.77536  0.16649  1.0000
  H   H1610     1.0  0.58692  0.77244  0.12957  1.0000
  C   C1342     1.0  0.53461  0.75300  0.09606  1.0000
  Fe  Fe175     1.0  0.54736  0.84013  0.04336  1.0000
  C   C1343     1.0  0.68853  0.48514  0.20052  1.0000
  S   S352      1.0  0.52919  0.80921  0.04785  1.0000
  C   C1344     1.0  0.57155  0.97693  0.01375  1.0000
  C   C1345     1.0  0.63202  0.89137  0.05845  1.0000
  H   H1611     1.0  0.59631  0.80731  0.10132  1.0000
  S   S353      1.0  0.53808  0.67992  0.22932  1.0000
  H   H1612     1.0  0.58644  0.77156  0.09281  1.0000
  C   C1346     1.0  0.64902  0.87348  0.00821  1.0000
  C   C1347     1.0  0.63863  0.86756  0.06434  1.0000
  S   S354      1.0  0.52950  0.73483  0.18169  1.0000
  H   H1613     1.0  0.68059  0.87343  0.01791  1.0000
  C   C1348     1.0  0.67649  0.87473  0.06771  1.0000
  C   C1349     1.0  0.52712  0.62303  0.19892  1.0000
  H   H1614     1.0  0.61500  0.89781  0.05462  1.0000
  C   C1350     1.0  0.66488  0.95429  0.15419  1.0000
  H   H1615     1.0  0.52002  0.82091  0.17945  1.0000
  H   H1616     1.0  0.52593  0.63871  0.15748  1.0000
  H   H1617     1.0  0.55176  0.82197  0.00011  1.0000
  H   H1618     1.0  0.49659  0.75181  0.21767  1.0000
  H   H1619     1.0  0.50324  0.61478  0.15400  1.0000
  C   C1351     1.0  0.55380  0.96614  0.18229  1.0000
  C   C1352     1.0  0.57376  0.65481  0.20535  1.0000
  Fe  Fe176     1.0  0.67755  0.95364  0.06221  1.0000
  C   C1353     1.0  0.51159  0.57629  0.20089  1.0000
  H   H1620     1.0  0.60180  0.94444  0.20601  1.0000
  H   H1621     1.0  0.51039  0.76859  0.07480  1.0000
  Fe  Fe177     1.0  0.54038  0.88670  0.05547  1.0000
  H   H1622     1.0  0.51985  0.80951  0.14602  1.0000
  C   C1354     1.0  0.53979  0.89947  0.14013  1.0000
  H   H1623     1.0  0.55984  0.89121  0.08821  1.0000
  Fe  Fe178     1.0  0.52009  0.89372  0.19375  1.0000
  H   H1624     1.0  0.54564  0.61546  0.14685  1.0000
  C   C1355     1.0  0.55540  0.89359  0.12171  1.0000
  C   C1356     1.0  0.66108  0.96345  0.17292  1.0000
  H   H1625     1.0  0.57208  0.60373  0.18223  1.0000
  H   H1626     1.0  0.55593  0.58451  0.20285  1.0000
  H   H1627     1.0  0.65719  0.94170  0.22562  1.0000
  C   C1357     1.0  0.57306  0.61562  0.23892  1.0000
  C   C1358     1.0  0.51633  0.59506  0.18313  1.0000
  H   H1628     1.0  0.57123  0.84624  0.18283  1.0000
  H   H1629     1.0  0.49385  0.79824  0.00490  1.0000
  C   C1359     1.0  0.68622  0.94145  0.14738  1.0000
  H   H1630     1.0  0.72074  0.92850  0.15335  1.0000
  Fe  Fe179     1.0  0.53608  0.72156  0.15079  1.0000
  C   C1360     1.0  0.52456  0.90517  0.10099  1.0000
  H   H1631     1.0  0.52436  0.73932  0.10483  1.0000
  C   C1361     1.0  0.55236  0.79374  0.19965  1.0000
  S   S355      1.0  0.51513  0.90861  0.07653  1.0000
  S   S356      1.0  0.69076  0.91696  0.05949  1.0000
  H   H1632     1.0  0.49652  0.95583  0.23797  1.0000
  Fe  Fe180     1.0  0.56752  0.88032  0.01085  1.0000
  H   H1633     1.0  0.58136  0.92969  0.09401  1.0000
  C   C1362     1.0  0.71128  0.90103  0.00493  1.0000
  H   H1634     1.0  0.56934  0.78246  0.20046  1.0000
  C   C1363     1.0  0.51664  0.90866  0.13890  1.0000
  H   H1635     1.0  0.51012  0.77190  0.24106  1.0000
  C   C1364     1.0  0.50913  0.91187  0.11918  1.0000
  C   C1365     1.0  0.68214  0.48796  0.22214  1.0000
  H   H1636     1.0  0.91058  0.96811  0.22534  1.0000
  H   H1637     1.0  0.54126  0.94358  0.16669  1.0000
  H   H1638     1.0  0.57125  0.96441  0.10744  1.0000
  H   H1639     1.0  0.71005  0.97264  0.20555  1.0000
  C   C1366     1.0  0.65403  0.96084  0.22105  1.0000
  S   S357      1.0  0.57553  0.89574  0.03642  1.0000
  H   H1640     1.0  0.54006  0.63463  0.19805  1.0000
  C   C1367     1.0  0.54073  0.62495  0.16046  1.0000
  C   C1368     1.0  0.66994  0.89850  0.06205  1.0000
  H   H1641     1.0  0.57765  0.92798  0.06781  1.0000
  H   H1642     1.0  0.65058  0.96758  0.23634  1.0000
  C   C1369     1.0  0.52686  0.76941  0.07889  1.0000
  C   C1370     1.0  0.70394  0.93796  0.15910  1.0000
  S   S358      1.0  0.54955  0.89502  0.16452  1.0000
  H   H1643     1.0  0.52479  0.61209  0.21556  1.0000
  C   C1371     1.0  0.58293  0.93920  0.07678  1.0000
  S   S359      1.0  0.98729  0.90937  0.22289  1.0000
  H   H1644     1.0  0.57640  0.96255  0.21630  1.0000
  C   C1372     1.0  0.69872  0.48276  0.23586  1.0000
  H   H1645     1.0  0.70359  0.89676  0.02264  1.0000
  H   H1646     1.0  0.60180  0.94078  0.07007  1.0000
  H   H1647     1.0  0.50458  0.91346  0.15307  1.0000
  C   C1373     1.0  0.50172  0.60020  0.16752  1.0000
  H   H1648     1.0  0.51019  0.63409  0.19714  1.0000
  C   C1374     1.0  0.49841  0.83230  0.10005  1.0000
  H   H1649     1.0  0.66401  0.49398  0.22805  1.0000
  C   C1375     1.0  0.67333  0.90493  0.99360  1.0000
  N   N90       1.0  0.49687  0.82068  0.12323  1.0000
  H   H1650     1.0  0.63759  0.96567  0.21473  1.0000
  C   C1376     1.0  0.63260  0.88514  0.99583  1.0000
  H   H1651     1.0  0.53959  0.95009  0.09999  1.0000
  N   N91       1.0  0.67429  0.97012  0.20507  1.0000
  S   S360      1.0  0.67904  0.96596  0.09199  1.0000
  C   C1377     1.0  0.89374  0.97868  0.22662  1.0000
  C   C1378     1.0  0.49425  0.56273  0.20222  1.0000
  H   H1652     1.0  0.51544  0.83779  0.01091  1.0000
  C   C1379     1.0  0.54351  0.95908  0.08259  1.0000
  C   C1380     1.0  0.51189  0.80114  0.99582  1.0000
  Fe  Fe181     1.0  0.49760  0.69101  0.16801  1.0000
  S   S361      1.0  0.64114  0.97069  0.06011  1.0000
  H   H1653     1.0  0.59556  0.97299  0.19076  1.0000
  H   H1654     1.0  0.88766  0.97334  0.19654  1.0000
  H   H1655     1.0  0.64443  0.97374  0.17723  1.0000
  C   C1381     1.0  0.50485  0.84124  0.99819  1.0000
  Fe  Fe182     1.0  0.49854  0.85783  0.23141  1.0000
  H   H1656     1.0  0.50414  0.84967  0.09659  1.0000
  S   S362      1.0  0.49840  0.72704  0.14812  1.0000
  H   H1657     1.0  0.50078  0.86357  0.12915  1.0000
  Fe  Fe183     1.0  0.50705  0.90333  0.23942  1.0000
  S   S363      1.0  0.58688  0.55696  0.27544  1.0000
  C   C1382     1.0  0.84048  0.93929  0.25495  1.0000
  H   H1658     1.0  0.81127  0.92004  0.29126  1.0000
  S   S364      1.0  0.52092  0.55046  0.29497  1.0000
  S   S365      1.0  0.95767  0.93875  0.27021  1.0000
  C   C1383     1.0  0.99133  0.96519  0.32355  1.0000
  H   H1659     1.0  0.55490  0.52676  0.32365  1.0000
  Fe  Fe184     1.0  0.98390  0.95835  0.27548  1.0000
  H   H1660     1.0  0.99153  0.87272  0.38974  1.0000
  C   C1384     1.0  0.83949  0.96534  0.28696  1.0000
  H   H1661     1.0  0.71324  0.96847  0.29484  1.0000
  C   C1385     1.0  0.63839  0.49036  0.34151  1.0000
  H   H1662     1.0  0.67154  0.96387  0.29837  1.0000
  C   C1386     1.0  0.57938  0.54623  0.34127  1.0000
  H   H1663     1.0  0.52702  0.53179  0.34022  1.0000
  H   H1664     1.0  0.70091  0.51888  0.25185  1.0000
  N   N92       1.0  0.55337  0.54952  0.34551  1.0000
  H   H1665     1.0  0.58720  0.54373  0.32434  1.0000
  S   S366      1.0  0.97493  0.96559  0.42493  1.0000
  H   H1666     1.0  0.84971  0.92704  0.26707  1.0000
  H   H1667     1.0  0.55409  0.57022  0.31317  1.0000
  C   C1387     1.0  0.49625  0.62752  0.25398  1.0000
  C   C1388     1.0  0.52005  0.55561  0.41157  1.0000
  C   C1389     1.0  0.49929  0.54242  0.28488  1.0000
  H   H1668     1.0  0.85177  0.95286  0.24594  1.0000
  H   H1669     1.0  0.58619  0.53061  0.35235  1.0000
  Fe  Fe185     1.0  0.60666  0.52144  0.27857  1.0000
  H   H1670     1.0  0.50651  0.55300  0.36416  1.0000
  C   C1390     1.0  0.68570  0.50940  0.26018  1.0000
  H   H1671     1.0  0.65607  0.49469  0.33604  1.0000
  C   C1391     1.0  0.96774  0.97452  0.32709  1.0000
  C   C1392     1.0  0.54575  0.57078  0.33044  1.0000
  H   H1672     1.0  0.68068  0.51180  0.27735  1.0000
  H   H1673     1.0  0.55458  0.55469  0.41698  1.0000
  C   C1393     1.0  0.50565  0.52897  0.26896  1.0000
  H   H1674     1.0  0.57425  0.55124  0.38020  1.0000
  H   H1675     1.0  0.55467  0.94209  0.27025  1.0000
  C   C1394     1.0  0.60020  0.49045  0.33415  1.0000
  H   H1676     1.0  0.49388  0.51523  0.24601  1.0000
  N   N93       1.0  0.81713  0.94966  0.26542  1.0000
  C   C1395     1.0  0.79777  0.97723  0.29023  1.0000
  S   S367      1.0  0.50240  0.49178  0.35587  1.0000
  H   H1677     1.0  0.58636  0.56147  0.34313  1.0000
  C   C1396     1.0  0.67958  0.97685  0.28544  1.0000
  C   C1397     1.0  0.52526  0.94624  0.25479  1.0000
  Fe  Fe186     1.0  0.93922  0.97329  0.25679  1.0000
  Fe  Fe187     1.0  0.58540  0.50852  0.24576  1.0000
  S   S368      1.0  0.57543  0.50372  0.28215  1.0000
  C   C1398     1.0  0.51758  0.55336  0.37519  1.0000
  C   C1399     1.0  0.50671  0.55531  0.39655  1.0000
  S   S369      1.0  0.52203  0.91682  0.26230  1.0000
  C   C1400     1.0  0.54430  0.55436  0.40520  1.0000
  H   H1678     1.0  0.78500  0.93724  0.28444  1.0000
  S   S370      1.0  0.93427  0.97424  0.47728  1.0000
  C   C1401     1.0  0.54329  0.95409  0.26066  1.0000
  S   S371      1.0  0.57212  0.54786  0.48544  1.0000
  C   C1402     1.0  0.51255  0.52433  0.48424  1.0000
  H   H1679     1.0  0.97701  0.90079  0.39385  1.0000
  H   H1680     1.0  0.58832  0.49460  0.32305  1.0000
  C   C1403     1.0  0.51913  0.51426  0.46583  1.0000
  C   C1404     1.0  0.81834  0.96417  0.28067  1.0000
  C   C1405     1.0  0.55158  0.53494  0.47814  1.0000
  C   C1406     1.0  0.55817  0.52486  0.45974  1.0000
  C   C1407     1.0  0.54205  0.51434  0.45370  1.0000
  C   C1408     1.0  0.54602  0.52953  0.34025  1.0000
  H   H1681     1.0  0.54797  0.63702  0.25833  1.0000
  H   H1682     1.0  0.57581  0.52514  0.45018  1.0000
  H   H1683     1.0  0.54730  0.50656  0.43952  1.0000
  H   H1684     1.0  0.57254  0.60060  0.25189  1.0000
  S   S372      1.0  0.63300  0.51023  0.30014  1.0000
  H   H1685     1.0  0.52365  0.52170  0.26429  1.0000
  H   H1686     1.0  0.54986  0.51336  0.35209  1.0000
  H   H1687     1.0  0.85611  0.95612  0.28062  1.0000
  C   C1409     1.0  0.55540  0.55236  0.38389  1.0000
  H   H1688     1.0  0.50321  0.59069  0.26337  1.0000
  Fe  Fe188     1.0  0.55639  0.53953  0.27579  1.0000
  C   C1410     1.0  0.62308  0.49598  0.32698  1.0000
  H   H1689     1.0  0.67071  0.51798  0.25228  1.0000
  H   H1690     1.0  0.55022  0.58636  0.33424  1.0000
  H   H1691     1.0  0.78656  0.96926  0.25362  1.0000
  H   H1692     1.0  0.52656  0.57320  0.33113  1.0000
  S   S373      1.0  0.49854  0.50162  0.45830  1.0000
  C   C1411     1.0  0.80334  0.93065  0.27747  1.0000
  C   C1412     1.0  0.83999  0.97937  0.30127  1.0000
  S   S374      1.0  0.50195  0.81955  0.24488  1.0000
  S   S375      1.0  0.53491  0.49534  0.40012  1.0000
  C   C1413     1.0  0.54231  0.55158  0.36824  1.0000
  H   H1693     1.0  0.51164  0.55664  0.42827  1.0000
  H   H1694     1.0  0.65408  0.48263  0.26385  1.0000
  H   H1695     1.0  0.98565  0.91878  0.35501  1.0000
  H   H1696     1.0  0.95630  0.97140  0.31754  1.0000
  H   H1697     1.0  0.72517  0.48332  0.26678  1.0000
  C   C1414     1.0  0.52880  0.53444  0.49053  1.0000
  N   N94       1.0  0.69128  0.48467  0.25906  1.0000
  C   C1415     1.0  0.55895  0.63622  0.24249  1.0000
  H   H1698     1.0  0.80229  0.91906  0.26667  1.0000
  C   C1416     1.0  0.54693  0.97734  0.25377  1.0000
  C   C1417     1.0  0.70318  0.97943  0.28343  1.0000
  H   H1699     1.0  0.51037  0.63060  0.26048  1.0000
  H   H1700     1.0  0.78093  0.97684  0.28668  1.0000
  C   C1418     1.0  0.80540  0.96358  0.24770  1.0000
  C   C1419     1.0  0.51056  0.96176  0.24241  1.0000
  H   H1701     1.0  0.83916  0.92938  0.24282  1.0000
  S   S376      1.0  0.61830  0.52352  0.24247  1.0000
  H   H1702     1.0  0.85652  0.98050  0.30523  1.0000
  H   H1703     1.0  0.64903  0.87017  0.67520  1.0000
  H   H1704     1.0  0.65269  0.48253  0.57847  1.0000
  H   H1705     1.0  0.63359  0.90475  0.70876  1.0000
  C   C1420     1.0  0.53417  0.64806  0.57598  1.0000
  H   H1706     1.0  0.60152  0.51184  0.60534  1.0000
  C   C1421     1.0  0.49538  0.52038  0.60448  1.0000
  H   H1707     1.0  0.97452  0.91017  0.50735  1.0000
  Fe  Fe189     1.0  0.94159  0.96742  0.59547  1.0000
  S   S377      1.0  0.97800  0.96362  0.57612  1.0000
  S   S378      1.0  0.91192  0.96765  0.57941  1.0000
  H   H1708     1.0  0.64969  0.87206  0.73060  1.0000
  Fe  Fe190     1.0  0.57785  0.51829  0.56140  1.0000
  H   H1709     1.0  0.54316  0.55346  0.62589  1.0000
  C   C1422     1.0  0.87290  0.93530  0.67177  1.0000
  S   S379      1.0  0.94892  0.93946  0.62375  1.0000
  H   H1710     1.0  0.51283  0.60710  0.59752  1.0000
  Fe  Fe191     1.0  0.52964  0.54621  0.56330  1.0000
  Fe  Fe192     1.0  0.69642  0.95811  0.68929  1.0000
  H   H1711     1.0  0.59824  0.73078  0.68686  1.0000
  H   H1712     1.0  0.54592  0.62254  0.55579  1.0000
  H   H1713     1.0  0.56121  0.70638  0.73737  1.0000
  H   H1714     1.0  0.62487  0.93174  0.71645  1.0000
  Fe  Fe193     1.0  0.59938  0.83178  0.72694  1.0000
  S   S380      1.0  0.58220  0.79226  0.67238  1.0000
  H   H1715     1.0  0.49912  0.76458  0.64473  1.0000
  H   H1716     1.0  0.59045  0.54678  0.71112  1.0000
  H   H1717     1.0  0.66052  0.95211  0.66466  1.0000
  H   H1718     1.0  0.97965  0.89832  0.54739  1.0000
  H   H1719     1.0  0.90261  0.97725  0.69439  1.0000
  H   H1720     1.0  0.58709  0.65537  0.71361  1.0000
  S   S381      1.0  0.58346  0.86857  0.72036  1.0000
  C   C1423     1.0  0.65152  0.88803  0.67285  1.0000
  Fe  Fe194     1.0  0.52110  0.50674  0.71582  1.0000
  S   S382      1.0  0.55486  0.51988  0.71366  1.0000
  Fe  Fe195     1.0  0.98594  0.93803  0.60566  1.0000
  H   H1721     1.0  0.50641  0.57892  0.59874  1.0000
  Fe  Fe196     1.0  0.51290  0.67702  0.63885  1.0000
  S   S383      1.0  0.53710  0.68494  0.65742  1.0000
  S   S384      1.0  0.51822  0.67924  0.60275  1.0000
  C   C1424     1.0  0.61474  0.70670  0.64251  1.0000
  H   H1722     1.0  0.54883  0.91509  0.71543  1.0000
  C   C1425     1.0  0.49454  0.86064  0.72664  1.0000
  Fe  Fe197     1.0  0.50453  0.70073  0.67755  1.0000
  H   H1723     1.0  0.52370  0.55245  0.65176  1.0000
  Fe  Fe198     1.0  0.52867  0.65164  0.68032  1.0000
  S   S385      1.0  0.55819  0.62750  0.69295  1.0000
  H   H1724     1.0  0.58557  0.48702  0.68013  1.0000
  S   S386      1.0  0.50710  0.64263  0.66023  1.0000
  C   C1426     1.0  0.55482  0.54994  0.70735  1.0000
  C   C1427     1.0  0.57524  0.55855  0.70724  1.0000
  C   C1428     1.0  0.57600  0.58234  0.70262  1.0000
  C   C1429     1.0  0.55640  0.59778  0.69788  1.0000
  C   C1430     1.0  0.53598  0.58926  0.69751  1.0000
  C   C1431     1.0  0.53518  0.56528  0.70228  1.0000
  H   H1725     1.0  0.53439  0.82379  0.66786  1.0000
  H   H1726     1.0  0.59179  0.58880  0.70292  1.0000
  H   H1727     1.0  0.62024  0.73810  0.64990  1.0000
  H   H1728     1.0  0.51932  0.55871  0.70237  1.0000
  S   S387      1.0  0.50048  0.51755  0.68939  1.0000
  C   C1432     1.0  0.88217  0.95470  0.67281  1.0000
  C   C1433     1.0  0.57209  0.71068  0.72070  1.0000
  S   S388      1.0  0.70538  0.95740  0.72148  1.0000
  H   H1729     1.0  0.58928  0.71385  0.72277  1.0000
  S   S389      1.0  0.55707  0.54172  0.58296  1.0000
  Fe  Fe199     1.0  0.56488  0.54971  0.52094  1.0000
  H   H1730     1.0  0.68512  0.87999  0.68227  1.0000
  C   C1434     1.0  0.56818  0.61909  0.57867  1.0000
  H   H1731     1.0  0.53620  0.58435  0.59472  1.0000
  C   C1435     1.0  0.55873  0.77608  0.67812  1.0000
  C   C1436     1.0  0.53960  0.77869  0.69523  1.0000
  C   C1437     1.0  0.52118  0.76543  0.69926  1.0000
  C   C1438     1.0  0.52205  0.74928  0.68646  1.0000
  C   C1439     1.0  0.54108  0.74685  0.66926  1.0000
  C   C1440     1.0  0.55920  0.76045  0.66496  1.0000
  H   H1732     1.0  0.53896  0.79093  0.70530  1.0000
  H   H1733     1.0  0.54800  0.81413  0.64306  1.0000
  H   H1734     1.0  0.54174  0.73470  0.65910  1.0000
  H   H1735     1.0  0.57370  0.75877  0.65140  1.0000
  C   C1441     1.0  0.86791  0.97622  0.67376  1.0000
  C   C1442     1.0  0.52459  0.55780  0.63387  1.0000
  S   S390      1.0  0.94818  0.96427  0.67317  1.0000
  C   C1443     1.0  0.67191  0.89361  0.67685  1.0000
  Fe  Fe200     1.0  0.55242  0.85402  0.71767  1.0000
  C   C1444     1.0  0.58355  0.95736  0.70093  1.0000
  C   C1445     1.0  0.55656  0.92930  0.71734  1.0000
  C   C1446     1.0  0.51232  0.50144  0.60124  1.0000
  C   C1447     1.0  0.97135  0.96782  0.68423  1.0000
  Fe  Fe201     1.0  0.59597  0.86712  0.68512  1.0000
  H   H1736     1.0  0.62584  0.49938  0.69487  1.0000
  H   H1737     1.0  0.81613  0.95851  0.67306  1.0000
  C   C1448     1.0  0.50623  0.85981  0.64981  1.0000
  C   C1449     1.0  0.92928  0.97317  0.50547  1.0000
  C   C1450     1.0  0.97694  0.95184  0.70250  1.0000
  H   H1738     1.0  0.51945  0.65587  0.56834  1.0000
  N   N95       1.0  0.57484  0.69196  0.70848  1.0000
  C   C1451     1.0  0.53790  0.65652  0.59322  1.0000
  C   C1452     1.0  0.55710  0.64654  0.60288  1.0000
  C   C1453     1.0  0.57241  0.62812  0.59536  1.0000
  S   S391      1.0  0.54902  0.51990  0.54400  1.0000
  H   H1739     1.0  0.56020  0.65311  0.61606  1.0000
  H   H1740     1.0  0.58731  0.62059  0.60280  1.0000
  C   C1454     1.0  0.58863  0.55396  0.64491  1.0000
  H   H1741     1.0  0.67036  0.90461  0.72359  1.0000
  H   H1742     1.0  0.55051  0.84229  0.64526  1.0000
  S   S392      1.0  0.58672  0.59487  0.57084  1.0000
  C   C1455     1.0  0.59865  0.56100  0.62300  1.0000
  H   H1743     1.0  0.53943  0.68560  0.72448  1.0000
  H   H1744     1.0  0.52507  0.79428  0.63354  1.0000
  Fe  Fe202     1.0  0.58117  0.81962  0.69144  1.0000
  H   H1745     1.0  0.96017  0.93571  0.51687  1.0000
  H   H1746     1.0  0.83285  0.49080  0.68424  1.0000
  H   H1747     1.0  0.96869  0.92696  0.55149  1.0000
  H   H1748     1.0  0.61079  0.55122  0.59191  1.0000
  H   H1749     1.0  0.96727  0.93727  0.70938  1.0000
  C   C1456     1.0  0.52211  0.84452  0.61743  1.0000
  H   H1750     1.0  0.52277  0.50074  0.58522  1.0000
  H   H1751     1.0  0.90072  0.95276  0.67268  1.0000
  C   C1457     1.0  0.59963  0.71771  0.67750  1.0000
  H   H1752     1.0  0.53363  0.85842  0.61164  1.0000
  C   C1458     1.0  0.67499  0.91672  0.67435  1.0000
  C   C1459     1.0  0.56199  0.95597  0.73808  1.0000
  C   C1460     1.0  0.61242  0.72222  0.65608  1.0000
  S   S393      1.0  0.56332  0.85558  0.68184  1.0000
  Fe  Fe203     1.0  0.57198  0.57042  0.55733  1.0000
  S   S394      1.0  0.60801  0.89914  0.66238  1.0000
  Fe  Fe204     1.0  0.95808  0.96712  0.63699  1.0000
  S   S395      1.0  0.66226  0.98086  0.69531  1.0000
  S   S396      1.0  0.54284  0.57678  0.53884  1.0000
  C   C1461     1.0  0.50017  0.82045  0.64836  1.0000
  C   C1462     1.0  0.60451  0.68645  0.65038  1.0000
  C   C1463     1.0  0.83462  0.95743  0.67301  1.0000
  H   H1753     1.0  0.52932  0.48725  0.51727  1.0000
  C   C1464     1.0  0.91957  0.96959  0.55099  1.0000
  C   C1465     1.0  0.90630  0.95953  0.54138  1.0000
  C   C1466     1.0  0.91111  0.96132  0.51878  1.0000
  H   H1754     1.0  0.57538  0.52723  0.66999  1.0000
  C   C1467     1.0  0.58782  0.51515  0.63917  1.0000
  H   H1755     1.0  0.89206  0.95046  0.55145  1.0000
  H   H1756     1.0  0.90062  0.95346  0.51158  1.0000
  H   H1757     1.0  0.49483  0.52431  0.49368  1.0000
  H   H1758     1.0  0.58483  0.56608  0.65577  1.0000
  H   H1759     1.0  0.58433  0.66571  0.67712  1.0000
  H   H1760     1.0  0.60478  0.67256  0.72078  1.0000
  S   S397      1.0  0.61508  0.83136  0.69169  1.0000
  C   C1468     1.0  0.57277  0.93918  0.69954  1.0000
  C   C1469     1.0  0.60342  0.54549  0.60908  1.0000
  H   H1761     1.0  0.51425  0.54708  0.62877  1.0000
  H   H1762     1.0  0.50632  0.76755  0.71242  1.0000
  H   H1763     1.0  0.60251  0.57857  0.61663  1.0000
  C   C1470     1.0  0.54911  0.62919  0.56889  1.0000
  H   H1764     1.0  0.53115  0.59245  0.65109  1.0000
  H   H1765     1.0  0.62022  0.49944  0.53240  1.0000
  H   H1766     1.0  0.51894  0.87261  0.64492  1.0000
  S   S398      1.0  0.59543  0.54625  0.53715  1.0000
  S   S399      1.0  0.69972  0.92317  0.68122  1.0000
  C   C1471     1.0  0.58325  0.53141  0.65295  1.0000
  N   N96       1.0  0.51635  0.58278  0.62756  1.0000
  C   C1472     1.0  0.53812  0.82924  0.64977  1.0000
  H   H1767     1.0  0.87052  0.49224  0.69360  1.0000
  S   S400      1.0  0.49911  0.73242  0.69228  1.0000
  C   C1473     1.0  0.57255  0.48539  0.67082  1.0000
  C   C1474     1.0  0.65798  0.93427  0.66714  1.0000
  H   H1768     1.0  0.51620  0.83447  0.71037  1.0000
  H   H1769     1.0  0.62478  0.94232  0.65699  1.0000
  C   C1475     1.0  0.63785  0.92871  0.66265  1.0000
  C   C1476     1.0  0.51802  0.58849  0.60365  1.0000
  H   H1770     1.0  0.54241  0.70270  0.69737  1.0000
  C   C1477     1.0  0.58868  0.69733  0.68595  1.0000
  H   H1771     1.0  0.52920  0.61433  0.62706  1.0000
  H   H1772     1.0  0.52355  0.54231  0.50468  1.0000
  H   H1773     1.0  0.60570  0.90968  0.72598  1.0000
  H   H1774     1.0  0.55116  0.59028  0.62560  1.0000
  C   C1478     1.0  0.63441  0.90561  0.66587  1.0000
  C   C1479     1.0  0.51594  0.48337  0.61877  1.0000
  H   H1775     1.0  0.57708  0.93262  0.68457  1.0000
  H   H1776     1.0  0.50600  0.85065  0.61057  1.0000
  H   H1777     1.0  0.50161  0.85630  0.66796  1.0000
  H   H1778     1.0  0.55114  0.67224  0.70183  1.0000
  C   C1480     1.0  0.55100  0.68797  0.70801  1.0000
  C   C1481     1.0  0.57825  0.96568  0.72017  1.0000
  C   C1482     1.0  0.53262  0.59548  0.63312  1.0000
  C   C1483     1.0  0.98482  0.91570  0.54538  1.0000
  H   H1779     1.0  0.98589  0.95962  0.52822  1.0000
  H   H1780     1.0  0.52069  0.60110  0.69407  1.0000
  H   H1781     1.0  0.62443  0.71041  0.62585  1.0000
  C   C1484     1.0  0.59810  0.52294  0.61697  1.0000
  H   H1782     1.0  0.59617  0.96490  0.68707  1.0000
  S   S401      1.0  0.49797  0.66788  0.70195  1.0000
  H   H1783     1.0  0.60623  0.67437  0.63981  1.0000
  N   N97       1.0  0.58147  0.49142  0.64690  1.0000
  C   C1485     1.0  0.49855  0.84254  0.71545  1.0000
  C   C1486     1.0  0.58644  0.67070  0.72075  1.0000
  H   H1784     1.0  0.53165  0.82964  0.61012  1.0000
  C   C1487     1.0  0.59184  0.68170  0.67179  1.0000
  H   H1785     1.0  0.84020  0.97701  0.54519  1.0000
  C   C1488     1.0  0.50763  0.79853  0.64264  1.0000
  S   S402      1.0  0.56708  0.81698  0.72738  1.0000
  N   N98       1.0  0.51620  0.83830  0.64157  1.0000
  H   H1786     1.0  0.56315  0.72707  0.71227  1.0000
  C   C1489     1.0  0.84917  0.93667  0.67184  1.0000
  H   H1787     1.0  0.84206  0.92163  0.67093  1.0000
  S   S403      1.0  0.51767  0.87051  0.73280  1.0000
  C   C1490     1.0  0.97736  0.92733  0.50916  1.0000
  C   C1491     1.0  0.84374  0.97696  0.67396  1.0000
  H   H1788     1.0  0.55598  0.49651  0.67602  1.0000
  H   H1789     1.0  0.57693  0.66638  0.73798  1.0000
  H   H1790     1.0  0.88427  0.91917  0.67076  1.0000
  C   C1492     1.0  0.55049  0.93750  0.73713  1.0000
  H   H1791     1.0  0.51264  0.91770  0.73589  1.0000
  C   C1493     1.0  0.49286  0.78140  0.64882  1.0000
  H   H1792     1.0  0.68198  0.48591  0.56310  1.0000
  H   H1793     1.0  0.57155  0.49340  0.50403  1.0000
  H   H1794     1.0  0.65756  0.93049  0.73285  1.0000
  S   S404      1.0  0.59546  0.48442  0.57691  1.0000
  C   C1494     1.0  0.50327  0.48466  0.63977  1.0000
  H   H1795     1.0  0.54672  0.50109  0.64033  1.0000
  C   C1495     1.0  0.56286  0.48902  0.63607  1.0000
  C   C1496     1.0  0.62422  0.91295  0.72257  1.0000
  H   H1796     1.0  0.58680  0.97980  0.72119  1.0000
  H   H1797     1.0  0.56820  0.49263  0.61802  1.0000
  C   C1497     1.0  0.65830  0.91140  0.73746  1.0000
  S   S405      1.0  0.49330  0.54426  0.58308  1.0000
  C   C1498     1.0  0.63032  0.48185  0.70333  1.0000
  N   N99       1.0  0.63489  0.90370  0.74200  1.0000
  H   H1798     1.0  0.98193  0.93809  0.49256  1.0000
  H   H1799     1.0  0.53544  0.95197  0.88139  1.0000
  H   H1800     1.0  0.55305  0.88471  0.91095  1.0000
  H   H1801     1.0  0.71945  0.97704  0.77512  1.0000
  S   S406      1.0  0.62074  0.81925  0.75286  1.0000
  H   H1802     1.0  0.59506  0.96415  0.77565  1.0000
  H   H1803     1.0  0.62775  0.87031  0.87482  1.0000
  H   H1804     1.0  0.50412  0.79650  0.77278  1.0000
  S   S407      1.0  0.52051  0.85775  0.87416  1.0000
  C   C1499     1.0  0.59440  0.84309  0.81760  1.0000
  C   C1500     1.0  0.65637  0.91370  0.88316  1.0000
  H   H1805     1.0  0.61376  0.88110  0.85191  1.0000
  H   H1806     1.0  0.58272  0.88565  0.93218  1.0000
  C   C1501     1.0  0.54740  0.80748  0.82869  1.0000
  H   H1807     1.0  0.62742  0.82557  0.82497  1.0000
  C   C1502     1.0  0.56430  0.88900  0.93909  1.0000
  H   H1808     1.0  0.54564  0.89218  0.75020  1.0000
  C   C1503     1.0  0.61636  0.83016  0.81304  1.0000
  C   C1504     1.0  0.58020  0.84892  0.80199  1.0000
  C   C1505     1.0  0.55521  0.82534  0.98249  1.0000
  H   H1809     1.0  0.53096  0.83350  0.93753  1.0000
  H   H1810     1.0  0.62148  0.87121  0.74786  1.0000
  C   C1506     1.0  0.64382  0.97659  0.81836  1.0000
  C   C1507     1.0  0.62410  0.82293  0.79316  1.0000
  S   S408      1.0  0.67617  0.96109  0.84421  1.0000
  H   H1811     1.0  0.51821  0.78832  0.98511  1.0000
  H   H1812     1.0  0.57700  0.84604  0.77000  1.0000
  C   C1508     1.0  0.61388  0.93667  0.75969  1.0000
  Fe  Fe205     1.0  0.49875  0.87782  0.85008  1.0000
  H   H1813     1.0  0.72301  0.92944  0.96823  1.0000
  H   H1814     1.0  0.62286  0.91584  0.97328  1.0000
  H   H1815     1.0  0.52983  0.89346  0.77705  1.0000
  H   H1816     1.0  0.49761  0.94158  0.93592  1.0000
  H   H1817     1.0  0.57939  0.78280  0.78701  1.0000
  C   C1509     1.0  0.61245  0.92644  0.85240  1.0000
  C   C1510     1.0  0.52432  0.81200  0.80052  1.0000
  C   C1511     1.0  0.58900  0.93082  0.79557  1.0000
  H   H1818     1.0  0.51559  0.85398  0.77728  1.0000
  H   H1819     1.0  0.64109  0.81279  0.78985  1.0000
  C   C1512     1.0  0.58417  0.83080  0.94891  1.0000
  C   C1513     1.0  0.52059  0.94686  0.89471  1.0000
  C   C1514     1.0  0.61003  0.82866  0.77757  1.0000
  H   H1820     1.0  0.66232  0.88870  0.84995  1.0000
  C   C1515     1.0  0.56865  0.97982  0.85030  1.0000
  H   H1821     1.0  0.54354  0.93676  0.78179  1.0000
  C   C1516     1.0  0.56616  0.79540  0.81665  1.0000
  H   H1822     1.0  0.55870  0.96332  0.75243  1.0000
  H   H1823     1.0  0.60886  0.92453  0.83677  1.0000
  H   H1824     1.0  0.59529  0.92864  0.86374  1.0000
  H   H1825     1.0  0.54908  0.81104  0.84396  1.0000
  H   H1826     1.0  0.52739  0.93106  0.90534  1.0000
  C   C1517     1.0  0.59453  0.90706  0.79738  1.0000
  C   C1518     1.0  0.52923  0.97204  0.91518  1.0000
  C   C1519     1.0  0.68079  0.95714  0.80206  1.0000
  S   S409      1.0  0.62474  0.96998  0.94488  1.0000
  C   C1520     1.0  0.53346  0.89668  0.96955  1.0000
  H   H1827     1.0  0.56490  0.94697  0.84437  1.0000
  C   C1521     1.0  0.54381  0.79956  0.78866  1.0000
  C   C1522     1.0  0.65615  0.91633  0.98124  1.0000
  C   C1523     1.0  0.63604  0.90659  0.98249  1.0000
  H   H1828     1.0  0.64710  0.86979  0.75911  1.0000
  H   H1829     1.0  0.60213  0.83229  0.94054  1.0000
  C   C1524     1.0  0.52783  0.93806  0.77473  1.0000
  C   C1525     1.0  0.55864  0.96512  0.84199  1.0000
  C   C1526     1.0  0.58807  0.84181  0.78190  1.0000
  S   S410      1.0  0.50227  0.89122  0.92217  1.0000
  S   S411      1.0  0.52628  0.95593  0.82152  1.0000
  H   H1830     1.0  0.62017  0.94277  0.84921  1.0000
  H   H1831     1.0  0.57706  0.93784  0.80864  1.0000
  C   C1527     1.0  0.49993  0.84719  0.78854  1.0000
  Fe  Fe206     1.0  0.55049  0.87259  0.84989  1.0000
  H   H1832     1.0  0.49542  0.84744  0.95828  1.0000
  C   C1528     1.0  0.51080  0.92765  0.74881  1.0000
  H   H1833     1.0  0.49911  0.81705  0.95764  1.0000
  S   S412      1.0  0.58578  0.85195  0.84277  1.0000
  H   H1834     1.0  0.69788  0.94769  0.80349  1.0000
  C   C1529     1.0  0.55727  0.89304  0.96032  1.0000
  H   H1835     1.0  0.56310  0.85853  0.80544  1.0000
  H   H1836     1.0  0.57135  0.83567  0.91942  1.0000
  H   H1837     1.0  0.67776  0.92147  0.90263  1.0000
  H   H1838     1.0  0.69596  0.93571  0.95938  1.0000
  H   H1839     1.0  0.50735  0.94189  0.88753  1.0000
  H   H1840     1.0  0.54379  0.79609  0.77301  1.0000
  H   H1841     1.0  0.59188  0.82576  0.98075  1.0000
  H   H1842     1.0  0.55927  0.90078  0.76854  1.0000
  C   C1530     1.0  0.51671  0.89600  0.95768  1.0000
  C   C1531     1.0  0.54084  0.95549  0.93022  1.0000
  C   C1532     1.0  0.59889  0.94561  0.77687  1.0000
  C   C1533     1.0  0.63167  0.97413  0.98413  1.0000
  H   H1843     1.0  0.67133  0.91286  0.86991  1.0000
  C   C1534     1.0  0.63358  0.91089  0.88151  1.0000
  H   H1844     1.0  0.58238  0.78966  0.82249  1.0000
  C   C1535     1.0  0.64953  0.90346  0.84417  1.0000
  Fe  Fe207     1.0  0.52384  0.92002  0.84135  1.0000
  H   H1845     1.0  0.64508  0.89996  0.82948  1.0000
  C   C1536     1.0  0.61683  0.88544  0.86680  1.0000
  H   H1846     1.0  0.68524  0.95679  0.76796  1.0000
  C   C1537     1.0  0.65170  0.97472  0.78018  1.0000
  H   H1847     1.0  0.58692  0.89559  0.81204  1.0000
  C   C1538     1.0  0.56441  0.79153  0.79666  1.0000
  C   C1539     1.0  0.54755  0.88830  0.92717  1.0000
  H   H1848     1.0  0.65840  0.91927  0.83843  1.0000
  C   C1540     1.0  0.61968  0.91257  0.76083  1.0000
  C   C1541     1.0  0.60981  0.89795  0.78039  1.0000
  C   C1542     1.0  0.67369  0.96230  0.78200  1.0000
  H   H1849     1.0  0.62102  0.94883  0.74542  1.0000
  H   H1850     1.0  0.71124  0.90691  0.96172  1.0000
  C   C1543     1.0  0.50234  0.81550  0.77124  1.0000
  S   S413      1.0  0.61868  0.97425  0.88552  1.0000
  C   C1544     1.0  0.52373  0.89160  0.93659  1.0000
  N   N100      1.0  0.51064  0.96574  0.90663  1.0000
  H   H1851     1.0  0.56719  0.94797  0.94992  1.0000
  H   H1852     1.0  0.59738  0.91222  0.89956  1.0000
  C   C1545     1.0  0.64207  0.92073  0.91974  1.0000
  H   H1853     1.0  0.64520  0.92500  0.93413  1.0000
  C   C1546     1.0  0.61527  0.91335  0.89985  1.0000
  H   H1854     1.0  0.60530  0.92011  0.93249  1.0000
  C   C1547     1.0  0.61956  0.91803  0.91872  1.0000
  S   S414      1.0  0.54729  0.90341  0.86481  1.0000
  H   H1855     1.0  0.65788  0.93311  0.97078  1.0000
  S   S415      1.0  0.57838  0.89416  0.97487  1.0000
  C   C1548     1.0  0.66617  0.96502  0.82001  1.0000
  N   N101      1.0  0.62841  0.90658  0.86152  1.0000
  H   H1856     1.0  0.52073  0.95659  0.77038  1.0000
  C   C1549     1.0  0.66039  0.91867  0.90200  1.0000
  H   H1857     1.0  0.51655  0.82253  0.75793  1.0000
  N   N102      1.0  0.53321  0.92671  0.75571  1.0000
  C   C1550     1.0  0.70658  0.92225  0.96947  1.0000
  C   C1551     1.0  0.56682  0.83269  0.93707  1.0000
  S   S416      1.0  0.52938  0.89014  0.82467  1.0000
  H   H1858     1.0  0.61358  0.87942  0.78290  1.0000
  C   C1552     1.0  0.57836  0.82717  0.97156  1.0000
  H   H1859     1.0  0.59938  0.88715  0.87781  1.0000
  H   H1860     1.0  0.62606  0.95726  0.99040  1.0000
  Fe  Fe208     1.0  0.51484  0.89038  0.88658  1.0000
  C   C1553     1.0  0.63836  0.87812  0.74519  1.0000
  H   H1861     1.0  0.49787  0.85338  0.80383  1.0000
  C   C1554     1.0  0.53698  0.82759  0.97096  1.0000
  H   H1862     1.0  0.53642  0.93815  0.93564  1.0000
  C   C1555     1.0  0.55849  0.96094  0.93849  1.0000
  C   C1556     1.0  0.52681  0.81575  0.82077  1.0000
  C   C1557     1.0  0.54242  0.90226  0.76320  1.0000
  H   H1863     1.0  0.51437  0.92997  0.78822  1.0000
  C   C1558     1.0  0.54351  0.83131  0.94781  1.0000
  H   H1864     1.0  0.66664  0.90545  0.75192  1.0000
  H   H1865     1.0  0.51296  0.82546  0.83052  1.0000
  N   N103      1.0  0.50261  0.82168  0.79217  1.0000
  H   H1866     1.0  0.50372  0.94574  0.74236  1.0000
  H   H1867     1.0  0.58251  0.97298  0.85923  1.0000
  H   H1868     1.0  0.52792  0.90059  0.98564  1.0000
  C   C1559     1.0  0.54015  0.97393  0.83102  1.0000
  N   N104      1.0  0.51267  0.82504  0.98298  1.0000
  H   H1869     1.0  0.49720  0.92014  0.76255  1.0000
  H   H1870     1.0  0.49827  0.89903  0.96481  1.0000
  H   H1871     1.0  0.50605  0.85931  0.98937  1.0000
  C   C1560     1.0  0.49546  0.82967  0.96853  1.0000
  H   H1872     1.0  0.67587  0.95062  0.99117  1.0000
