data_image0
_chemical_formula_structural       SFeSFeS2FeS2FeSFeS3C3H2C5H3C6H4NC8H12CH2CH3C2NH2CHC2H5CSCH2CH2CHCH2SH2C3FeSH4C3H2CHC2H10NCH2FeSH2CS2HSFeS2FeS2FeSFeS3C4H2C3H2C6H9C6H5CNC4HCHC2H9CHCH2NC7H2CH2CSCH2CH8C2HC2H2CH2NH3NH2C2H4C3S2HCHCHCFeH2C2HC3H3Fe2SNSFeS2FeS2FeSFeS4C6H4C2HC2HC6H4C3H2CH3C4HC2NC3H2C4H2CHCH2CH3SH6CHFeH2CHCFeHS2CHCHC5H4C2H2CH3CHNHSCH3NCH2FeSCH6SCFeSC2H2CH4FeC3NHC2H2CHCHCHCH3CHC2HSCH7CSFeSFeSFeS2FeS2FeSFeS3FeSFeCSHCS2C2H2CH2C6H6CHCHCHC2SC7H4C2H2CH3CNH3CH2CHCH5C2H4NC7NC2H4CH3CH2SC2H3CH2CHNHC3HCHCHCHCH2C2H2FeHFeS2FeS2FeS2FeSFeS4C6H4C3H2C6H4C2HNC4H11C2HNC6HC2H10C4HCS2H2C3SH2C6H2C2NHSC2H3CH2CHCHCHFeHCH2C3H3CH3FeH2C3H2NHC5H5SH2C2HCH5C2HCH2FeS2FeS2FeHFeS3CS2HSNH2SC2H6C2H2C6H4C6H4C3H4NC6HCH3CH8CHCH3C2Fe2CH2CHC4NH2CHC2H4CH4CH3SHCSHSCSFeSFeSFeS2FeS2FeSFeS3C6H3C6H4NC9H12CHNH2CHCSH5C3H2SC2H2CH2C3HCH2SCHC2H3CH5C3H2NSCSC2HCFe2H3C5H2C2H6C2H3NCFeHCHSHFeSFeSHFeS2FeS2FeSFeS5FeSCNC5HCHFeC6H6CH2CHC2H2C6H4C2SCH2SC5HC2HC2HC3HCH2CNC9H14C5H8C2H7CHSHCH3CHCNCHSHC2FeH6CFeCH4NCH2CH3CHCH4C2HC2NH2CH2C2HC
_chemical_formula_sum              "S128 Fe64 C480 H576 N32"
_cell_length_a       30.7471
_cell_length_b       60.0264
_cell_length_c       41.2504
_cell_angle_alpha    90.1453
_cell_angle_beta     107.219
_cell_angle_gamma    89.8335

_space_group_name_H-M_alt    "P 1"
_space_group_IT_number       1

loop_
  _space_group_symop_operation_xyz
  'x, y, z'

loop_
  _atom_site_type_symbol
  _atom_site_label
  _atom_site_symmetry_multiplicity
  _atom_site_fract_x
  _atom_site_fract_y
  _atom_site_fract_z
  _atom_site_occupancy
  S   S1        1.0  0.51537  0.22241  0.12284  1.0000
  Fe  Fe1       1.0  0.46233  0.22837  0.14949  1.0000
  S   S2        1.0  0.42359  0.20250  0.17098  1.0000
  Fe  Fe2       1.0  0.08713  0.11830  0.08795  1.0000
  S   S3        1.0  0.09857  0.09894  0.13647  1.0000
  S   S4        1.0  0.01422  0.11650  0.05338  1.0000
  Fe  Fe3       1.0  0.18500  0.13597  0.10934  1.0000
  S   S5        1.0  0.20243  0.11766  0.15893  1.0000
  S   S6        1.0  0.23386  0.15735  0.09014  1.0000
  Fe  Fe4       1.0  0.16494  0.08827  0.12897  1.0000
  S   S7        1.0  0.20038  0.05400  0.13905  1.0000
  Fe  Fe5       1.0  0.13434  0.12980  0.16214  1.0000
  S   S8        1.0  0.13056  0.14332  0.21315  1.0000
  S   S9        1.0  0.15157  0.10592  0.07873  1.0000
  S   S10       1.0  0.11889  0.14983  0.11421  1.0000
  C   C1        1.0  0.13152  0.02172  0.12078  1.0000
  C   C2        1.0  0.17824  0.02621  0.13253  1.0000
  C   C3        1.0  0.20877  0.00805  0.13996  1.0000
  H   H1        1.0  0.10752  0.03541  0.11479  1.0000
  H   H2        1.0  0.24497  0.01120  0.14908  1.0000
  C   C4        1.0  0.02461  0.19300  0.23010  1.0000
  C   C5        1.0  0.05363  0.17020  0.19160  1.0000
  C   C6        1.0  0.09030  0.16313  0.21872  1.0000
  C   C7        1.0  0.09423  0.17131  0.25147  1.0000
  C   C8        1.0  0.06177  0.18630  0.25715  1.0000
  H   H3        1.0  0.05016  0.16411  0.16624  1.0000
  H   H4        1.0  0.12239  0.16587  0.27265  1.0000
  H   H5        1.0  0.06503  0.19231  0.28251  1.0000
  C   C9        1.0  0.37017  0.19059  0.14835  1.0000
  C   C10       1.0  0.35025  0.19432  0.11364  1.0000
  C   C11       1.0  0.30848  0.18411  0.09640  1.0000
  C   C12       1.0  0.28583  0.17022  0.11359  1.0000
  C   C13       1.0  0.30541  0.16675  0.14844  1.0000
  C   C14       1.0  0.34735  0.17688  0.16566  1.0000
  H   H6        1.0  0.36734  0.20477  0.09991  1.0000
  H   H7        1.0  0.29372  0.18690  0.06947  1.0000
  H   H8        1.0  0.28848  0.15613  0.16204  1.0000
  H   H9        1.0  0.36244  0.17385  0.19249  1.0000
  N   N1        1.0  0.31940  0.09286  0.12221  1.0000
  C   C15       1.0  0.32094  0.08320  0.15568  1.0000
  C   C16       1.0  0.27281  0.10173  0.10697  1.0000
  C   C17       1.0  0.32729  0.07450  0.10049  1.0000
  C   C18       1.0  0.35315  0.11081  0.12431  1.0000
  C   C19       1.0  0.35449  0.12230  0.09456  1.0000
  C   C20       1.0  0.38508  0.11754  0.15541  1.0000
  C   C21       1.0  0.38555  0.13950  0.09587  1.0000
  C   C22       1.0  0.41610  0.13473  0.15636  1.0000
  H   H10       1.0  0.31350  0.09606  0.17285  1.0000
  H   H11       1.0  0.29476  0.06993  0.15315  1.0000
  H   H12       1.0  0.35445  0.07530  0.16824  1.0000
  H   H13       1.0  0.26692  0.11651  0.12140  1.0000
  H   H14       1.0  0.24630  0.08909  0.10687  1.0000
  H   H15       1.0  0.26634  0.10719  0.08024  1.0000
  H   H16       1.0  0.36243  0.06771  0.11060  1.0000
  H   H17       1.0  0.30289  0.06052  0.09896  1.0000
  H   H18       1.0  0.32275  0.08001  0.07398  1.0000
  H   H19       1.0  0.33080  0.11843  0.07010  1.0000
  H   H20       1.0  0.38632  0.11012  0.17945  1.0000
  H   H21       1.0  0.38497  0.14853  0.07301  1.0000
  C   C23       1.0  0.41632  0.14567  0.12670  1.0000
  H   H22       1.0  0.43944  0.15948  0.12782  1.0000
  H   H23       1.0  0.07370  0.02351  0.16952  1.0000
  C   C24       1.0  0.04226  0.05424  0.17847  1.0000
  H   H24       1.0  0.00879  0.04810  0.16508  1.0000
  H   H25       1.0  0.04090  0.11646  0.22528  1.0000
  H   H26       1.0  0.04599  0.12133  0.18334  1.0000
  C   C25       1.0  0.02317  0.11483  0.19763  1.0000
  C   C26       1.0  0.04871  0.07613  0.19227  1.0000
  N   N2        1.0  0.00946  0.09151  0.18748  1.0000
  H   H27       1.0  0.00053  0.08296  0.23560  1.0000
  H   H28       1.0  0.99347  0.12637  0.19239  1.0000
  C   C27       1.0  0.98067  0.08363  0.20821  1.0000
  H   H29       1.0  0.95092  0.09484  0.20573  1.0000
  C   C28       1.0  0.09395  0.08207  0.21111  1.0000
  C   C29       1.0  0.98161  0.09212  0.15119  1.0000
  H   H30       1.0  0.95422  0.10496  0.14641  1.0000
  H   H31       1.0  0.00297  0.09620  0.13439  1.0000
  H   H32       1.0  0.96718  0.06661  0.20064  1.0000
  H   H33       1.0  0.96409  0.07614  0.14222  1.0000
  H   H34       1.0  0.10241  0.09812  0.22317  1.0000
  C   C30       1.0  0.11572  0.99945  0.11693  1.0000
  S   S11       1.0  0.46461  0.23711  0.02984  1.0000
  C   C31       1.0  0.02080  0.18486  0.19736  1.0000
  H   H35       1.0  0.72796  0.23714  0.17247  1.0000
  H   H36       1.0  0.03540  0.23289  0.18933  1.0000
  C   C32       1.0  0.96138  0.22406  0.47358  1.0000
  H   H37       1.0  0.12408  0.23546  0.24786  1.0000
  H   H38       1.0  0.55834  0.21891  0.06196  1.0000
  C   C33       1.0  0.32854  0.23877  0.18113  1.0000
  H   H39       1.0  0.11596  0.20332  0.45764  1.0000
  C   C34       1.0  0.13055  0.06762  0.21349  1.0000
  H   H40       1.0  0.93777  0.21064  0.47310  1.0000
  H   H41       1.0  0.29069  0.23877  0.17306  1.0000
  S   S12       1.0  0.98182  0.21140  0.23542  1.0000
  H   H42       1.0  0.43930  0.14016  0.18037  1.0000
  H   H43       1.0  0.06881  0.12246  0.00693  1.0000
  C   C35       1.0  0.97140  0.22995  0.44343  1.0000
  C   C36       1.0  0.60377  0.23936  0.02098  1.0000
  C   C37       1.0  0.07911  0.03989  0.18119  1.0000
  Fe  Fe6       1.0  0.97447  0.23481  0.27749  1.0000
  S   S13       1.0  0.93272  0.22970  0.31398  1.0000
  H   H44       1.0  0.09202  0.23398  0.18712  1.0000
  H   H45       1.0  0.61204  0.20460  0.06716  1.0000
  H   H46       1.0  0.15188  0.03584  0.19921  1.0000
  H   H47       1.0  0.06932  0.23417  0.25433  1.0000
  C   C38       1.0  0.00055  0.11648  0.00860  1.0000
  C   C39       1.0  0.12012  0.20642  0.48430  1.0000
  C   C40       1.0  0.58072  0.22132  0.00066  1.0000
  H   H48       1.0  0.95605  0.22087  0.42021  1.0000
  H   H49       1.0  0.99218  0.18994  0.17625  1.0000
  C   C41       1.0  0.59608  0.22031  0.07241  1.0000
  H   H50       1.0  0.16500  0.07292  0.22656  1.0000
  C   C42       1.0  0.08309  0.20409  0.49688  1.0000
  C   C43       1.0  0.12323  0.04672  0.19817  1.0000
  H   H51       1.0  0.07952  0.99628  0.10799  1.0000
  H   H52       1.0  0.05016  0.19929  0.47993  1.0000
  H   H53       1.0  0.92930  0.11038  0.00161  1.0000
  H   H54       1.0  0.33884  0.23280  0.15886  1.0000
  H   H55       1.0  0.60365  0.22145  0.10053  1.0000
  H   H56       1.0  0.56794  0.20722  0.01120  1.0000
  H   H57       1.0  0.34162  0.22605  0.20132  1.0000
  H   H58       1.0  0.68102  0.22680  0.06730  1.0000
  H   H59       1.0  0.88129  0.23765  0.39031  1.0000
  H   H60       1.0  0.67162  0.24101  0.10318  1.0000
  N   N3        1.0  0.61343  0.24002  0.05838  1.0000
  C   C44       1.0  0.66329  0.24118  0.07490  1.0000
  H   H61       1.0  0.29428  0.24181  0.23008  1.0000
  H   H62       1.0  0.19101  0.21454  0.49605  1.0000
  Fe  Fe7       1.0  0.50536  0.22160  0.80248  1.0000
  S   S14       1.0  0.54230  0.18846  0.80194  1.0000
  H   H63       1.0  0.91178  0.21268  0.80298  1.0000
  H   H64       1.0  0.79437  0.18827  0.79583  1.0000
  C   C45       1.0  0.71094  0.19576  0.75260  1.0000
  S   S15       1.0  0.45011  0.22663  0.82779  1.0000
  S   S16       1.0  0.03507  0.22741  0.64335  1.0000
  H   H65       1.0  0.85989  0.18683  0.95902  1.0000
  S   S17       1.0  0.96628  0.21917  0.71174  1.0000
  Fe  Fe8       1.0  0.81145  0.08618  0.82071  1.0000
  S   S18       1.0  0.82655  0.10775  0.86787  1.0000
  S   S19       1.0  0.78915  0.05106  0.83088  1.0000
  Fe  Fe9       1.0  0.84076  0.12339  0.78021  1.0000
  S   S20       1.0  0.85956  0.14607  0.82502  1.0000
  S   S21       1.0  0.84366  0.13673  0.72909  1.0000
  Fe  Fe10      1.0  0.89075  0.11620  0.85564  1.0000
  S   S22       1.0  0.96241  0.11730  0.89215  1.0000
  Fe  Fe11      1.0  0.79308  0.13587  0.83297  1.0000
  S   S23       1.0  0.75583  0.16640  0.84545  1.0000
  S   S24       1.0  0.87747  0.09382  0.80995  1.0000
  S   S25       1.0  0.77267  0.11389  0.78675  1.0000
  C   C46       1.0  0.97601  0.11682  0.93691  1.0000
  C   C47       1.0  0.94288  0.11316  0.95332  1.0000
  C   C48       1.0  0.98226  0.23505  0.50445  1.0000
  C   C49       1.0  0.02143  0.12007  0.95644  1.0000
  H   H66       1.0  0.90794  0.11017  0.93860  1.0000
  H   H67       1.0  0.04733  0.12281  0.94394  1.0000
  C   C50       1.0  0.79747  0.00535  0.83555  1.0000
  C   C51       1.0  0.80138  0.02435  0.81663  1.0000
  C   C52       1.0  0.81264  0.02144  0.78641  1.0000
  H   H68       1.0  0.78889  0.00739  0.85899  1.0000
  H   H69       1.0  0.81539  0.03582  0.77139  1.0000
  C   C53       1.0  0.93316  0.19554  0.71528  1.0000
  C   C54       1.0  0.90268  0.18529  0.68714  1.0000
  C   C55       1.0  0.87605  0.16709  0.69172  1.0000
  C   C56       1.0  0.87954  0.15894  0.72438  1.0000
  C   C57       1.0  0.91012  0.16916  0.75246  1.0000
  C   C58       1.0  0.93668  0.18732  0.74787  1.0000
  H   H70       1.0  0.89949  0.19144  0.66192  1.0000
  H   H71       1.0  0.85252  0.15932  0.66981  1.0000
  H   H72       1.0  0.91348  0.16301  0.77769  1.0000
  H   H73       1.0  0.96046  0.19500  0.76973  1.0000
  H   H74       1.0  0.72810  0.23723  0.75370  1.0000
  H   H75       1.0  0.08147  0.19852  0.59487  1.0000
  H   H76       1.0  0.16653  0.22813  0.70108  1.0000
  H   H77       1.0  0.83962  0.15733  0.89386  1.0000
  H   H78       1.0  0.24242  0.21297  0.73326  1.0000
  C   C59       1.0  0.60199  0.18315  0.81267  1.0000
  C   C60       1.0  0.63448  0.19905  0.82881  1.0000
  C   C61       1.0  0.68132  0.19366  0.83843  1.0000
  C   C62       1.0  0.69639  0.17245  0.83172  1.0000
  C   C63       1.0  0.66405  0.15675  0.81480  1.0000
  C   C64       1.0  0.61718  0.16203  0.80558  1.0000
  H   H79       1.0  0.62341  0.21533  0.83449  1.0000
  H   H80       1.0  0.70595  0.20597  0.85149  1.0000
  H   H81       1.0  0.67496  0.14035  0.80947  1.0000
  H   H82       1.0  0.59241  0.14959  0.79317  1.0000
  H   H83       1.0  0.12241  0.20618  0.63354  1.0000
  C   C65       1.0  0.16733  0.21743  0.54022  1.0000
  N   N4        1.0  0.94827  0.04332  0.89173  1.0000
  C   C66       1.0  0.97633  0.05249  0.87118  1.0000
  C   C67       1.0  0.90217  0.05333  0.87973  1.0000
  C   C68       1.0  0.96914  0.05071  0.92737  1.0000
  C   C69       1.0  0.94484  0.01878  0.88764  1.0000
  H   H84       1.0  0.29944  0.22325  0.90351  1.0000
  C   C70       1.0  0.87146  0.21325  0.83763  1.0000
  H   H85       1.0  0.55372  0.20766  0.95025  1.0000
  C   C71       1.0  0.95927  0.00375  0.91546  1.0000
  C   C72       1.0  0.16224  0.21287  0.50598  1.0000
  H   H86       1.0  0.93307  0.17366  0.97189  1.0000
  H   H87       1.0  0.98085  0.07087  0.87459  1.0000
  H   H88       1.0  0.01077  0.04472  0.87838  1.0000
  H   H89       1.0  0.87874  0.04590  0.89279  1.0000
  H   H90       1.0  0.88618  0.05078  0.85207  1.0000
  H   H91       1.0  0.90294  0.07167  0.88404  1.0000
  H   H92       1.0  0.00447  0.04422  0.93787  1.0000
  H   H93       1.0  0.97169  0.06922  0.92934  1.0000
  H   H94       1.0  0.94839  0.04549  0.94403  1.0000
  C   C73       1.0  0.92622  0.00920  0.85494  1.0000
  H   H95       1.0  0.13814  0.18726  0.60495  1.0000
  C   C74       1.0  0.78523  0.17946  0.77099  1.0000
  H   H96       1.0  0.45111  0.21863  0.96352  1.0000
  H   H97       1.0  0.83602  0.21033  0.87420  1.0000
  N   N5        1.0  0.89225  0.18001  0.92004  1.0000
  C   C75       1.0  0.93685  0.17878  0.94692  1.0000
  C   C76       1.0  0.17946  0.22798  0.61009  1.0000
  C   C77       1.0  0.87367  0.15723  0.91314  1.0000
  C   C78       1.0  0.89759  0.18943  0.88821  1.0000
  C   C79       1.0  0.74421  0.18059  0.71150  1.0000
  C   C80       1.0  0.93359  0.18222  0.87558  1.0000
  C   C81       1.0  0.81829  0.21457  0.73234  1.0000
  H   H98       1.0  0.69507  0.17935  0.75475  1.0000
  H   H99       1.0  0.82483  0.19211  0.91728  1.0000
  C   C82       1.0  0.90787  0.20628  0.82653  1.0000
  H   H100      1.0  0.38669  0.22202  0.87245  1.0000
  H   H101      1.0  0.96004  0.16603  0.94140  1.0000
  C   C83       1.0  0.93871  0.19070  0.84535  1.0000
  S   S26       1.0  0.97105  0.22567  0.54218  1.0000
  C   C84       1.0  0.86074  0.19320  0.93388  1.0000
  H   H102      1.0  0.89601  0.14641  0.90308  1.0000
  H   H103      1.0  0.86990  0.14914  0.93641  1.0000
  C   C85       1.0  0.84065  0.23441  0.72966  1.0000
  H   H104      1.0  0.91359  0.01950  0.83263  1.0000
  H   H105      1.0  0.95727  0.16939  0.88825  1.0000
  H   H106      1.0  0.71646  0.20397  0.77775  1.0000
  H   H107      1.0  0.68533  0.20543  0.73291  1.0000
  H   H108      1.0  0.84703  0.22505  0.82250  1.0000
  H   H109      1.0  0.97358  0.00936  0.94130  1.0000
  H   H110      1.0  0.34995  0.22127  0.82950  1.0000
  H   H111      1.0  0.20417  0.21410  0.61194  1.0000
  C   C86       1.0  0.10247  0.24079  0.58880  1.0000
  C   C87       1.0  0.08785  0.20844  0.53103  1.0000
  H   H112      1.0  0.20073  0.22255  0.55548  1.0000
  C   C88       1.0  0.35097  0.22457  0.85632  1.0000
  C   C89       1.0  0.77689  0.21447  0.74101  1.0000
  H   H113      1.0  0.32980  0.21141  0.86292  1.0000
  H   H114      1.0  0.18021  0.23229  0.63658  1.0000
  C   C90       1.0  0.95509  0.11315  0.98903  1.0000
  H   H115      1.0  0.81736  0.17512  0.76529  1.0000
  H   H116      1.0  0.87107  0.21101  0.93717  1.0000
  N   N6        1.0  0.13294  0.22157  0.58914  1.0000
  H   H117      1.0  0.95461  0.19514  0.95035  1.0000
  H   H118      1.0  0.82579  0.99774  0.75089  1.0000
  H   H119      1.0  0.96624  0.18476  0.83610  1.0000
  N   N7        1.0  0.75434  0.19311  0.74396  1.0000
  H   H120      1.0  0.72301  0.19070  0.69000  1.0000
  H   H121      1.0  0.77564  0.17551  0.70520  1.0000
  C   C91       1.0  0.86588  0.20482  0.86776  1.0000
  C   C92       1.0  0.46332  0.23545  0.96288  1.0000
  H   H122      1.0  0.76918  0.16338  0.77441  1.0000
  H   H123      1.0  0.72581  0.16476  0.71254  1.0000
  H   H124      1.0  0.83375  0.19925  0.72752  1.0000
  H   H125      1.0  0.96055  0.04979  0.84351  1.0000
  C   C93       1.0  0.12991  0.21555  0.55370  1.0000
  C   C94       1.0  0.81833  0.99978  0.77477  1.0000
  C   C95       1.0  0.11816  0.20255  0.60625  1.0000
  S   S27       1.0  0.33182  0.23209  0.75841  1.0000
  S   S28       1.0  0.46001  0.23455  0.75282  1.0000
  H   H126      1.0  0.46147  0.23342  0.91005  1.0000
  C   C96       1.0  0.23900  0.23048  0.72678  1.0000
  H   H127      1.0  0.05781  0.20675  0.53935  1.0000
  C   C97       1.0  0.03372  0.11988  0.99214  1.0000
  H   H128      1.0  0.26467  0.23680  0.84888  1.0000
  C   C98       1.0  0.32010  0.23717  0.91570  1.0000
  Fe  Fe12      1.0  0.98069  0.23758  0.66732  1.0000
  H   H129      1.0  0.87228  0.23395  0.72291  1.0000
  H   H130      1.0  0.37287  0.24075  0.69025  1.0000
  C   C99       1.0  0.57219  0.22133  0.96539  1.0000
  C   C100      1.0  0.32683  0.24009  0.95050  1.0000
  H   H131      1.0  0.57728  0.23960  0.92183  1.0000
  C   C101      1.0  0.75929  0.23555  0.74691  1.0000
  C   C102      1.0  0.58554  0.23929  0.94930  1.0000
  C   C103      1.0  0.19578  0.23903  0.70846  1.0000
  H   H132      1.0  0.31213  0.22847  0.96439  1.0000
  H   H133      1.0  0.06604  0.23658  0.57687  1.0000
  H   H134      1.0  0.29029  0.24196  0.66130  1.0000
  Fe  Fe13      1.0  0.98831  0.24200  0.59478  1.0000
  Fe  Fe14      1.0  0.46808  0.27848  0.14346  1.0000
  S   S29       1.0  0.42687  0.30887  0.15062  1.0000
  N   N8        1.0  0.37222  0.47149  0.40586  1.0000
  S   S30       1.0  0.52041  0.27679  0.11472  1.0000
  Fe  Fe15      1.0  0.36848  0.37647  0.30298  1.0000
  S   S31       1.0  0.34993  0.35772  0.34409  1.0000
  S   S32       1.0  0.42511  0.35905  0.28714  1.0000
  Fe  Fe16      1.0  0.30576  0.41568  0.30730  1.0000
  S   S33       1.0  0.28143  0.39794  0.34688  1.0000
  S   S34       1.0  0.27579  0.45110  0.29995  1.0000
  Fe  Fe17      1.0  0.35533  0.39038  0.37125  1.0000
  S   S35       1.0  0.37949  0.39915  0.42734  1.0000
  Fe  Fe18      1.0  0.27752  0.36677  0.31588  1.0000
  S   S36       1.0  0.23281  0.33564  0.31099  1.0000
  S   S37       1.0  0.37983  0.40878  0.33283  1.0000
  S   S38       1.0  0.29578  0.38470  0.27362  1.0000
  S   S39       1.0  0.02027  0.31692  0.28310  1.0000
  C   C104      1.0  0.17348  0.33113  0.30336  1.0000
  C   C105      1.0  0.15852  0.30966  0.30857  1.0000
  C   C106      1.0  0.11196  0.30519  0.30324  1.0000
  C   C107      1.0  0.07956  0.32203  0.29176  1.0000
  C   C108      1.0  0.09447  0.34350  0.28653  1.0000
  C   C109      1.0  0.14120  0.34812  0.29260  1.0000
  H   H135      1.0  0.18314  0.29639  0.31688  1.0000
  H   H136      1.0  0.10111  0.28873  0.30790  1.0000
  H   H137      1.0  0.06966  0.35665  0.27766  1.0000
  H   H138      1.0  0.15213  0.36470  0.28840  1.0000
  C   C110      1.0  0.30120  0.47775  0.29958  1.0000
  C   C111      1.0  0.33882  0.48083  0.28758  1.0000
  H   H139      1.0  0.35464  0.46656  0.27957  1.0000
  C   C112      1.0  0.43457  0.39170  0.45291  1.0000
  C   C113      1.0  0.46498  0.38020  0.43957  1.0000
  H   H140      1.0  0.45493  0.37565  0.41296  1.0000
  C   C114      1.0  0.42701  0.32259  0.18891  1.0000
  C   C115      1.0  0.46021  0.31830  0.21971  1.0000
  C   C116      1.0  0.45883  0.32952  0.24948  1.0000
  C   C117      1.0  0.42383  0.34480  0.24903  1.0000
  C   C118      1.0  0.39013  0.34879  0.21833  1.0000
  C   C119      1.0  0.39207  0.33793  0.18838  1.0000
  H   H141      1.0  0.48742  0.30664  0.22052  1.0000
  H   H142      1.0  0.48523  0.32642  0.27304  1.0000
  H   H143      1.0  0.36327  0.36065  0.21750  1.0000
  H   H144      1.0  0.36631  0.34144  0.16466  1.0000
  C   C120      1.0  0.29216  0.26828  0.26371  1.0000
  C   C121      1.0  0.30569  0.28986  0.27471  1.0000
  C   C122      1.0  0.50839  0.37428  0.46080  1.0000
  H   H145      1.0  0.29478  0.29745  0.29494  1.0000
  H   H146      1.0  0.53161  0.36523  0.45031  1.0000
  C   C123      1.0  0.39199  0.45773  0.38373  1.0000
  H   H147      1.0  0.19908  0.35698  0.36202  1.0000
  H   H148      1.0  0.22903  0.31682  0.37262  1.0000
  H   H149      1.0  0.27636  0.33097  0.40094  1.0000
  C   C124      1.0  0.12527  0.33755  0.37881  1.0000
  C   C125      1.0  0.08294  0.32705  0.37217  1.0000
  C   C126      1.0  0.21084  0.35951  0.38997  1.0000
  C   C127      1.0  0.24320  0.32282  0.39919  1.0000
  H   H150      1.0  0.24561  0.36682  0.39582  1.0000
  C   C128      1.0  0.39773  0.25940  0.20217  1.0000
  C   C129      1.0  0.07922  0.30650  0.38665  1.0000
  N   N9        1.0  0.21088  0.33825  0.40840  1.0000
  C   C130      1.0  0.22814  0.34321  0.44523  1.0000
  C   C131      1.0  0.16539  0.32769  0.40066  1.0000
  C   C132      1.0  0.16022  0.30682  0.41533  1.0000
  H   H151      1.0  0.18886  0.37234  0.39679  1.0000
  H   H152      1.0  0.41102  0.24897  0.22528  1.0000
  C   C133      1.0  0.39518  0.46479  0.44149  1.0000
  C   C134      1.0  0.00285  0.24682  0.44384  1.0000
  C   C135      1.0  0.34756  0.29212  0.23362  1.0000
  C   C136      1.0  0.33333  0.27049  0.22097  1.0000
  H   H153      1.0  0.21628  0.27903  0.20597  1.0000
  H   H154      1.0  0.65246  0.26814  0.23278  1.0000
  C   C137      1.0  0.30571  0.25860  0.23725  1.0000
  H   H155      1.0  0.57612  0.43565  0.44875  1.0000
  C   C138      1.0  0.61746  0.25724  0.00374  1.0000
  H   H156      1.0  0.72508  0.27599  0.27768  1.0000
  H   H157      1.0  0.20454  0.31917  0.21393  1.0000
  C   C139      1.0  0.18473  0.28464  0.20989  1.0000
  H   H158      1.0  0.42875  0.46129  0.38820  1.0000
  H   H159      1.0  0.38921  0.43960  0.38849  1.0000
  H   H160      1.0  0.13241  0.33235  0.22220  1.0000
  S   S40       1.0  0.42359  0.25243  0.11027  1.0000
  H   H161      1.0  0.22742  0.46955  0.22646  1.0000
  H   H162      1.0  0.28381  0.49166  0.20853  1.0000
  H   H163      1.0  0.12560  0.35311  0.36584  1.0000
  H   H164      1.0  0.05288  0.33460  0.35481  1.0000
  H   H165      1.0  0.25111  0.30787  0.41571  1.0000
  H   H166      1.0  0.26197  0.35160  0.45186  1.0000
  C   C140      1.0  0.10333  0.29952  0.21959  1.0000
  H   H167      1.0  0.18908  0.29831  0.43218  1.0000
  Fe  Fe19      1.0  0.55560  0.25082  0.15354  1.0000
  H   H168      1.0  0.87208  0.25253  0.35115  1.0000
  H   H169      1.0  0.20418  0.35436  0.45326  1.0000
  C   C141      1.0  0.90631  0.28188  0.44471  1.0000
  H   H170      1.0  0.88811  0.29836  0.37965  1.0000
  C   C142      1.0  0.68452  0.26304  0.22924  1.0000
  Fe  Fe20      1.0  0.47912  0.24844  0.08526  1.0000
  H   H171      1.0  0.63486  0.27158  0.01739  1.0000
  S   S41       1.0  0.50555  0.25446  0.18410  1.0000
  S   S42       1.0  0.94567  0.28335  0.32945  1.0000
  C   C143      1.0  0.44811  0.39752  0.48747  1.0000
  H   H172      1.0  0.64455  0.45339  0.48961  1.0000
  C   C144      1.0  0.52174  0.37985  0.49544  1.0000
  H   H173      1.0  0.34726  0.29314  0.16768  1.0000
  C   C145      1.0  0.17802  0.30730  0.21401  1.0000
  C   C146      1.0  0.15122  0.26925  0.21124  1.0000
  C   C147      1.0  0.76832  0.26108  0.25085  1.0000
  C   C148      1.0  0.53457  0.47569  0.45988  1.0000
  C   C149      1.0  0.10942  0.27621  0.21614  1.0000
  H   H174      1.0  0.37880  0.47211  0.45970  1.0000
  H   H175      1.0  0.67838  0.25671  0.06840  1.0000
  H   H176      1.0  0.36979  0.30182  0.22333  1.0000
  H   H177      1.0  0.77806  0.27200  0.38202  1.0000
  C   C150      1.0  0.85271  0.29212  0.37428  1.0000
  C   C151      1.0  0.06319  0.24466  0.18877  1.0000
  H   H178      1.0  0.43156  0.46990  0.44948  1.0000
  H   H179      1.0  0.04834  0.27080  0.47541  1.0000
  C   C152      1.0  0.92057  0.28345  0.48012  1.0000
  H   H180      1.0  0.49622  0.28087  0.01348  1.0000
  H   H181      1.0  0.04645  0.29823  0.38084  1.0000
  H   H182      1.0  0.30629  0.47418  0.41451  1.0000
  C   C153      1.0  0.33215  0.27625  0.16247  1.0000
  H   H183      1.0  0.34266  0.26989  0.14048  1.0000
  N   N10       1.0  0.34741  0.26123  0.19227  1.0000
  H   H184      1.0  0.40933  0.25158  0.18168  1.0000
  S   S43       1.0  0.01993  0.25371  0.40739  1.0000
  C   C154      1.0  0.68471  0.25207  0.19927  1.0000
  H   H185      1.0  0.15847  0.25180  0.20887  1.0000
  H   H186      1.0  0.27094  0.25904  0.27575  1.0000
  H   H187      1.0  0.34515  0.31832  0.26892  1.0000
  N   N11       1.0  0.07535  0.25952  0.21897  1.0000
  C   C155      1.0  0.02372  0.25783  0.47469  1.0000
  H   H188      1.0  0.52742  0.42860  0.46319  1.0000
  H   H189      1.0  0.23260  0.32791  0.46099  1.0000
  Fe  Fe21      1.0  0.98437  0.25213  0.34993  1.0000
  S   S44       1.0  0.02936  0.25424  0.31526  1.0000
  C   C156      1.0  0.88172  0.25449  0.37923  1.0000
  H   H190      1.0  0.59897  0.26102  0.09631  1.0000
  H   H191      1.0  0.29451  0.27826  0.15420  1.0000
  H   H192      1.0  0.95282  0.29125  0.49309  1.0000
  H   H193      1.0  0.83908  0.29171  0.34605  1.0000
  H   H194      1.0  0.37357  0.46027  0.35633  1.0000
  H   H195      1.0  0.60452  0.27582  0.06054  1.0000
  S   S45       1.0  0.81953  0.26710  0.28429  1.0000
  C   C157      1.0  0.13733  0.31471  0.21862  1.0000
  Fe  Fe22      1.0  0.89611  0.26131  0.29136  1.0000
  S   S46       1.0  0.93527  0.26552  0.25369  1.0000
  C   C158      1.0  0.86452  0.27152  0.42703  1.0000
  C   C159      1.0  0.72595  0.26747  0.25476  1.0000
  H   H196      1.0  0.11434  0.28035  0.41932  1.0000
  H   H197      1.0  0.00683  0.25660  0.22235  1.0000
  C   C160      1.0  0.22430  0.48756  0.22490  1.0000
  H   H198      1.0  0.39410  0.44637  0.44486  1.0000
  H   H199      1.0  0.31801  0.44752  0.39923  1.0000
  H   H200      1.0  0.07304  0.30649  0.22385  1.0000
  H   H201      1.0  0.03800  0.27941  0.24545  1.0000
  Fe  Fe23      1.0  0.98826  0.28443  0.29365  1.0000
  C   C161      1.0  0.11773  0.29642  0.40826  1.0000
  C   C162      1.0  0.59193  0.26001  0.06827  1.0000
  C   C163      1.0  0.56516  0.43046  0.47099  1.0000
  N   N12       1.0  0.85044  0.26989  0.38949  1.0000
  H   H202      1.0  0.41476  0.27589  0.20725  1.0000
  C   C164      1.0  0.32321  0.46582  0.39743  1.0000
  C   C165      1.0  0.03236  0.26957  0.22168  1.0000
  H   H203      1.0  0.01611  0.28049  0.19963  1.0000
  H   H204      1.0  0.57925  0.41338  0.47783  1.0000
  C   C166      1.0  0.33373  0.30167  0.25990  1.0000
  H   H205      1.0  0.92901  0.28831  0.43138  1.0000
  C   C167      1.0  0.83873  0.26216  0.44713  1.0000
  H   H206      1.0  0.83261  0.30469  0.38364  1.0000
  C   C168      1.0  0.09493  0.24584  0.24975  1.0000
  H   H207      1.0  0.79319  0.26130  0.34627  1.0000
  C   C169      1.0  0.56393  0.46924  0.49217  1.0000
  H   H208      1.0  0.10706  0.25653  0.27273  1.0000
  H   H209      1.0  0.30460  0.47084  0.37097  1.0000
  H   H210      1.0  0.52350  0.46411  0.43900  1.0000
  C   C170      1.0  0.80331  0.26141  0.37460  1.0000
  H   H211      1.0  0.91755  0.26045  0.38765  1.0000
  C   C171      1.0  0.85386  0.26343  0.48262  1.0000
  C   C172      1.0  0.76852  0.25013  0.22087  1.0000
  H   H212      1.0  0.80057  0.24504  0.21731  1.0000
  S   S47       1.0  0.63360  0.24588  0.16583  1.0000
  C   C173      1.0  0.72709  0.24567  0.19538  1.0000
  H   H213      1.0  0.55435  0.25963  0.05669  1.0000
  H   H214      1.0  0.16605  0.48840  0.24331  1.0000
  H   H215      1.0  0.05122  0.25449  0.16492  1.0000
  H   H216      1.0  0.80719  0.25340  0.43612  1.0000
  H   H217      1.0  0.83440  0.25571  0.49760  1.0000
  H   H218      1.0  0.79993  0.24384  0.38202  1.0000
  H   H219      1.0  0.42468  0.40635  0.49801  1.0000
  C   C174      1.0  0.75524  0.31193  0.53580  1.0000
  S   S48       1.0  0.43522  0.27715  0.79366  1.0000
  Fe  Fe24      1.0  0.49114  0.26803  0.77059  1.0000
  S   S49       1.0  0.51650  0.28372  0.72911  1.0000
  Fe  Fe25      1.0  0.48028  0.26062  0.84133  1.0000
  S   S50       1.0  0.49055  0.27731  0.89305  1.0000
  Fe  Fe26      1.0  0.60322  0.38719  0.64909  1.0000
  S   S51       1.0  0.62410  0.36010  0.61937  1.0000
  S   S52       1.0  0.56232  0.38085  0.68619  1.0000
  Fe  Fe27      1.0  0.64921  0.42396  0.61892  1.0000
  S   S53       1.0  0.67514  0.39862  0.58827  1.0000
  S   S54       1.0  0.66406  0.45993  0.60585  1.0000
  Fe  Fe28      1.0  0.60503  0.38399  0.57565  1.0000
  S   S55       1.0  0.57685  0.37237  0.52099  1.0000
  Fe  Fe29      1.0  0.69287  0.37655  0.63426  1.0000
  S   S56       1.0  0.75101  0.35163  0.65554  1.0000
  S   S57       1.0  0.57797  0.41005  0.60381  1.0000
  S   S58       1.0  0.67298  0.40296  0.66650  1.0000
  Fe  Fe30      1.0  0.06229  0.26229  0.65529  1.0000
  S   S59       1.0  0.13815  0.27300  0.67313  1.0000
  Fe  Fe31      1.0  0.96385  0.28261  0.63057  1.0000
  C   C175      1.0  0.31007  0.25715  0.66438  1.0000
  S   S60       1.0  0.92208  0.31438  0.61333  1.0000
  H   H220      1.0  0.29494  0.31237  0.65051  1.0000
  C   C176      1.0  0.47337  0.24862  0.99248  1.0000
  S   S61       1.0  0.01017  0.27205  0.68154  1.0000
  S   S62       1.0  0.01834  0.27608  0.60514  1.0000
  C   C177      1.0  0.82242  0.25477  0.73542  1.0000
  C   C178      1.0  0.41135  0.31983  0.72020  1.0000
  H   H221      1.0  0.38462  0.35355  0.67770  1.0000
  H   H222      1.0  0.52896  0.43766  0.52259  1.0000
  C   C179      1.0  0.01316  0.25219  0.50471  1.0000
  H   H223      1.0  0.50129  0.39582  0.53539  1.0000
  H   H224      1.0  0.76776  0.27128  0.74839  1.0000
  C   C180      1.0  0.79856  0.34174  0.64327  1.0000
  C   C181      1.0  0.81218  0.35150  0.61706  1.0000
  C   C182      1.0  0.85008  0.34294  0.60837  1.0000
  C   C183      1.0  0.87486  0.32457  0.62568  1.0000
  C   C184      1.0  0.86129  0.31484  0.65191  1.0000
  C   C185      1.0  0.82342  0.32341  0.66062  1.0000
  H   H225      1.0  0.79404  0.36583  0.60384  1.0000
  H   H226      1.0  0.86044  0.35066  0.58818  1.0000
  H   H227      1.0  0.88010  0.30078  0.66556  1.0000
  H   H228      1.0  0.81342  0.31582  0.68107  1.0000
  H   H229      1.0  0.66644  0.29304  0.58843  1.0000
  H   H230      1.0  0.62037  0.31804  0.52475  1.0000
  C   C186      1.0  0.67088  0.31138  0.58730  1.0000
  H   H231      1.0  0.02932  0.26094  0.52807  1.0000
  C   C187      1.0  0.22942  0.27539  0.70954  1.0000
  H   H232      1.0  0.62298  0.47572  0.65801  1.0000
  C   C188      1.0  0.36073  0.26318  0.84581  1.0000
  H   H233      1.0  0.43089  0.33564  0.72684  1.0000
  C   C189      1.0  0.19073  0.26155  0.69928  1.0000
  C   C190      1.0  0.63188  0.44626  0.50998  1.0000
  S   S63       1.0  0.53855  0.25461  0.81928  1.0000
  C   C191      1.0  0.79917  0.28381  0.58928  1.0000
  C   C192      1.0  0.55306  0.35367  0.69972  1.0000
  C   C193      1.0  0.53703  0.35103  0.72812  1.0000
  C   C194      1.0  0.52761  0.32967  0.73862  1.0000
  C   C195      1.0  0.53316  0.31078  0.72027  1.0000
  C   C196      1.0  0.54926  0.31345  0.69199  1.0000
  C   C197      1.0  0.55944  0.33471  0.68188  1.0000
  H   H234      1.0  0.53218  0.36559  0.74217  1.0000
  H   H235      1.0  0.51566  0.32786  0.76063  1.0000
  H   H236      1.0  0.55358  0.29897  0.67757  1.0000
  H   H237      1.0  0.57148  0.33644  0.65994  1.0000
  C   C198      1.0  0.49427  0.27881  0.96064  1.0000
  C   C199      1.0  0.48422  0.26563  0.93106  1.0000
  H   H238      1.0  0.50604  0.29571  0.95988  1.0000
  H   H239      1.0  0.33586  0.34073  0.68491  1.0000
  C   C200      1.0  0.60805  0.25722  0.96842  1.0000
  H   H240      1.0  0.27247  0.26610  0.84413  1.0000
  H   H241      1.0  0.90686  0.27458  0.52659  1.0000
  H   H242      1.0  0.81433  0.30682  0.51852  1.0000
  C   C201      1.0  0.46887  0.24384  0.93241  1.0000
  N   N13       1.0  0.58136  0.44622  0.49991  1.0000
  H   H243      1.0  0.38388  0.28146  0.90389  1.0000
  H   H244      1.0  0.41814  0.27470  0.69946  1.0000
  H   H245      1.0  0.81723  0.27348  0.61060  1.0000
  C   C202      1.0  0.35660  0.25651  0.68090  1.0000
  H   H246      1.0  0.64612  0.42911  0.51562  1.0000
  H   H247      1.0  0.34612  0.33854  0.64388  1.0000
  C   C203      1.0  0.65468  0.31093  0.52681  1.0000
  H   H248      1.0  0.43630  0.30627  0.73024  1.0000
  C   C204      1.0  0.42485  0.31671  0.66553  1.0000
  H   H249      1.0  0.40964  0.31559  0.63754  1.0000
  H   H250      1.0  0.73990  0.32294  0.51484  1.0000
  H   H251      1.0  0.76295  0.47117  0.66818  1.0000
  H   H252      1.0  0.59834  0.48240  0.54270  1.0000
  H   H253      1.0  0.30180  0.27777  0.73555  1.0000
  C   C205      1.0  0.79767  0.30267  0.53747  1.0000
  C   C206      1.0  0.76849  0.48893  0.66644  1.0000
  H   H254      1.0  0.65148  0.29247  0.52506  1.0000
  H   H255      1.0  0.35970  0.25951  0.99492  1.0000
  H   H256      1.0  0.83975  0.27015  0.73309  1.0000
  H   H257      1.0  0.25222  0.27793  0.64150  1.0000
  N   N14       1.0  0.38918  0.31777  0.68310  1.0000
  C   C207      1.0  0.65050  0.48687  0.61862  1.0000
  C   C208      1.0  0.36248  0.33848  0.67182  1.0000
  C   C209      1.0  0.69276  0.34237  0.55928  1.0000
  C   C210      1.0  0.36148  0.29717  0.67596  1.0000
  C   C211      1.0  0.38209  0.27614  0.68643  1.0000
  C   C212      1.0  0.31385  0.29724  0.65904  1.0000
  C   C213      1.0  0.48899  0.27038  0.99119  1.0000
  N   N15       1.0  0.33488  0.24740  0.86077  1.0000
  C   C214      1.0  0.75708  0.29322  0.58816  1.0000
  C   C215      1.0  0.37241  0.27261  0.95013  1.0000
  H   H258      1.0  0.63690  0.31898  0.58456  1.0000
  H   H259      1.0  0.39796  0.26223  0.85905  1.0000
  H   H260      1.0  0.44746  0.30198  0.67332  1.0000
  H   H261      1.0  0.65989  0.35055  0.55825  1.0000
  C   C216      1.0  0.81952  0.28862  0.56415  1.0000
  H   H262      1.0  0.34915  0.28067  0.84682  1.0000
  H   H263      1.0  0.71835  0.34820  0.58285  1.0000
  H   H264      1.0  0.58120  0.44683  0.55241  1.0000
  C   C217      1.0  0.49151  0.39159  0.50870  1.0000
  H   H265      1.0  0.61734  0.27138  0.95561  1.0000
  H   H266      1.0  0.70288  0.34891  0.53744  1.0000
  S   S64       1.0  0.93149  0.24894  0.61785  1.0000
  C   C218      1.0  0.78187  0.25534  0.74403  1.0000
  C   C219      1.0  0.27252  0.26689  0.72826  1.0000
  H   H267      1.0  0.44759  0.33157  0.67124  1.0000
  H   H268      1.0  0.81568  0.48479  0.63763  1.0000
  H   H269      1.0  0.64710  0.45611  0.53346  1.0000
  C   C220      1.0  0.28613  0.24929  0.84102  1.0000
  H   H270      1.0  0.69366  0.31726  0.61223  1.0000
  H   H271      1.0  0.22608  0.29284  0.70273  1.0000
  C   C221      1.0  0.73361  0.30754  0.56115  1.0000
  H   H272      1.0  0.85314  0.28208  0.56614  1.0000
  N   N16       1.0  0.68887  0.31775  0.55893  1.0000
  H   H273      1.0  0.38584  0.31927  0.73451  1.0000
  C   C222      1.0  0.34050  0.25162  0.89720  1.0000
  C   C223      1.0  0.89462  0.27409  0.49906  1.0000
  C   C224      1.0  0.36646  0.26970  0.91544  1.0000
  H   H274      1.0  0.57809  0.41981  0.53427  1.0000
  C   C225      1.0  0.28876  0.27745  0.65333  1.0000
  H   H275      1.0  0.11067  0.25514  0.57463  1.0000
  C   C226      1.0  0.56668  0.43734  0.52847  1.0000
  H   H276      1.0  0.39353  0.28608  0.96378  1.0000
  C   C227      1.0  0.35327  0.25767  0.96773  1.0000
  H   H277      1.0  0.74443  0.28950  0.60931  1.0000
  C   C228      1.0  0.63108  0.49004  0.64500  1.0000
  H   H278      1.0  0.10530  0.24669  0.61490  1.0000
  H   H279      1.0  0.35622  0.25944  0.81857  1.0000
  C   C229      1.0  0.57622  0.48606  0.51752  1.0000
  C   C230      1.0  0.27783  0.24424  0.73653  1.0000
  H   H280      1.0  0.66345  0.31687  0.50405  1.0000
  H   H281      1.0  0.28094  0.24657  0.81333  1.0000
  Fe  Fe32      1.0  0.40736  0.24267  0.77908  1.0000
  H   H282      1.0  0.19164  0.24311  0.59993  1.0000
  Fe  Fe33      1.0  0.50507  0.71801  0.15712  1.0000
  S   S65       1.0  0.49124  0.68357  0.17530  1.0000
  S   S66       1.0  0.56372  0.72291  0.13552  1.0000
  Fe  Fe34      1.0  0.35161  0.61075  0.36801  1.0000
  S   S67       1.0  0.39766  0.60287  0.33645  1.0000
  S   S68       1.0  0.37510  0.61019  0.42554  1.0000
  Fe  Fe35      1.0  0.26906  0.61991  0.30601  1.0000
  S   S69       1.0  0.30992  0.61211  0.27000  1.0000
  S   S70       1.0  0.19452  0.62958  0.28107  1.0000
  Fe  Fe36      1.0  0.33803  0.58288  0.30459  1.0000
  S   S71       1.0  0.35207  0.54850  0.28539  1.0000
  Fe  Fe37      1.0  0.36556  0.63253  0.30495  1.0000
  S   S72       1.0  0.40352  0.66299  0.29431  1.0000
  S   S73       1.0  0.29351  0.58924  0.33807  1.0000
  S   S74       1.0  0.32302  0.64180  0.33908  1.0000
  S   S75       1.0  0.08689  0.70922  0.32759  1.0000
  C   C231      1.0  0.11548  0.68691  0.31374  1.0000
  C   C232      1.0  0.09683  0.67560  0.28307  1.0000
  C   C233      1.0  0.12134  0.65809  0.27348  1.0000
  C   C234      1.0  0.16485  0.65176  0.29424  1.0000
  C   C235      1.0  0.18348  0.66314  0.32483  1.0000
  C   C236      1.0  0.15893  0.68056  0.33448  1.0000
  H   H283      1.0  0.06350  0.68024  0.26683  1.0000
  H   H284      1.0  0.10653  0.64941  0.24978  1.0000
  H   H285      1.0  0.21675  0.65845  0.34114  1.0000
  H   H286      1.0  0.17383  0.68916  0.35822  1.0000
  C   C237      1.0  0.29714  0.51829  0.30675  1.0000
  C   C238      1.0  0.33332  0.52146  0.29315  1.0000
  C   C239      1.0  0.35434  0.50256  0.28399  1.0000
  H   H287      1.0  0.28091  0.53251  0.31441  1.0000
  H   H288      1.0  0.38232  0.50476  0.27343  1.0000
  C   C240      1.0  0.46479  0.67838  0.20742  1.0000
  C   C241      1.0  0.45096  0.65658  0.21195  1.0000
  C   C242      1.0  0.43116  0.65161  0.23788  1.0000
  C   C243      1.0  0.42572  0.66839  0.25994  1.0000
  C   C244      1.0  0.43988  0.69017  0.25557  1.0000
  C   C245      1.0  0.45900  0.69520  0.22932  1.0000
  H   H289      1.0  0.45545  0.64344  0.19520  1.0000
  H   H290      1.0  0.42070  0.63477  0.24103  1.0000
  H   H291      1.0  0.43582  0.70328  0.27248  1.0000
  H   H292      1.0  0.46953  0.71203  0.22619  1.0000
  C   C246      1.0  0.43360  0.60931  0.44846  1.0000
  C   C247      1.0  0.46693  0.60582  0.43213  1.0000
  H   H293      1.0  0.45710  0.60281  0.40514  1.0000
  N   N17       1.0  0.47252  0.67727  0.39664  1.0000
  C   C248      1.0  0.49317  0.65787  0.38437  1.0000
  C   C249      1.0  0.42503  0.67154  0.39525  1.0000
  C   C250      1.0  0.47026  0.69595  0.37259  1.0000
  C   C251      1.0  0.49954  0.68255  0.43197  1.0000
  H   H294      1.0  0.52910  0.66125  0.38539  1.0000
  H   H295      1.0  0.49328  0.64272  0.39981  1.0000
  H   H296      1.0  0.47408  0.65345  0.35767  1.0000
  H   H297      1.0  0.42261  0.65557  0.40828  1.0000
  H   H298      1.0  0.40314  0.66930  0.36859  1.0000
  H   H299      1.0  0.40939  0.68481  0.40705  1.0000
  H   H300      1.0  0.45498  0.71112  0.38039  1.0000
  H   H301      1.0  0.50439  0.70000  0.37007  1.0000
  H   H302      1.0  0.44870  0.69173  0.34649  1.0000
  H   H303      1.0  0.48377  0.65154  0.45338  1.0000
  H   H304      1.0  0.52572  0.71527  0.42284  1.0000
  C   C252      1.0  0.52517  0.70252  0.44110  1.0000
  C   C253      1.0  0.50199  0.66710  0.45840  1.0000
  H   H305      1.0  0.53894  0.60430  0.43779  1.0000
  N   N18       1.0  0.21467  0.55943  0.22336  1.0000
  C   C254      1.0  0.16864  0.56652  0.20244  1.0000
  C   C255      1.0  0.22203  0.56748  0.25856  1.0000
  C   C256      1.0  0.24836  0.57078  0.20964  1.0000
  C   C257      1.0  0.21837  0.53481  0.22344  1.0000
  C   C258      1.0  0.25352  0.52334  0.21418  1.0000
  C   C259      1.0  0.18680  0.52151  0.23389  1.0000
  H   H306      1.0  0.13765  0.70863  0.40301  1.0000
  C   C260      1.0  0.09518  0.72220  0.48468  1.0000
  C   C261      1.0  0.13766  0.71726  0.20034  1.0000
  H   H307      1.0  0.14140  0.56097  0.21322  1.0000
  H   H308      1.0  0.16078  0.55977  0.17617  1.0000
  H   H309      1.0  0.19670  0.56071  0.27033  1.0000
  H   H310      1.0  0.21954  0.58597  0.25969  1.0000
  H   H311      1.0  0.25637  0.56254  0.27494  1.0000
  H   H312      1.0  0.24501  0.56536  0.18320  1.0000
  H   H313      1.0  0.24398  0.58922  0.20913  1.0000
  H   H314      1.0  0.28396  0.56756  0.22569  1.0000
  H   H315      1.0  0.28036  0.53191  0.20736  1.0000
  H   H316      1.0  0.16005  0.52901  0.24231  1.0000
  C   C262      1.0  0.74247  0.71248  0.28637  1.0000
  C   C263      1.0  0.19217  0.70276  0.26355  1.0000
  C   C264      1.0  0.69607  0.71109  0.26884  1.0000
  C   C265      1.0  0.51333  0.60657  0.45072  1.0000
  H   H317      1.0  0.77519  0.65995  0.27419  1.0000
  C   C266      1.0  0.82474  0.70755  0.48184  1.0000
  S   S76       1.0  0.50467  0.73313  0.03732  1.0000
  S   S77       1.0  0.96159  0.72755  0.33149  1.0000
  H   H318      1.0  0.40543  0.49481  0.35858  1.0000
  H   H319      1.0  0.96145  0.73523  0.41689  1.0000
  C   C267      1.0  0.36811  0.53418  0.41995  1.0000
  C   C268      1.0  0.44706  0.61280  0.48372  1.0000
  C   C269      1.0  0.71189  0.73475  0.19964  1.0000
  S   S78       1.0  0.84647  0.72460  0.25200  1.0000
  H   H320      1.0  0.41343  0.53473  0.35439  1.0000
  H   H321      1.0  0.16946  0.71867  0.44442  1.0000
  C   C270      1.0  0.36324  0.51116  0.42302  1.0000
  C   C271      1.0  0.60560  0.67197  0.24876  1.0000
  C   C272      1.0  0.67658  0.69095  0.25275  1.0000
  C   C273      1.0  0.05526  0.72233  0.40788  1.0000
  C   C274      1.0  0.13511  0.71327  0.42861  1.0000
  C   C275      1.0  0.75655  0.72590  0.21159  1.0000
  H   H322      1.0  0.16561  0.58504  0.20075  1.0000
  H   H323      1.0  0.57068  0.72185  0.48114  1.0000
  C   C276      1.0  0.55137  0.70655  0.47465  1.0000
  C   C277      1.0  0.16886  0.69988  0.20258  1.0000
  N   N19       1.0  0.62791  0.68895  0.23304  1.0000
  H   H324      1.0  0.21307  0.69687  0.28805  1.0000
  S   S79       1.0  0.97370  0.73794  0.25691  1.0000
  C   C278      1.0  0.82316  0.71491  0.44931  1.0000
  C   C279      1.0  0.60208  0.71009  0.23117  1.0000
  H   H325      1.0  0.56570  0.70800  0.21640  1.0000
  H   H326      1.0  0.80524  0.70525  0.42716  1.0000
  H   H327      1.0  0.35703  0.54569  0.43628  1.0000
  C   C280      1.0  0.10104  0.73817  0.46096  1.0000
  H   H328      1.0  0.38987  0.56047  0.39300  1.0000
  H   H329      1.0  0.67679  0.72635  0.26712  1.0000
  C   C281      1.0  0.05226  0.73749  0.20815  1.0000
  H   H330      1.0  0.34786  0.50550  0.44192  1.0000
  C   C282      1.0  0.77086  0.69414  0.28812  1.0000
  H   H331      1.0  0.76385  0.70979  0.20259  1.0000
  C   C283      1.0  0.13231  0.72772  0.22986  1.0000
  H   H332      1.0  0.63822  0.66516  0.19628  1.0000
  Fe  Fe38      1.0  0.91607  0.73989  0.28059  1.0000
  H   H333      1.0  0.21952  0.67884  0.23597  1.0000
  C   C284      1.0  0.62385  0.68198  0.19771  1.0000
  H   H334      1.0  0.64170  0.69387  0.18539  1.0000
  H   H335      1.0  0.02945  0.73586  0.40246  1.0000
  C   C285      1.0  0.28076  0.49662  0.30937  1.0000
  C   C286      1.0  0.38667  0.54259  0.39556  1.0000
  C   C287      1.0  0.37730  0.49580  0.40181  1.0000
  H   H336      1.0  0.15879  0.72651  0.28563  1.0000
  H   H337      1.0  0.60226  0.71611  0.25672  1.0000
  H   H338      1.0  0.56855  0.67050  0.23493  1.0000
  C   C288      1.0  0.19589  0.69258  0.23415  1.0000
  H   H339      1.0  0.84435  0.74005  0.41997  1.0000
  H   H340      1.0  0.69394  0.65653  0.24444  1.0000
  H   H341      1.0  0.62036  0.65509  0.24846  1.0000
  Fe  Fe39      1.0  0.02004  0.72914  0.30866  1.0000
  H   H342      1.0  0.96672  0.71971  0.47364  1.0000
  H   H343      1.0  0.11740  0.72231  0.17529  1.0000
  C   C289      1.0  0.75277  0.67407  0.27315  1.0000
  C   C290      1.0  0.52684  0.61070  0.48581  1.0000
  C   C291      1.0  0.18983  0.49825  0.23453  1.0000
  H   H344      1.0  0.17191  0.69190  0.17974  1.0000
  H   H345      1.0  0.58760  0.68123  0.18176  1.0000
  N   N20       1.0  0.10081  0.73112  0.42645  1.0000
  H   H346      1.0  0.04334  0.72259  0.22094  1.0000
  C   C292      1.0  0.70628  0.67237  0.25594  1.0000
  C   C293      1.0  0.40026  0.52803  0.37405  1.0000
  C   C294      1.0  0.53173  0.51373  0.47913  1.0000
  C   C295      1.0  0.79174  0.73758  0.23528  1.0000
  C   C296      1.0  0.16074  0.71996  0.26169  1.0000
  H   H347      1.0  0.61594  0.72342  0.21828  1.0000
  H   H348      1.0  0.80721  0.69576  0.30016  1.0000
  H   H349      1.0  0.04917  0.73278  0.18153  1.0000
  H   H350      1.0  0.12639  0.69761  0.43952  1.0000
  H   H351      1.0  0.60873  0.67634  0.27558  1.0000
  S   S80       1.0  0.45570  0.73444  0.11263  1.0000
  H   H352      1.0  0.05472  0.71501  0.38301  1.0000
  H   H353      1.0  0.08951  0.70484  0.47789  1.0000
  C   C297      1.0  0.52853  0.67119  0.49174  1.0000
  C   C298      1.0  0.51884  0.49766  0.45364  1.0000
  H   H354      1.0  0.51974  0.53077  0.47415  1.0000
  C   C299      1.0  0.39553  0.50498  0.37684  1.0000
  H   H355      1.0  0.68563  0.72565  0.18123  1.0000
  H   H356      1.0  0.49681  0.50237  0.42881  1.0000
  H   H357      1.0  0.80740  0.69214  0.48321  1.0000
  H   H358      1.0  0.75707  0.72828  0.29706  1.0000
  H   H359      1.0  0.04349  0.70915  0.42213  1.0000
  C   C300      1.0  0.97424  0.73711  0.47129  1.0000
  C   C301      1.0  0.84499  0.73453  0.44514  1.0000
  H   H360      1.0  0.25146  0.49450  0.31847  1.0000
  C   C302      1.0  0.25605  0.50006  0.21479  1.0000
  H   H361      1.0  0.42146  0.61544  0.49656  1.0000
  H   H362      1.0  0.08657  0.74110  0.27528  1.0000
  Fe  Fe40      1.0  0.63594  0.59114  0.63026  1.0000
  S   S81       1.0  0.67184  0.59595  0.59092  1.0000
  S   S82       1.0  0.62630  0.55784  0.65432  1.0000
  Fe  Fe41      1.0  0.61185  0.64093  0.63033  1.0000
  S   S83       1.0  0.64588  0.64898  0.59010  1.0000
  S   S84       1.0  0.57111  0.66914  0.64509  1.0000
  Fe  Fe42      1.0  0.61251  0.61769  0.56441  1.0000
  H   H363      1.0  0.67610  0.50361  0.58183  1.0000
  Fe  Fe43      1.0  0.70268  0.62687  0.61991  1.0000
  S   S85       1.0  0.77914  0.63132  0.62775  1.0000
  S   S86       1.0  0.57436  0.61114  0.60198  1.0000
  S   S87       1.0  0.67094  0.62054  0.66190  1.0000
  C   C303      1.0  0.49332  0.73349  0.96853  1.0000
  S   S88       1.0  0.52930  0.70376  0.77959  1.0000
  S   S89       1.0  0.58541  0.61381  0.50730  1.0000
  H   H364      1.0  0.79762  0.73424  0.54967  1.0000
  S   S90       1.0  0.89501  0.72153  0.66019  1.0000
  N   N21       1.0  0.53170  0.59901  0.69150  1.0000
  H   H365      1.0  0.56076  0.56588  0.69988  1.0000
  H   H366      1.0  0.79817  0.55673  0.60548  1.0000
  S   S91       1.0  0.01757  0.72284  0.63285  1.0000
  C   C304      1.0  0.46192  0.64926  0.73264  1.0000
  C   C305      1.0  0.46686  0.65169  0.70038  1.0000
  H   H367      1.0  0.47476  0.62851  0.77672  1.0000
  H   H368      1.0  0.52293  0.57925  0.64608  1.0000
  H   H369      1.0  0.49418  0.63867  0.66270  1.0000
  H   H370      1.0  0.83429  0.72491  0.58997  1.0000
  H   H371      1.0  0.57381  0.69386  0.52581  1.0000
  H   H372      1.0  0.53048  0.65885  0.51132  1.0000
  C   C306      1.0  0.48902  0.63528  0.68704  1.0000
  C   C307      1.0  0.90018  0.70834  0.56528  1.0000
  H   H373      1.0  0.51165  0.56998  0.71424  1.0000
  H   H374      1.0  0.62264  0.71662  0.77691  1.0000
  C   C308      1.0  0.54103  0.69447  0.74205  1.0000
  C   C309      1.0  0.57156  0.67664  0.74398  1.0000
  C   C310      1.0  0.58221  0.66897  0.71483  1.0000
  C   C311      1.0  0.56161  0.67877  0.68324  1.0000
  C   C312      1.0  0.53141  0.69671  0.68142  1.0000
  C   C313      1.0  0.52119  0.70453  0.71058  1.0000
  H   H375      1.0  0.58713  0.66874  0.76821  1.0000
  H   H376      1.0  0.60607  0.65545  0.71681  1.0000
  H   H377      1.0  0.51525  0.70442  0.65713  1.0000
  H   H378      1.0  0.49738  0.71814  0.70858  1.0000
  C   C314      1.0  0.81033  0.65677  0.63544  1.0000
  C   C315      1.0  0.85623  0.65678  0.63563  1.0000
  C   C316      1.0  0.88258  0.67644  0.64260  1.0000
  C   C317      1.0  0.86338  0.69633  0.64978  1.0000
  C   C318      1.0  0.81744  0.69632  0.64941  1.0000
  C   C319      1.0  0.79095  0.67674  0.64204  1.0000
  H   H379      1.0  0.87169  0.64143  0.63072  1.0000
  H   H380      1.0  0.91801  0.67605  0.64325  1.0000
  H   H381      1.0  0.80222  0.71156  0.65503  1.0000
  H   H382      1.0  0.75578  0.67702  0.64208  1.0000
  C   C320      1.0  0.65243  0.52753  0.61203  1.0000
  C   C321      1.0  0.63415  0.53071  0.63900  1.0000
  C   C322      1.0  0.62331  0.51182  0.65526  1.0000
  H   H383      1.0  0.66082  0.54182  0.59916  1.0000
  H   H384      1.0  0.60920  0.51399  0.67617  1.0000
  H   H385      1.0  0.56943  0.62406  0.67377  1.0000
  H   H386      1.0  0.59598  0.59721  0.68076  1.0000
  N   N22       1.0  0.78495  0.55961  0.65417  1.0000
  C   C323      1.0  0.77370  0.56442  0.61731  1.0000
  C   C324      1.0  0.75511  0.57387  0.66807  1.0000
  C   C325      1.0  0.83269  0.56638  0.67090  1.0000
  C   C326      1.0  0.77967  0.53546  0.65940  1.0000
  C   C327      1.0  0.75071  0.52697  0.67771  1.0000
  C   C328      1.0  0.80375  0.51957  0.64570  1.0000
  H   H387      1.0  0.08902  0.71609  0.53470  1.0000
  C   C329      1.0  0.82622  0.69165  0.54753  1.0000
  H   H388      1.0  0.90423  0.70253  0.59160  1.0000
  H   H389      1.0  0.73915  0.55812  0.60345  1.0000
  H   H390      1.0  0.77428  0.58266  0.61228  1.0000
  C   C330      1.0  0.49999  0.61344  0.73817  1.0000
  H   H391      1.0  0.71854  0.56981  0.65617  1.0000
  H   H392      1.0  0.75922  0.59188  0.66320  1.0000
  H   H393      1.0  0.76315  0.57208  0.69607  1.0000
  H   H394      1.0  0.85717  0.55767  0.66009  1.0000
  H   H395      1.0  0.83751  0.58462  0.66792  1.0000
  H   H396      1.0  0.84276  0.56266  0.69857  1.0000
  H   H397      1.0  0.73057  0.53760  0.68886  1.0000
  H   H398      1.0  0.82690  0.52473  0.63193  1.0000
  C   C331      1.0  0.66088  0.50579  0.60215  1.0000
  H   H399      1.0  0.47099  0.58603  0.65582  1.0000
  C   C332      1.0  0.64465  0.72443  0.76293  1.0000
  H   H400      1.0  0.56660  0.58143  0.73761  1.0000
  H   H401      1.0  0.50003  0.60650  0.63823  1.0000
  H   H402      1.0  0.45498  0.66682  0.68613  1.0000
  C   C333      1.0  0.79786  0.49667  0.64899  1.0000
  C   C334      1.0  0.83347  0.73008  0.56388  1.0000
  Fe  Fe44      1.0  0.95955  0.73572  0.65069  1.0000
  Fe  Fe45      1.0  0.49557  0.73678  0.78664  1.0000
  C   C335      1.0  0.49353  0.61348  0.50238  1.0000
  H   H403      1.0  0.44628  0.66246  0.74339  1.0000
  H   H404      1.0  0.59584  0.61459  0.71622  1.0000
  C   C336      1.0  0.57509  0.60916  0.69049  1.0000
  H   H405      1.0  0.78925  0.69362  0.53417  1.0000
  C   C337      1.0  0.50515  0.59247  0.65648  1.0000
  C   C338      1.0  0.50612  0.61555  0.70543  1.0000
  C   C339      1.0  0.56033  0.50792  0.51101  1.0000
  C   C340      1.0  0.84857  0.71980  0.51131  1.0000
  N   N23       1.0  0.85178  0.71245  0.54622  1.0000
  H   H406      1.0  0.68034  0.72126  0.77851  1.0000
  H   H407      1.0  0.91580  0.69571  0.55231  1.0000
  C   C341      1.0  0.47828  0.63015  0.75143  1.0000
  H   H408      1.0  0.51232  0.59926  0.75431  1.0000
  C   C342      1.0  0.54293  0.57822  0.71183  1.0000
  C   C343      1.0  0.74551  0.50404  0.68115  1.0000
  H   H409      1.0  0.50351  0.61672  0.52937  1.0000
  H   H410      1.0  0.49540  0.71554  0.97099  1.0000
  H   H411      1.0  0.63760  0.71528  0.73836  1.0000
  H   H412      1.0  0.22211  0.72251  0.74416  1.0000
  C   C344      1.0  0.09510  0.72841  0.51735  1.0000
  H   H413      1.0  0.82882  0.68688  0.57414  1.0000
  H   H414      1.0  0.57046  0.52045  0.53086  1.0000
  H   H415      1.0  0.92116  0.72359  0.56782  1.0000
  H   H416      1.0  0.83988  0.67728  0.53646  1.0000
  C   C345      1.0  0.22863  0.73775  0.73244  1.0000
  H   H417      1.0  0.70500  0.73112  0.73326  1.0000
  H   H418      1.0  0.48305  0.73281  0.91424  1.0000
  H   H419      1.0  0.30175  0.73594  0.75574  1.0000
  S   S92       1.0  0.99082  0.73828  0.54054  1.0000
  H   H420      1.0  0.72229  0.49788  0.69437  1.0000
  C   C346      1.0  0.87029  0.73973  0.50601  1.0000
  S   S93       1.0  0.13482  0.73974  0.70508  1.0000
  H   H421      1.0  0.85523  0.73865  0.75975  1.0000
  S   S94       1.0  0.43428  0.74101  0.80623  1.0000
  C   C347      1.0  0.55316  0.69087  0.49988  1.0000
  S   S95       1.0  0.52944  0.77533  0.12080  1.0000
  Fe  Fe46      1.0  0.47193  0.76640  0.14225  1.0000
  S   S96       1.0  0.40512  0.78275  0.14390  1.0000
  Fe  Fe47      1.0  0.57518  0.75515  0.16453  1.0000
  S   S97       1.0  0.64480  0.76669  0.19957  1.0000
  Fe  Fe48      1.0  0.22612  0.88188  0.11978  1.0000
  S   S98       1.0  0.20969  0.90041  0.16264  1.0000
  S   S99       1.0  0.29885  0.87594  0.11734  1.0000
  Fe  Fe49      1.0  0.12627  0.87465  0.08216  1.0000
  S   S100      1.0  0.10287  0.89160  0.12241  1.0000
  S   S101      1.0  0.07633  0.85814  0.03685  1.0000
  Fe  Fe50      1.0  0.15479  0.91815  0.12204  1.0000
  S   S102      1.0  0.12387  0.95350  0.11952  1.0000
  Fe  Fe51      1.0  0.15855  0.87292  0.15981  1.0000
  S   S103      1.0  0.15567  0.85678  0.20938  1.0000
  S   S104      1.0  0.17501  0.90175  0.07925  1.0000
  S   S105      1.0  0.17850  0.85365  0.11960  1.0000
  C   C348      1.0  0.03991  0.81346  0.22547  1.0000
  C   C349      1.0  0.08000  0.81701  0.25191  1.0000
  C   C350      1.0  0.11506  0.83029  0.24653  1.0000
  C   C351      1.0  0.11061  0.84007  0.21471  1.0000
  C   C352      1.0  0.07071  0.83636  0.18823  1.0000
  C   C353      1.0  0.03558  0.82319  0.19365  1.0000
  H   H422      1.0  0.14567  0.83315  0.26725  1.0000
  H   H423      1.0  0.06678  0.84375  0.16362  1.0000
  H   H424      1.0  0.00481  0.82047  0.17298  1.0000
  C   C354      1.0  0.37643  0.80885  0.13524  1.0000
  C   C355      1.0  0.39688  0.82807  0.12742  1.0000
  C   C356      1.0  0.37273  0.84847  0.12199  1.0000
  C   C357      1.0  0.32791  0.84985  0.12412  1.0000
  C   C358      1.0  0.30750  0.83057  0.13177  1.0000
  C   C359      1.0  0.33160  0.81025  0.13723  1.0000
  H   H425      1.0  0.43137  0.82731  0.12591  1.0000
  H   H426      1.0  0.38886  0.86327  0.11605  1.0000
  H   H427      1.0  0.27307  0.83125  0.13336  1.0000
  H   H428      1.0  0.31545  0.79551  0.14330  1.0000
  N   N24       1.0  0.31812  0.85499  0.23263  1.0000
  C   C360      1.0  0.27255  0.85369  0.23807  1.0000
  C   C361      1.0  0.34901  0.86664  0.26230  1.0000
  C   C362      1.0  0.31305  0.86871  0.20193  1.0000
  C   C363      1.0  0.33746  0.83294  0.22821  1.0000
  C   C364      1.0  0.38140  0.83141  0.22364  1.0000
  C   C365      1.0  0.31383  0.81257  0.22818  1.0000
  C   C366      1.0  0.40053  0.81084  0.21953  1.0000
  C   C367      1.0  0.33329  0.79209  0.22388  1.0000
  C   C368      1.0  0.37650  0.79123  0.21955  1.0000
  H   H429      1.0  0.24721  0.84578  0.21600  1.0000
  H   H430      1.0  0.27352  0.84423  0.26142  1.0000
  H   H431      1.0  0.25837  0.87050  0.24065  1.0000
  H   H432      1.0  0.35585  0.85621  0.28556  1.0000
  H   H433      1.0  0.33420  0.88274  0.26750  1.0000
  H   H434      1.0  0.38230  0.87076  0.25835  1.0000
  H   H435      1.0  0.28789  0.86111  0.17952  1.0000
  H   H436      1.0  0.30081  0.88584  0.20487  1.0000
  H   H437      1.0  0.34533  0.87062  0.19529  1.0000
  H   H438      1.0  0.40096  0.84614  0.22242  1.0000
  H   H439      1.0  0.28004  0.81199  0.23096  1.0000
  H   H440      1.0  0.31448  0.77676  0.22323  1.0000
  C   C369      1.0  0.09616  0.75444  0.26001  1.0000
  H   H441      1.0  0.06773  0.90605  0.02544  1.0000
  N   N25       1.0  0.38324  0.78155  0.03496  1.0000
  H   H442      1.0  0.08462  0.77864  0.20504  1.0000
  H   H443      1.0  0.49933  0.78026  0.01612  1.0000
  C   C370      1.0  0.36644  0.76114  0.04764  1.0000
  H   H444      1.0  0.10892  0.76010  0.18152  1.0000
  C   C371      1.0  0.02909  0.89789  0.18783  1.0000
  S   S106      1.0  0.99489  0.79646  0.23016  1.0000
  H   H445      1.0  0.39094  0.77541  0.21509  1.0000
  H   H446      1.0  0.21702  0.97210  0.14162  1.0000
  H   H447      1.0  0.43344  0.81007  0.21486  1.0000
  H   H448      1.0  0.96971  0.89207  0.03340  1.0000
  H   H449      1.0  0.91301  0.91961  0.04325  1.0000
  C   C372      1.0  0.35547  0.80165  0.03576  1.0000
  C   C373      1.0  0.31671  0.80136  0.04790  1.0000
  C   C374      1.0  0.04017  0.87449  0.00427  1.0000
  H   H450      1.0  0.14511  0.75697  0.41839  1.0000
  H   H451      1.0  0.06737  0.92806  0.19019  1.0000
  S   S107      1.0  0.51846  0.74929  0.18825  1.0000
  C   C375      1.0  0.99493  0.77327  0.49688  1.0000
  C   C376      1.0  0.04219  0.91700  0.17410  1.0000
  H   H452      1.0  0.95438  0.87632  0.11762  1.0000
  H   H453      1.0  0.03706  0.93639  0.13049  1.0000
  C   C377      1.0  0.97165  0.74584  0.43905  1.0000
  H   H454      1.0  0.95870  0.87569  0.06558  1.0000
  H   H455      1.0  0.33113  0.75696  0.03230  1.0000
  C   C378      1.0  0.29177  0.82078  0.04872  1.0000
  C   C379      1.0  0.70137  0.75529  0.21171  1.0000
  C   C380      1.0  0.98033  0.88948  0.06139  1.0000
  H   H456      1.0  0.01614  0.88335  0.06888  1.0000
  C   C381      1.0  0.14625  0.98128  0.12430  1.0000
  H   H457      1.0  0.06996  0.76773  0.25685  1.0000
  H   H458      1.0  0.03806  0.92454  0.07478  1.0000
  S   S108      1.0  0.03564  0.76511  0.32307  1.0000
  C   C382      1.0  0.98263  0.76817  0.43566  1.0000
  H   H459      1.0  0.98882  0.92952  0.03947  1.0000
  C   C383      1.0  0.00076  0.92802  0.06764  1.0000
  C   C384      1.0  0.36747  0.82251  0.02466  1.0000
  H   H460      1.0  0.36753  0.76296  0.07480  1.0000
  H   H461      1.0  0.08375  0.80978  0.27658  1.0000
  H   H462      1.0  0.00153  0.79922  0.46241  1.0000
  C   C385      1.0  0.99352  0.78187  0.46472  1.0000
  H   H463      1.0  0.80784  0.76764  0.26485  1.0000
  H   H464      1.0  0.35320  0.85776  0.01852  1.0000
  H   H465      1.0  0.90653  0.90325  0.07781  1.0000
  H   H466      1.0  0.92271  0.93198  0.08463  1.0000
  H   H467      1.0  0.12900  0.76197  0.27496  1.0000
  C   C386      1.0  0.78147  0.75839  0.24663  1.0000
  C   C387      1.0  0.30494  0.84101  0.03819  1.0000
  C   C388      1.0  0.97917  0.88793  0.13244  1.0000
  H   H468      1.0  0.72923  0.78301  0.24454  1.0000
  H   H469      1.0  0.99569  0.94471  0.07774  1.0000
  N   N26       1.0  0.97613  0.91021  0.08005  1.0000
  S   S109      1.0  0.92702  0.77612  0.29427  1.0000
  C   C389      1.0  0.99710  0.88357  0.16715  1.0000
  S   S110      1.0  0.98459  0.77964  0.39620  1.0000
  C   C390      1.0  0.73665  0.76706  0.23510  1.0000
  C   C391      1.0  0.92743  0.91654  0.07103  1.0000
  H   H470      1.0  0.04396  0.89406  0.21452  1.0000
  C   C392      1.0  0.99356  0.90663  0.11722  1.0000
  Fe  Fe52      1.0  0.98647  0.77386  0.27267  1.0000
  Fe  Fe53      1.0  0.97555  0.76379  0.34381  1.0000
  H   H471      1.0  0.98678  0.86879  0.17806  1.0000
  H   H472      1.0  0.26296  0.82036  0.05884  1.0000
  H   H473      1.0  0.44768  0.79908  0.04711  1.0000
  C   C393      1.0  0.34267  0.84187  0.02612  1.0000
  C   C394      1.0  0.11125  0.74948  0.40584  1.0000
  C   C395      1.0  0.02438  0.92157  0.13942  1.0000
  C   C396      1.0  0.10957  0.76476  0.20772  1.0000
  C   C397      1.0  0.43064  0.78529  0.05643  1.0000
  H   H474      1.0  0.45220  0.77023  0.05721  1.0000
  H   H475      1.0  0.10865  0.77427  0.45530  1.0000
  C   C398      1.0  0.86830  0.74696  0.47342  1.0000
  C   C399      1.0  0.04228  0.89776  0.00519  1.0000
  H   H476      1.0  0.43156  0.78945  0.08296  1.0000
  H   H477      1.0  0.38793  0.74633  0.04643  1.0000
  H   H478      1.0  0.30561  0.78652  0.05785  1.0000
  H   H479      1.0  0.02556  0.75043  0.20668  1.0000
  H   H480      1.0  0.08476  0.76282  0.40093  1.0000
  H   H481      1.0  0.28650  0.85614  0.04030  1.0000
  C   C400      1.0  0.19300  0.98578  0.13575  1.0000
  C   C401      1.0  0.10604  0.76078  0.47187  1.0000
  H   H482      1.0  0.14392  0.77157  0.22086  1.0000
  H   H483      1.0  0.88604  0.76202  0.47016  1.0000
  H   H484      1.0  0.39679  0.82408  0.01549  1.0000
  N   N27       1.0  0.09835  0.74578  0.22677  1.0000
  C   C402      1.0  0.38376  0.77701  0.99969  1.0000
  Fe  Fe54      1.0  0.51479  0.74236  0.09318  1.0000
  H   H485      1.0  0.11181  0.74350  0.38037  1.0000
  C   C403      1.0  0.48301  0.76639  0.93255  1.0000
  H   H486      1.0  0.57459  0.76860  0.73497  1.0000
  S   S111      1.0  0.45188  0.79493  0.80130  1.0000
  H   H487      1.0  0.87925  0.81446  0.82757  1.0000
  Fe  Fe55      1.0  0.41256  0.76796  0.76669  1.0000
  S   S112      1.0  0.33917  0.77706  0.73476  1.0000
  Fe  Fe56      1.0  0.51259  0.78660  0.78362  1.0000
  S   S113      1.0  0.55935  0.81040  0.76552  1.0000
  H   H488      1.0  0.48508  0.79754  0.95914  1.0000
  Fe  Fe57      1.0  0.79874  0.88112  0.83545  1.0000
  S   S114      1.0  0.80962  0.88750  0.78469  1.0000
  S   S115      1.0  0.73945  0.86320  0.84732  1.0000
  Fe  Fe58      1.0  0.89160  0.90209  0.87445  1.0000
  S   S116      1.0  0.90901  0.90937  0.82636  1.0000
  S   S117      1.0  0.93739  0.91627  0.92385  1.0000
  Fe  Fe59      1.0  0.83636  0.92128  0.80672  1.0000
  S   S118      1.0  0.81956  0.95381  0.77693  1.0000
  Fe  Fe60      1.0  0.88135  0.87525  0.80895  1.0000
  S   S119      1.0  0.91736  0.84584  0.79263  1.0000
  S   S120      1.0  0.82035  0.91567  0.85559  1.0000
  S   S121      1.0  0.86897  0.86719  0.85891  1.0000
  S   S122      1.0  0.94159  0.76278  0.61142  1.0000
  S   S123      1.0  0.05010  0.77511  0.62934  1.0000
  Fe  Fe61      1.0  0.99141  0.78395  0.64974  1.0000
  S   S124      1.0  0.97286  0.81944  0.66028  1.0000
  C   C404      1.0  0.26141  0.79009  0.86348  1.0000
  N   N28       1.0  0.81063  0.80525  0.80018  1.0000
  C   C405      1.0  0.48721  0.77960  0.96162  1.0000
  C   C406      1.0  0.21657  0.78397  0.86091  1.0000
  C   C407      1.0  0.27931  0.78736  0.83562  1.0000
  C   C408      1.0  0.97771  0.89978  0.95364  1.0000
  C   C409      1.0  0.97625  0.87651  0.95232  1.0000
  H   H489      1.0  0.82560  0.83838  0.78640  1.0000
  C   C410      1.0  0.32782  0.80930  0.81101  1.0000
  H   H490      1.0  0.95077  0.86822  0.93213  1.0000
  Fe  Fe62      1.0  0.06365  0.74775  0.66832  1.0000
  C   C411      1.0  0.92988  0.83877  0.75459  1.0000
  C   C412      1.0  0.95010  0.81796  0.75278  1.0000
  C   C413      1.0  0.96216  0.81163  0.72373  1.0000
  C   C414      1.0  0.95467  0.82617  0.69618  1.0000
  C   C415      1.0  0.93400  0.84693  0.69780  1.0000
  C   C416      1.0  0.92132  0.85317  0.72679  1.0000
  H   H491      1.0  0.95677  0.80669  0.77412  1.0000
  H   H492      1.0  0.97800  0.79565  0.72301  1.0000
  H   H493      1.0  0.92817  0.85833  0.67666  1.0000
  H   H494      1.0  0.90590  0.86927  0.72787  1.0000
  H   H495      1.0  0.33848  0.81786  0.87682  1.0000
  H   H496      1.0  0.73152  0.94157  0.85136  1.0000
  C   C417      1.0  0.70358  0.92904  0.84420  1.0000
  H   H497      1.0  0.80129  0.96936  0.83928  1.0000
  H   H498      1.0  0.34872  0.75886  0.84990  1.0000
  C   C418      1.0  0.28318  0.76528  0.72478  1.0000
  H   H499      1.0  0.78019  0.77841  0.82113  1.0000
  C   C419      1.0  0.20095  0.76924  0.69587  1.0000
  C   C420      1.0  0.24622  0.77708  0.70307  1.0000
  H   H500      1.0  0.17327  0.77847  0.67888  1.0000
  H   H501      1.0  0.25273  0.79242  0.69160  1.0000
  C   C421      1.0  0.61077  0.82398  0.78868  1.0000
  C   C422      1.0  0.62698  0.82340  0.82412  1.0000
  C   C423      1.0  0.66681  0.83517  0.84143  1.0000
  C   C424      1.0  0.69142  0.84742  0.82368  1.0000
  C   C425      1.0  0.67608  0.84742  0.78816  1.0000
  C   C426      1.0  0.63585  0.83590  0.77084  1.0000
  H   H502      1.0  0.60820  0.81436  0.83828  1.0000
  H   H503      1.0  0.67823  0.83507  0.86891  1.0000
  H   H504      1.0  0.69418  0.85696  0.77409  1.0000
  H   H505      1.0  0.62347  0.83664  0.74344  1.0000
  C   C427      1.0  0.77116  0.79451  0.80764  1.0000
  C   C428      1.0  0.81408  0.98078  0.79356  1.0000
  S   S125      1.0  0.47113  0.77965  0.89219  1.0000
  C   C429      1.0  0.61470  0.91188  0.76220  1.0000
  H   H506      1.0  0.89007  0.74968  0.52712  1.0000
  H   H507      1.0  0.90859  0.97916  0.82510  1.0000
  S   S126      1.0  0.53896  0.76113  0.82444  1.0000
  C   C430      1.0  0.66311  0.95222  0.79786  1.0000
  C   C431      1.0  0.93714  0.97188  0.87806  1.0000
  C   C432      1.0  0.59616  0.88233  0.80849  1.0000
  C   C433      1.0  0.10086  0.75062  0.52740  1.0000
  C   C434      1.0  0.85728  0.76665  0.72810  1.0000
  H   H508      1.0  0.31233  0.80279  0.78489  1.0000
  C   C435      1.0  0.57033  0.88155  0.77452  1.0000
  C   C436      1.0  0.92287  0.98611  0.85032  1.0000
  H   H509      1.0  0.67868  0.75869  0.80646  1.0000
  C   C437      1.0  0.19168  0.74957  0.71078  1.0000
  C   C438      1.0  0.18856  0.77483  0.83088  1.0000
  H   H510      1.0  0.20365  0.78599  0.88254  1.0000
  C   C439      1.0  0.20502  0.77204  0.80311  1.0000
  C   C440      1.0  0.35385  0.80218  0.87079  1.0000
  C   C441      1.0  0.68486  0.79421  0.71531  1.0000
  H   H511      1.0  0.71982  0.91258  0.85270  1.0000
  C   C442      1.0  0.57953  0.89632  0.75141  1.0000
  H   H512      1.0  0.40070  0.79047  0.98950  1.0000
  H   H513      1.0  0.72654  0.90631  0.79506  1.0000
  C   C443      1.0  0.71415  0.92373  0.78945  1.0000
  N   N29       1.0  0.10973  0.82127  0.72321  1.0000
  C   C444      1.0  0.15926  0.82065  0.74119  1.0000
  C   C445      1.0  0.09195  0.79820  0.71923  1.0000
  C   C446      1.0  0.10397  0.83022  0.68861  1.0000
  C   C447      1.0  0.08567  0.83444  0.74311  1.0000
  C   C448      1.0  0.08809  0.82799  0.77672  1.0000
  C   C449      1.0  0.05843  0.85341  0.72979  1.0000
  C   C450      1.0  0.06455  0.83969  0.79567  1.0000
  C   C451      1.0  0.03545  0.86511  0.74913  1.0000
  C   C452      1.0  0.03827  0.85820  0.78189  1.0000
  H   H514      1.0  0.16694  0.81238  0.76628  1.0000
  H   H515      1.0  0.17838  0.81119  0.72649  1.0000
  H   H516      1.0  0.17353  0.83781  0.74545  1.0000
  H   H517      1.0  0.10739  0.78787  0.70304  1.0000
  H   H518      1.0  0.05445  0.79835  0.70718  1.0000
  H   H519      1.0  0.09870  0.78924  0.74374  1.0000
  H   H520      1.0  0.12252  0.81997  0.67438  1.0000
  H   H521      1.0  0.06753  0.83007  0.67298  1.0000
  H   H522      1.0  0.11710  0.84754  0.68952  1.0000
  H   H523      1.0  0.10735  0.81352  0.78832  1.0000
  H   H524      1.0  0.05299  0.85917  0.70412  1.0000
  H   H525      1.0  0.06575  0.83417  0.82093  1.0000
  H   H526      1.0  0.01382  0.87914  0.73819  1.0000
  H   H527      1.0  0.01892  0.86685  0.79624  1.0000
  C   C453      1.0  0.84878  0.80655  0.83204  1.0000
  C   C454      1.0  0.82552  0.79219  0.77476  1.0000
  C   C455      1.0  0.83515  0.80220  0.74639  1.0000
  C   C456      1.0  0.83351  0.76890  0.77902  1.0000
  C   C457      1.0  0.64216  0.75904  0.79137  1.0000
  H   H528      1.0  0.93397  0.95398  0.87445  1.0000
  H   H529      1.0  0.85886  0.79762  0.70252  1.0000
  H   H530      1.0  0.83956  0.81669  0.85174  1.0000
  H   H531      1.0  0.85957  0.78984  0.84308  1.0000
  H   H532      1.0  0.83253  0.81994  0.74185  1.0000
  H   H533      1.0  0.82916  0.76028  0.80078  1.0000
  H   H534      1.0  0.35773  0.78996  0.89173  1.0000
  H   H535      1.0  0.38926  0.80641  0.87097  1.0000
  C   C458      1.0  0.35057  0.77223  0.83171  1.0000
  C   C459      1.0  0.79652  0.82836  0.78897  1.0000
  H   H536      1.0  0.00396  0.78398  0.51898  1.0000
  H   H537      1.0  0.78375  0.83752  0.80782  1.0000
  H   H538      1.0  0.74312  0.79154  0.78392  1.0000
  H   H539      1.0  0.63196  0.79254  0.73876  1.0000
  H   H540      1.0  0.76892  0.82857  0.76442  1.0000
  H   H541      1.0  0.75717  0.80511  0.82451  1.0000
  H   H542      1.0  0.58955  0.87043  0.82622  1.0000
  C   C460      1.0  0.00728  0.86393  0.97766  1.0000
  H   H543      1.0  0.64940  0.95462  0.76999  1.0000
  S   S127      1.0  0.00682  0.75771  0.68999  1.0000
  H   H544      1.0  0.55961  0.89550  0.72492  1.0000
  C   C461      1.0  0.27401  0.74535  0.73909  1.0000
  H   H545      1.0  0.15422  0.76963  0.82926  1.0000
  H   H546      1.0  0.63049  0.77666  0.78956  1.0000
  H   H547      1.0  0.10904  0.78414  0.51227  1.0000
  C   C462      1.0  0.64186  0.91309  0.79664  1.0000
  H   H548      1.0  0.00550  0.84593  0.97682  1.0000
  C   C463      1.0  0.63161  0.89770  0.81953  1.0000
  N   N30       1.0  0.32700  0.79277  0.83754  1.0000
  C   C464      1.0  0.85057  0.78951  0.72346  1.0000
  H   H549      1.0  0.09929  0.75541  0.55239  1.0000
  S   S128      1.0  0.47135  0.76201  0.74510  1.0000
  H   H550      1.0  0.87008  0.75698  0.71053  1.0000
  C   C465      1.0  0.65785  0.78301  0.73194  1.0000
  C   C466      1.0  0.58627  0.75099  0.73786  1.0000
  Fe  Fe63      1.0  0.47581  0.76770  0.84032  1.0000
  H   H551      1.0  0.54378  0.86912  0.76604  1.0000
  H   H552      1.0  0.62102  0.92272  0.74321  1.0000
  H   H553      1.0  0.67926  0.81182  0.70965  1.0000
  H   H554      1.0  0.28147  0.79666  0.88765  1.0000
  H   H555      1.0  0.36332  0.81396  0.81217  1.0000
  H   H556      1.0  0.65118  0.89671  0.84597  1.0000
  C   C467      1.0  0.66375  0.75993  0.73947  1.0000
  Fe  Fe64      1.0  0.00108  0.75101  0.59479  1.0000
  C   C468      1.0  0.71864  0.78279  0.70576  1.0000
  H   H557      1.0  0.34859  0.77502  0.98239  1.0000
  H   H558      1.0  0.62261  0.75027  0.80634  1.0000
  H   H559      1.0  0.67975  0.93306  0.85912  1.0000
  H   H560      1.0  0.73944  0.79146  0.69270  1.0000
  N   N31       1.0  0.67995  0.92920  0.80712  1.0000
  C   C469      1.0  0.24948  0.77843  0.80530  1.0000
  H   H561      1.0  0.70040  0.92536  0.76143  1.0000
  H   H562      1.0  0.26080  0.77589  0.78323  1.0000
  C   C470      1.0  0.80431  0.98372  0.82435  1.0000
  H   H563      1.0  0.74413  0.93506  0.79728  1.0000
  H   H564      1.0  0.63570  0.95664  0.80936  1.0000
  H   H565      1.0  0.69092  0.96475  0.80666  1.0000
  C   C471      1.0  0.84884  0.75637  0.75586  1.0000
  H   H566      1.0  0.33622  0.76551  0.80557  1.0000
  C   C472      1.0  0.72536  0.76012  0.71267  1.0000
  H   H567      1.0  0.96608  0.96935  0.93193  1.0000
  H   H568      1.0  0.18358  0.76451  0.77988  1.0000
  H   H569      1.0  0.38728  0.77534  0.83507  1.0000
  H   H570      1.0  0.30930  0.82479  0.81378  1.0000
  C   C473      1.0  0.01092  0.91035  0.98007  1.0000
  C   C474      1.0  0.69838  0.74873  0.72920  1.0000
  H   H571      1.0  0.85351  0.74572  0.56708  1.0000
  C   C475      1.0  0.10628  0.76676  0.50472  1.0000
  C   C476      1.0  0.95525  0.98066  0.91052  1.0000
  N   N32       1.0  0.63497  0.74864  0.75753  1.0000
  H   H572      1.0  0.75140  0.75125  0.70484  1.0000
  H   H573      1.0  0.01246  0.92835  0.98108  1.0000
  C   C477      1.0  0.48634  0.74324  0.93626  1.0000
  H   H574      1.0  0.56382  0.74240  0.75063  1.0000
  H   H575      1.0  0.57938  0.74374  0.71195  1.0000
  C   C478      1.0  0.49510  0.76986  0.99401  1.0000
  C   C479      1.0  0.49772  0.74667  0.99763  1.0000
  H   H576      1.0  0.40306  0.76144  0.99818  1.0000
  C   C480      1.0  0.98620  0.75069  0.50046  1.0000
