data_image0
_chemical_formula_structural       CFeS2HC2H2S2CHFe2S2FeSFeH2CH2C2HFeC6H4CSC5H2C6HC2H2C2H2C2H2CHCH2CNH2CH4C2H2CHCSCHCH2SH3CHCHCSH7SH2CH4C3NHCHSHC2NHCHC3H5FeHC3SC2HFeSFeS2FeSFeS3FeS2FeSHFeS2FeS2FeSFeS3FeS2FeS2FeSFeS3CHC3H2SCHC6H5C7H4C3H2C6H4C7H3C6H5C4H2C4H5NC9H14NH3C3H2SC2SH2C3H2C2HC2HNHC3H2CH6C2HC2HCH2C2HC2H2NHNHCH3CH5CHSCHCSHCHCH4CH3C2NH2CHCH2CH2CH3CH2CH2NHNC2H3CH5CH4FeC2H3C4H7CH2CH4CHSH2CHNC2H4FeS2FeS2FeSFeS2HFeS2FeS2Fe2S3HCHSH2C5H2C6H8C7H4C2H2C2HCH2FeH5CH2C4NC9H14NHC3H2CH8CH2C2HC3NC2H6C2SC2HC2HCH2CSH2CHCSCHSFeS2FeSFeSFeS3FeHSFe2S2FeS2FeS2FeSFeS3FeS2FeS2FeSFeS3H2C3H5C4HC6H4CHC6H5CH2C7H4NC6H4CHC6H4NC6H5CH2CHCH3NCHC2H2CH7CH6NC2H3CHCHC5H4C3H5SCH3C3H2C2HC3H2C4NHCNC9H14NC2HCHCH2CH4CHCH5FeHNC4SCSH7CH2C3H2SHC2NH6CFeC3H5CHC3H3CHFeCSFeCSFeSCSHSFeS2C2FeS2FeS2FeS2FeSFeS3FeS2FeS2FeSFeS3HC3HNC2H3CHCH2C3H2CH3NH2C6H4C2HC6H4C2H2C2H5C2H2C6H4C2HC3H4NCHCHNC5H2CH5C5SH2CHNC9H14NC3H3C4HC2SC2H2CHSH4CHNC2H2CHCH4CH4C2H2FeH2C2HSH3C2H2NHSC2HFeH3C3H3CH8C5H4CHCHCH3C2HCH2CH7CH3C3S2FeS2FeSFeH2CFeS2FeCFeSHCH5CFeCHCH2C3H4CH2CSCH2SH4C6H3C2HCH2C3HC4HCSHC3H2C3H2NC2HC2SH3C2HCHCH5NHC4HCHCH2NHC3H3C2NC2H3CHC3SH3SCS2H3CHSFeSHFeS2FeSFeS3FeS2FeS2FeSFeS3HCSFeS2FeSFe2SFeS3H2SCH3SH2CHC2SCH3CHC6H5C6H4C2H2C6H4CNHC8H4C6H7NC9H16CHNC3HCH2CHCHC3H3CH2C3H2CNC5H3CH2C2HFeSC2H2C3H2CH4C2HCH3CHNHCHSHC2H2CH3NH5CHSHSCHCHSHC2H3CH5CH5CH2CNH3CFeC3HCHCHSC2H2C2HFeHCH2C3H2CH3CH7CHCH4C5FeS2FeSFeSFeS3FeCS2H2NCSFeS2CSFeSFeS3CH2CHC3H2CH4CH2FeC3H2C6H4C6H8CHCHFeHC2H3CH4CHC2HCNHCH4CH2CH3CHCH6C2HCHC2HCHC6H2SCH5NHC4H3N2HCH2CH2CHCHCHC2H2C2HSC2HCFeSHFeS2HFeS2FeSCFeS2HC5H3SC5HC6H5CH2FeC4H7CH2C2H2CNH3CSH3NCHCHCFeHNSH4SH2CHCSFeCH2CHC2SHCHCH2C2H3C2FeCSFeS2FeS2FeS2Fe2S3FeS2FeS2FeSFeS3FeS2FeS2FeSFeS3C6H4C6H4C6H6C5H3C5H4C2H3C5HC3H3SHC4H5C2NCHNC4H10C2H6C3H5CH3CH2C6H4CH3NC9H13CNC9H14SC5H3CHCH3CH2CH2CH2C2H3CH2CH2C2HCHCNHCHC2HNHCH3C2HC2H2CNCH2CHCH4C2H2CH4CFeS2FeS2FeSFeS2H2FeSHCFeS2FeS2Fe2S3C6H3C7H4C6H4C2H2CH2CHC3H3C3FeCH2C2HCSCH3NHC2H4C2HCH2NHCHSHC2H3C2HCHNC9H15CSH2CH4CH5C3HCH3CHCHCHCH2CH3CHCSCHSFeS2FeS2FeSFeS3FeS2FeS2FeSFeS3FeHSH2S2FeS2FeS2Fe2S3H2C6H6C6H4C6H4C6H4C6H5CFeCHC3HC2NH2C2HC2H5C2HNC9H14NC3HCH2CH3CH3CH3CHCH3C3HCHCH3CHCNCS2H3NCH3C2HCH3NCH2CHNC9H14CH2CH2C2H2CHCHCH3NH3CH2FeCH2NHC3HC4HCHC3H3CSH8CHCH2CHCHCHNCH3CH3C3HCSH2CH3FeSFeS2FeS3FeCSFeCSFeSCSHFeS2FeS2FeSFeS3FeS2FeS2FeSFeS3H2C5HCH4C2HCHCHC6H4C6H4C4HCH4C6H4C2HC3HCH6C5H4C2NH3CNC8H14C3NCH2C7H4C2HCH2C2HCSHCHCHCH3CHC6HC2HCH7CH2CH5CH2CH3NC4HNC9H8CH5SHSC2NH2CH4CHFeH3CH4C2HC2SCNCH3CSCH2C3H2CH2CHCHC3H7SC2H2NC2HC2H2FeS2FeSCHSH2CHSFeS2FeCFeSCHC6H4C4HC4SC2H2CHSH6C3H4CHSH3CSCHCH2FeH2C2H4CH2SNC4SFeCH4FeH2NCH2C4HC2H3CHFeS2FeS2FeSFeS3FeSFeS2FeSFeS3FeSHFeS2FeSFeS5FeH3SHCHNC7H4C6H4C2H2C2H4C6H4C6H5CH2C2H2SCH2CHC3H8C4H5NH2C2HCH2NHCHC2H6CH3NC2HC2HC3HC3HCHCHC2SCSCH4CHNC9H7CH2C2HCHC2HC2SCH4C2SH4CH3SCH3CH5FeHCHCSC2H3C2H2CNH2NH4CHC3SH2C2HC2H2NC3H4CH8FeH3CH4C5HFeHSC2NFeCH3NH3C2HC4HCSFeS2FeS2FeSFeS2FeS2FeS2FeSFeS2C2HCH2CHSHC6H4C6H4C2H2C2H2CHC2H2CHCHC2HC2HCHC2HCSH2CH3CH2C2HCH2CFeH5CH4C2HCH2C3HNH4C2H2NC9H6CHC2NCH4CHC2HC2HCHSNC2HCHSH2CHC2NHC
_chemical_formula_sum              "C1440 Fe192 S384 H1728 N96"
_cell_length_a       50.2793
_cell_length_b       99.8281
_cell_length_c       53.0436
_cell_angle_alpha    84.5497
_cell_angle_beta     87.5038
_cell_angle_gamma    85.6979

_space_group_name_H-M_alt    "P 1"
_space_group_IT_number       1

loop_
  _space_group_symop_operation_xyz
  'x, y, z'

loop_
  _atom_site_type_symbol
  _atom_site_label
  _atom_site_symmetry_multiplicity
  _atom_site_fract_x
  _atom_site_fract_y
  _atom_site_fract_z
  _atom_site_occupancy
  C   C1        1.0  0.47527  0.07693  0.00473  1.0000
  Fe  Fe1       1.0  0.16796  0.00881  0.36416  1.0000
  S   S1        1.0  0.15807  0.01859  0.32536  1.0000
  S   S2        1.0  0.18612  0.01865  0.39575  1.0000
  H   H1        1.0  0.47093  0.01498  0.27381  1.0000
  C   C2        1.0  0.48619  0.02237  0.09962  1.0000
  C   C3        1.0  0.04000  0.03374  0.35498  1.0000
  H   H2        1.0  0.19650  0.02252  0.44728  1.0000
  H   H3        1.0  0.16412  0.10246  0.43794  1.0000
  S   S3        1.0  0.08152  0.01206  0.31503  1.0000
  S   S4        1.0  0.40017  0.05629  0.02541  1.0000
  C   C4        1.0  0.04865  0.00678  0.32329  1.0000
  H   H4        1.0  0.47884  0.06932  0.02042  1.0000
  Fe  Fe2       1.0  0.18472  0.00162  0.30992  1.0000
  Fe  Fe3       1.0  0.37727  0.00499  0.14765  1.0000
  S   S5        1.0  0.38413  0.01533  0.18256  1.0000
  S   S6        1.0  0.35829  0.01277  0.11045  1.0000
  Fe  Fe4       1.0  0.42428  0.00319  0.18328  1.0000
  S   S7        1.0  0.46392  0.01284  0.18704  1.0000
  Fe  Fe5       1.0  0.36686  0.99720  0.20471  1.0000
  H   H5        1.0  0.11391  0.05040  0.42458  1.0000
  H   H6        1.0  0.34488  0.99360  0.06738  1.0000
  C   C5        1.0  0.40817  0.10593  0.00262  1.0000
  H   H7        1.0  0.43123  0.01138  0.30435  1.0000
  H   H8        1.0  0.16389  0.11406  0.46153  1.0000
  C   C6        1.0  0.01295  0.02093  0.39650  1.0000
  C   C7        1.0  0.44973  0.08324  0.00159  1.0000
  H   H9        1.0  0.24370  0.00898  0.22748  1.0000
  Fe  Fe6       1.0  0.12387  0.00481  0.32798  1.0000
  C   C8        1.0  0.39031  0.04344  0.04849  1.0000
  C   C9        1.0  0.37115  0.03474  0.04325  1.0000
  C   C10       1.0  0.36169  0.02540  0.06245  1.0000
  C   C11       1.0  0.37195  0.02429  0.08683  1.0000
  C   C12       1.0  0.39189  0.03263  0.09188  1.0000
  C   C13       1.0  0.40072  0.04232  0.07286  1.0000
  H   H10       1.0  0.36276  0.03562  0.02467  1.0000
  H   H11       1.0  0.34594  0.01920  0.05846  1.0000
  H   H12       1.0  0.39976  0.03195  0.11065  1.0000
  H   H13       1.0  0.41544  0.04907  0.07710  1.0000
  C   C14       1.0  0.26960  0.99712  0.28389  1.0000
  S   S8        1.0  0.34066  0.99800  0.24199  1.0000
  C   C15       1.0  0.21648  0.05774  0.44865  1.0000
  C   C16       1.0  0.30534  0.99891  0.25041  1.0000
  C   C17       1.0  0.28568  0.00351  0.23304  1.0000
  C   C18       1.0  0.25841  0.00517  0.24115  1.0000
  C   C19       1.0  0.25000  0.00209  0.26667  1.0000
  H   H14       1.0  0.17394  0.03716  0.47836  1.0000
  H   H15       1.0  0.39842  0.01240  0.29183  1.0000
  C   C20       1.0  0.16764  0.02787  0.41845  1.0000
  C   C21       1.0  0.14402  0.03557  0.41237  1.0000
  C   C22       1.0  0.13168  0.04413  0.42977  1.0000
  C   C23       1.0  0.14240  0.04481  0.45363  1.0000
  C   C24       1.0  0.16539  0.03666  0.46013  1.0000
  C   C25       1.0  0.17817  0.02839  0.44245  1.0000
  H   H16       1.0  0.13581  0.03534  0.39391  1.0000
  C   C26       1.0  0.22536  0.06316  0.46975  1.0000
  C   C27       1.0  0.05425  0.02552  0.37313  1.0000
  H   H17       1.0  0.37897  0.99629  0.06097  1.0000
  H   H18       1.0  0.05199  0.01259  0.40771  1.0000
  C   C28       1.0  0.30373  0.03060  0.26537  1.0000
  C   C29       1.0  0.04347  0.99695  0.34324  1.0000
  H   H19       1.0  0.49449  0.01373  0.13730  1.0000
  H   H20       1.0  0.27239  0.03661  0.23960  1.0000
  C   C30       1.0  0.45634  0.01819  0.25883  1.0000
  C   C31       1.0  0.24970  0.04083  0.34434  1.0000
  H   H21       1.0  0.05056  0.03831  0.33846  1.0000
  H   H22       1.0  0.45307  0.02937  0.25805  1.0000
  C   C32       1.0  0.31015  0.02724  0.29056  1.0000
  H   H23       1.0  0.43415  0.07999  0.01501  1.0000
  C   C33       1.0  0.41898  0.01569  0.28813  1.0000
  H   H24       1.0  0.05955  0.99259  0.35495  1.0000
  H   H25       1.0  0.23737  0.03764  0.27214  1.0000
  C   C34       1.0  0.27747  0.03454  0.25932  1.0000
  N   N1        1.0  0.24254  0.03199  0.32507  1.0000
  H   H26       1.0  0.46579  0.01602  0.24011  1.0000
  H   H27       1.0  0.13537  0.08821  0.46505  1.0000
  C   C35       1.0  0.43454  0.99654  0.26515  1.0000
  H   H28       1.0  0.39243  0.99328  0.27390  1.0000
  H   H29       1.0  0.22492  0.01782  0.35302  1.0000
  H   H30       1.0  0.22614  0.04848  0.44245  1.0000
  H   H31       1.0  0.42285  0.11286  0.00809  1.0000
  C   C36       1.0  0.26329  0.03181  0.30435  1.0000
  C   C37       1.0  0.41286  0.01646  0.24315  1.0000
  H   H32       1.0  0.18703  0.05945  0.42018  1.0000
  H   H33       1.0  0.00384  0.01556  0.41285  1.0000
  C   C38       1.0  0.29031  0.02784  0.30982  1.0000
  H   H34       1.0  0.21557  0.04740  0.30681  1.0000
  C   C39       1.0  0.25742  0.03510  0.27840  1.0000
  S   S9        1.0  0.19587  0.99257  0.34868  1.0000
  C   C40       1.0  0.01744  0.99255  0.34781  1.0000
  H   H35       1.0  0.16498  0.99515  0.42422  1.0000
  C   C41       1.0  0.18953  0.08133  0.46614  1.0000
  H   H36       1.0  0.26828  0.03700  0.35400  1.0000
  H   H37       1.0  0.25946  0.01384  0.34591  1.0000
  S   S10       1.0  0.13236  0.99629  0.36786  1.0000
  H   H38       1.0  0.20058  0.03720  0.33239  1.0000
  H   H39       1.0  0.40986  0.02766  0.24116  1.0000
  H   H40       1.0  0.23521  0.01121  0.32352  1.0000
  C   C42       1.0  0.01220  0.03561  0.35741  1.0000
  H   H41       1.0  0.31892  0.02959  0.25037  1.0000
  C   C43       1.0  0.02704  0.01254  0.30893  1.0000
  H   H42       1.0  0.20817  0.03026  0.30293  1.0000
  C   C44       1.0  0.21561  0.03698  0.31632  1.0000
  S   S11       1.0  0.21518  0.00531  0.27593  1.0000
  H   H43       1.0  0.29150  0.00612  0.21342  1.0000
  H   H44       1.0  0.23385  0.04153  0.35966  1.0000
  H   H45       1.0  0.03061  0.02019  0.29355  1.0000
  H   H46       1.0  0.25256  0.05123  0.33555  1.0000
  H   H47       1.0  0.29614  0.02479  0.32898  1.0000
  H   H48       1.0  0.48365  0.03158  0.06143  1.0000
  H   H49       1.0  0.47759  0.99452  0.25537  1.0000
  S   S12       1.0  0.41810  0.99442  0.14687  1.0000
  H   H50       1.0  0.33044  0.02370  0.29502  1.0000
  H   H51       1.0  0.49826  0.04708  0.01839  1.0000
  C   C45       1.0  0.24053  0.01814  0.33744  1.0000
  H   H52       1.0  0.46498  0.02100  0.10180  1.0000
  H   H53       1.0  0.07574  0.02382  0.37073  1.0000
  H   H54       1.0  0.41736  0.02687  0.28828  1.0000
  H   H55       1.0  0.38847  0.11177  0.00076  1.0000
  C   C46       1.0  0.45960  0.98944  0.26034  1.0000
  C   C47       1.0  0.04078  0.01913  0.39383  1.0000
  C   C48       1.0  0.17443  0.10472  0.45501  1.0000
  N   N2        1.0  0.43099  0.01145  0.26383  1.0000
  H   H56       1.0  0.39274  0.01247  0.24601  1.0000
  C   C49       1.0  0.19452  0.06398  0.43602  1.0000
  H   H57       1.0  0.40555  0.09812  0.01876  1.0000
  S   S13       1.0  0.12784  0.05684  0.47361  1.0000
  H   H58       1.0  0.16352  0.07964  0.43482  1.0000
  C   C50       1.0  0.18115  0.07556  0.44461  1.0000
  C   C51       1.0  0.29691  0.99570  0.27588  1.0000
  N   N3        1.0  0.17446  0.09339  0.47524  1.0000
  H   H59       1.0  0.46746  0.03576  0.99345  1.0000
  C   C52       1.0  0.00098  0.00821  0.31366  1.0000
  H   H60       1.0  0.39726  0.08163  0.98946  1.0000
  C   C53       1.0  0.49610  0.08028  0.98769  1.0000
  C   C54       1.0  0.44428  0.09329  0.98134  1.0000
  C   C55       1.0  0.48827  0.03609  0.98745  1.0000
  H   H61       1.0  0.19518  0.10704  0.44892  1.0000
  H   H62       1.0  0.42127  0.01336  0.22469  1.0000
  H   H63       1.0  0.31167  0.99210  0.28963  1.0000
  H   H64       1.0  0.26383  0.99447  0.30348  1.0000
  H   H65       1.0  0.15684  0.99521  0.47041  1.0000
  Fe  Fe7       1.0  0.39973  0.05194  0.98430  1.0000
  H   H66       1.0  0.00205  0.04186  0.34253  1.0000
  C   C56       1.0  0.49674  0.02836  0.07695  1.0000
  C   C57       1.0  0.49690  0.00560  0.19309  1.0000
  C   C58       1.0  0.21226  0.07481  0.47842  1.0000
  S   S14       1.0  0.14945  0.98880  0.30900  1.0000
  C   C59       1.0  0.41233  0.98864  0.27091  1.0000
  C   C60       1.0  0.01795  0.02358  0.56185  1.0000
  H   H67       1.0  0.01298  0.12849  0.70895  1.0000
  Fe  Fe8       1.0  0.13580  0.05688  0.51552  1.0000
  S   S15       1.0  0.12644  0.04017  0.54513  1.0000
  Fe  Fe9       1.0  0.14737  0.07607  0.55578  1.0000
  S   S16       1.0  0.13960  0.06062  0.58831  1.0000
  S   S17       1.0  0.15222  0.09839  0.55825  1.0000
  Fe  Fe10      1.0  0.16230  0.04597  0.56415  1.0000
  S   S18       1.0  0.19050  0.02867  0.57865  1.0000
  Fe  Fe11      1.0  0.10459  0.05611  0.56665  1.0000
  S   S19       1.0  0.06576  0.05227  0.58789  1.0000
  S   S20       1.0  0.17345  0.06179  0.53304  1.0000
  S   S21       1.0  0.11068  0.07245  0.53564  1.0000
  Fe  Fe12      1.0  0.41075  0.06497  0.93012  1.0000
  S   S22       1.0  0.41521  0.04484  0.91409  1.0000
  S   S23       1.0  0.42494  0.08318  0.90537  1.0000
  Fe  Fe13      1.0  0.37936  0.03994  0.93889  1.0000
  S   S24       1.0  0.34878  0.02681  0.92630  1.0000
  H   H68       1.0  0.07512  0.07891  0.62900  1.0000
  Fe  Fe14      1.0  0.36874  0.18101  0.81187  1.0000
  S   S25       1.0  0.38321  0.17277  0.77542  1.0000
  S   S26       1.0  0.35837  0.20331  0.80176  1.0000
  Fe  Fe15      1.0  0.37004  0.15247  0.83928  1.0000
  S   S27       1.0  0.38422  0.14288  0.80411  1.0000
  S   S28       1.0  0.35872  0.13879  0.87436  1.0000
  Fe  Fe16      1.0  0.41261  0.15956  0.79904  1.0000
  S   S29       1.0  0.45599  0.15636  0.78438  1.0000
  Fe  Fe17      1.0  0.35318  0.15729  0.78450  1.0000
  S   S30       1.0  0.32514  0.15151  0.75492  1.0000
  S   S31       1.0  0.39983  0.16855  0.83531  1.0000
  S   S32       1.0  0.33753  0.16606  0.81989  1.0000
  Fe  Fe18      1.0  0.15489  0.17541  0.67106  1.0000
  S   S33       1.0  0.14000  0.17709  0.71080  1.0000
  S   S34       1.0  0.16533  0.19392  0.64554  1.0000
  Fe  Fe19      1.0  0.15360  0.14456  0.67622  1.0000
  S   S35       1.0  0.13865  0.14455  0.71707  1.0000
  S   S36       1.0  0.16140  0.12330  0.66382  1.0000
  Fe  Fe20      1.0  0.11059  0.16206  0.70284  1.0000
  S   S37       1.0  0.06639  0.16815  0.71112  1.0000
  Fe  Fe21      1.0  0.16975  0.15947  0.72046  1.0000
  S   S38       1.0  0.19752  0.16082  0.75317  1.0000
  S   S39       1.0  0.12410  0.16140  0.66201  1.0000
  S   S40       1.0  0.18606  0.15850  0.68073  1.0000
  C   C61       1.0  0.18561  0.09811  0.49808  1.0000
  H   H69       1.0  0.43008  0.00019  0.75118  1.0000
  C   C62       1.0  0.03664  0.15962  0.70964  1.0000
  C   C63       1.0  0.03685  0.14565  0.70858  1.0000
  C   C64       1.0  0.43465  0.19454  0.80550  1.0000
  H   H70       1.0  0.48660  0.05257  0.93043  1.0000
  H   H71       1.0  0.05567  0.13967  0.70836  1.0000
  S   S41       1.0  0.38375  0.99847  0.82698  1.0000
  C   C65       1.0  0.45928  0.99575  0.91530  1.0000
  H   H72       1.0  0.36984  0.23000  0.78383  1.0000
  C   C66       1.0  0.28969  0.15455  0.75450  1.0000
  C   C67       1.0  0.27490  0.16050  0.77401  1.0000
  C   C68       1.0  0.24683  0.16245  0.77314  1.0000
  C   C69       1.0  0.23310  0.15863  0.75269  1.0000
  C   C70       1.0  0.24791  0.15285  0.73300  1.0000
  C   C71       1.0  0.27598  0.15080  0.73396  1.0000
  H   H73       1.0  0.28501  0.16360  0.78983  1.0000
  H   H74       1.0  0.23564  0.16691  0.78851  1.0000
  H   H75       1.0  0.23770  0.14965  0.71731  1.0000
  H   H76       1.0  0.28714  0.14616  0.71878  1.0000
  H   H77       1.0  0.07456  0.98940  0.59942  1.0000
  C   C72       1.0  0.08859  0.09581  0.59019  1.0000
  C   C73       1.0  0.40496  0.09796  0.89530  1.0000
  C   C74       1.0  0.41593  0.10754  0.87749  1.0000
  C   C75       1.0  0.40165  0.11991  0.87038  1.0000
  C   C76       1.0  0.37643  0.12294  0.88145  1.0000
  C   C77       1.0  0.36536  0.11332  0.89918  1.0000
  C   C78       1.0  0.37942  0.10082  0.90590  1.0000
  H   H78       1.0  0.43570  0.10546  0.86925  1.0000
  H   H79       1.0  0.41045  0.12723  0.85677  1.0000
  H   H80       1.0  0.34585  0.11558  0.90783  1.0000
  H   H81       1.0  0.37071  0.09353  0.91960  1.0000
  C   C79       1.0  0.03771  0.05972  0.57195  1.0000
  C   C80       1.0  0.01755  0.07670  0.54140  1.0000
  C   C81       1.0  0.03998  0.07084  0.55409  1.0000
  H   H82       1.0  0.42448  0.19606  0.75770  1.0000
  H   H83       1.0  0.05882  0.07511  0.55022  1.0000
  C   C82       1.0  0.15429  0.10525  0.58775  1.0000
  C   C83       1.0  0.15033  0.11929  0.58893  1.0000
  C   C84       1.0  0.15203  0.12504  0.61207  1.0000
  C   C85       1.0  0.15813  0.11678  0.63418  1.0000
  C   C86       1.0  0.16189  0.10275  0.63297  1.0000
  C   C87       1.0  0.15980  0.09700  0.60996  1.0000
  H   H84       1.0  0.14604  0.12577  0.57186  1.0000
  H   H85       1.0  0.14907  0.13585  0.61275  1.0000
  H   H86       1.0  0.16667  0.09629  0.64995  1.0000
  H   H87       1.0  0.16305  0.08620  0.60936  1.0000
  C   C88       1.0  0.37228  0.00659  0.85385  1.0000
  C   C89       1.0  0.35608  0.00022  0.87274  1.0000
  C   C90       1.0  0.34836  0.00664  0.89465  1.0000
  C   C91       1.0  0.35711  0.01936  0.89791  1.0000
  C   C92       1.0  0.37295  0.02579  0.87881  1.0000
  C   C93       1.0  0.38043  0.01944  0.85681  1.0000
  C   C94       1.0  0.07584  0.99524  0.61613  1.0000
  H   H88       1.0  0.33597  0.00165  0.90929  1.0000
  H   H89       1.0  0.37900  0.03578  0.88073  1.0000
  H   H90       1.0  0.39272  0.02448  0.84214  1.0000
  C   C95       1.0  0.15102  0.00281  0.64327  1.0000
  C   C96       1.0  0.39829  0.08987  0.97382  1.0000
  C   C97       1.0  0.18143  0.00473  0.60650  1.0000
  C   C98       1.0  0.17581  0.01876  0.60386  1.0000
  C   C99       1.0  0.15825  0.02479  0.62129  1.0000
  C   C100      1.0  0.14625  0.01686  0.64118  1.0000
  H   H91       1.0  0.05062  0.07820  0.60628  1.0000
  H   H92       1.0  0.02168  0.00324  0.62761  1.0000
  H   H93       1.0  0.15422  0.03561  0.61965  1.0000
  H   H94       1.0  0.13295  0.02165  0.65476  1.0000
  H   H95       1.0  0.06128  0.99146  0.63099  1.0000
  C   C101      1.0  0.15627  0.21716  0.67208  1.0000
  C   C102      1.0  0.16329  0.21147  0.64919  1.0000
  C   C103      1.0  0.16975  0.21999  0.62772  1.0000
  C   C104      1.0  0.04288  0.02060  0.57261  1.0000
  H   H96       1.0  0.15135  0.21069  0.68888  1.0000
  H   H97       1.0  0.17534  0.21577  0.61002  1.0000
  C   C105      1.0  0.36892  0.22770  0.85711  1.0000
  C   C106      1.0  0.36643  0.21599  0.84474  1.0000
  C   C107      1.0  0.36626  0.21686  0.81829  1.0000
  C   C108      1.0  0.36987  0.22926  0.80432  1.0000
  H   H98       1.0  0.18527  0.09025  0.51444  1.0000
  H   H99       1.0  0.36805  0.22713  0.87760  1.0000
  H   H100      1.0  0.36340  0.20648  0.85567  1.0000
  H   H101      1.0  0.48347  0.05256  0.88351  1.0000
  H   H102      1.0  0.22431  0.99532  0.67990  1.0000
  N   N4        1.0  0.30642  0.12143  0.81435  1.0000
  C   C109      1.0  0.31213  0.13460  0.82283  1.0000
  C   C110      1.0  0.30527  0.11142  0.83682  1.0000
  C   C111      1.0  0.32936  0.11704  0.79771  1.0000
  C   C112      1.0  0.28051  0.12284  0.80171  1.0000
  C   C113      1.0  0.27795  0.12017  0.77607  1.0000
  C   C114      1.0  0.25686  0.12734  0.81497  1.0000
  C   C115      1.0  0.25322  0.12196  0.76463  1.0000
  C   C116      1.0  0.23232  0.12926  0.80321  1.0000
  C   C117      1.0  0.23052  0.12658  0.77809  1.0000
  H   H103      1.0  0.31143  0.14256  0.80669  1.0000
  H   H104      1.0  0.29782  0.13800  0.83786  1.0000
  H   H105      1.0  0.33224  0.13422  0.83088  1.0000
  H   H106      1.0  0.32467  0.11005  0.84654  1.0000
  H   H107      1.0  0.30041  0.10141  0.83135  1.0000
  H   H108      1.0  0.29002  0.11454  0.85131  1.0000
  H   H109      1.0  0.33208  0.12448  0.78091  1.0000
  H   H110      1.0  0.34853  0.11618  0.80776  1.0000
  H   H111      1.0  0.32688  0.10698  0.79110  1.0000
  H   H112      1.0  0.29482  0.11707  0.76418  1.0000
  H   H113      1.0  0.25727  0.12972  0.83438  1.0000
  H   H114      1.0  0.25179  0.12024  0.74486  1.0000
  H   H115      1.0  0.21466  0.13315  0.81337  1.0000
  H   H116      1.0  0.21162  0.12848  0.76879  1.0000
  N   N5        1.0  0.06492  0.09801  0.60736  1.0000
  H   H117      1.0  0.13489  0.09858  0.49085  1.0000
  H   H118      1.0  0.26729  0.22127  0.75586  1.0000
  H   H119      1.0  0.24810  0.00549  0.70795  1.0000
  C   C118      1.0  0.07130  0.10694  0.62670  1.0000
  C   C119      1.0  0.09174  0.10278  0.64397  1.0000
  C   C120      1.0  0.06470  0.12804  0.64742  1.0000
  H   H120      1.0  0.04387  0.22745  0.71403  1.0000
  H   H121      1.0  0.06809  0.02827  0.62749  1.0000
  S   S42       1.0  0.47554  0.02432  0.94546  1.0000
  C   C121      1.0  0.02147  0.00878  0.60909  1.0000
  C   C122      1.0  0.41402  0.00319  0.92693  1.0000
  S   S43       1.0  0.40276  0.03096  0.97232  1.0000
  H   H122      1.0  0.18469  0.01080  0.73123  1.0000
  H   H123      1.0  0.09566  0.00940  0.57438  1.0000
  C   C123      1.0  0.08495  0.12362  0.66398  1.0000
  C   C124      1.0  0.01273  0.05466  0.57751  1.0000
  C   C125      1.0  0.05780  0.08478  0.61997  1.0000
  H   H124      1.0  0.40563  0.21001  0.77041  1.0000
  H   H125      1.0  0.19506  0.00003  0.59305  1.0000
  C   C126      1.0  0.07251  0.22366  0.68288  1.0000
  C   C127      1.0  0.49657  0.06219  0.92727  1.0000
  H   H126      1.0  0.45927  0.00536  0.76399  1.0000
  C   C128      1.0  0.01256  0.13934  0.70900  1.0000
  C   C129      1.0  0.04542  0.01300  0.59659  1.0000
  H   H127      1.0  0.39449  0.11579  0.95627  1.0000
  N   N6        1.0  0.43128  0.99194  0.91715  1.0000
  H   H128      1.0  0.09076  0.13008  0.67783  1.0000
  C   C130      1.0  0.42297  0.99043  0.89109  1.0000
  C   C131      1.0  0.15551  0.23136  0.67304  1.0000
  C   C132      1.0  0.09824  0.11098  0.66239  1.0000
  H   H129      1.0  0.08439  0.08954  0.57479  1.0000
  H   H130      1.0  0.09018  0.01503  0.64214  1.0000
  C   C133      1.0  0.48752  0.16923  0.81550  1.0000
  H   H131      1.0  0.20497  0.01395  0.70284  1.0000
  H   H132      1.0  0.03266  0.20750  0.70368  1.0000
  H   H133      1.0  0.01641  0.02971  0.54388  1.0000
  H   H134      1.0  0.17240  0.00839  0.70069  1.0000
  H   H135      1.0  0.31104  0.23138  0.80337  1.0000
  H   H136      1.0  0.01943  0.08531  0.52758  1.0000
  C   C134      1.0  0.24744  0.99866  0.72499  1.0000
  C   C135      1.0  0.14649  0.09026  0.48178  1.0000
  H   H137      1.0  0.21662  0.20608  0.66191  1.0000
  C   C136      1.0  0.28970  0.20236  0.75181  1.0000
  C   C137      1.0  0.07111  0.01715  0.63215  1.0000
  H   H138      1.0  0.47494  0.07011  0.88316  1.0000
  C   C138      1.0  0.19047  0.00711  0.71246  1.0000
  H   H139      1.0  0.42035  0.10711  0.93915  1.0000
  H   H140      1.0  0.43500  0.18460  0.79744  1.0000
  C   C139      1.0  0.05787  0.11987  0.62896  1.0000
  C   C140      1.0  0.49227  0.06254  0.88215  1.0000
  H   H141      1.0  0.10583  0.09046  0.60022  1.0000
  C   C141      1.0  0.01187  0.16719  0.71048  1.0000
  C   C142      1.0  0.25011  0.21003  0.72858  1.0000
  H   H142      1.0  0.30775  0.18288  0.74426  1.0000
  H   H143      1.0  0.03494  0.20867  0.66957  1.0000
  N   N7        1.0  0.07136  0.00996  0.60893  1.0000
  H   H144      1.0  0.08147  0.20467  0.64820  1.0000
  N   N8        1.0  0.44408  0.20520  0.78652  1.0000
  H   H145      1.0  0.04698  0.11310  0.58015  1.0000
  C   C143      1.0  0.42618  0.20611  0.76480  1.0000
  H   H146      1.0  0.45833  0.22900  0.76099  1.0000
  H   H147      1.0  0.04483  0.19326  0.68810  1.0000
  H   H148      1.0  0.05499  0.01408  0.64603  1.0000
  C   C144      1.0  0.08903  0.23042  0.66408  1.0000
  H   H149      1.0  0.46952  0.17142  0.82665  1.0000
  H   H150      1.0  0.17370  0.10708  0.50469  1.0000
  H   H151      1.0  0.47218  0.19042  0.77093  1.0000
  H   H152      1.0  0.46144  0.00526  0.90281  1.0000
  H   H153      1.0  0.01134  0.17796  0.71156  1.0000
  C   C145      1.0  0.08872  0.20160  0.66756  1.0000
  H   H154      1.0  0.02369  0.10526  0.60314  1.0000
  S   S44       1.0  0.37280  0.06071  0.95288  1.0000
  C   C146      1.0  0.48656  0.16150  0.79492  1.0000
  H   H155      1.0  0.44749  0.19303  0.82221  1.0000
  C   C147      1.0  0.45178  0.99738  0.75348  1.0000
  S   S45       1.0  0.43690  0.05784  0.96257  1.0000
  H   H156      1.0  0.46366  0.10359  0.94766  1.0000
  C   C148      1.0  0.43640  0.22079  0.82202  1.0000
  H   H157      1.0  0.28383  0.23076  0.82635  1.0000
  C   C149      1.0  0.45213  0.22992  0.78055  1.0000
  H   H158      1.0  0.42848  0.11909  0.96062  1.0000
  H   H159      1.0  0.42949  0.21292  0.83555  1.0000
  H   H160      1.0  0.30422  0.20390  0.76564  1.0000
  H   H161      1.0  0.47932  0.20749  0.76193  1.0000
  C   C150      1.0  0.46591  0.09634  0.96401  1.0000
  H   H162      1.0  0.09402  0.02532  0.58839  1.0000
  H   H163      1.0  0.11438  0.10772  0.67502  1.0000
  H   H164      1.0  0.07225  0.20843  0.72799  1.0000
  C   C151      1.0  0.04230  0.10352  0.59143  1.0000
  C   C152      1.0  0.22460  0.99137  0.73187  1.0000
  N   N9        1.0  0.20133  0.99283  0.71536  1.0000
  H   H165      1.0  0.20642  0.10107  0.49443  1.0000
  H   H166      1.0  0.41370  0.19697  0.81210  1.0000
  C   C153      1.0  0.44420  0.21856  0.79654  1.0000
  H   H167      1.0  0.08540  0.19316  0.71592  1.0000
  C   C154      1.0  0.47146  0.20068  0.77782  1.0000
  H   H168      1.0  0.39307  0.00036  0.93050  1.0000
  H   H169      1.0  0.14988  0.23579  0.69052  1.0000
  C   C155      1.0  0.08427  0.20432  0.71202  1.0000
  H   H170      1.0  0.28748  0.00255  0.73391  1.0000
  H   H171      1.0  0.10488  0.20760  0.71285  1.0000
  C   C156      1.0  0.22986  0.20782  0.67742  1.0000
  H   H172      1.0  0.22139  0.21730  0.68498  1.0000
  H   H173      1.0  0.24989  0.20968  0.66858  1.0000
  H   H174      1.0  0.27575  0.17889  0.71359  1.0000
  C   C157      1.0  0.41516  0.11098  0.95785  1.0000
  H   H175      1.0  0.18953  0.19310  0.69729  1.0000
  H   H176      1.0  0.22205  0.18284  0.66941  1.0000
  C   C158      1.0  0.05637  0.23185  0.69886  1.0000
  H   H177      1.0  0.08781  0.19044  0.67094  1.0000
  H   H178      1.0  0.04234  0.12401  0.61649  1.0000
  N   N10       1.0  0.07274  0.20877  0.68708  1.0000
  H   H179      1.0  0.03771  0.09644  0.57744  1.0000
  N   N11       1.0  0.23149  0.19618  0.69711  1.0000
  C   C159      1.0  0.20508  0.19518  0.71042  1.0000
  C   C160      1.0  0.23721  0.18378  0.68379  1.0000
  H   H180      1.0  0.19804  0.20460  0.71898  1.0000
  H   H181      1.0  0.25700  0.18375  0.67356  1.0000
  H   H182      1.0  0.21993  0.07828  0.49516  1.0000
  C   C161      1.0  0.09461  0.01415  0.59256  1.0000
  H   H183      1.0  0.01073  0.04621  0.59165  1.0000
  H   H184      1.0  0.42119  0.00640  0.94476  1.0000
  H   H185      1.0  0.10238  0.22509  0.65131  1.0000
  H   H186      1.0  0.45426  0.99070  0.80446  1.0000
  H   H187      1.0  0.41340  0.01241  0.91333  1.0000
  C   C162      1.0  0.29173  0.19053  0.73968  1.0000
  H   H188      1.0  0.09549  0.10555  0.58120  1.0000
  H   H189      1.0  0.20578  0.18684  0.72597  1.0000
  H   H190      1.0  0.23652  0.17452  0.69718  1.0000
  H   H191      1.0  0.23413  0.21777  0.72519  1.0000
  Fe  Fe22      1.0  0.43783  0.03747  0.94847  1.0000
  C   C163      1.0  0.26891  0.21210  0.74628  1.0000
  C   C164      1.0  0.16877  0.99672  0.62603  1.0000
  H   H192      1.0  0.42340  0.00007  0.87868  1.0000
  H   H193      1.0  0.10334  0.09326  0.64302  1.0000
  H   H194      1.0  0.11026  0.20339  0.66775  1.0000
  C   C165      1.0  0.25173  0.19814  0.71568  1.0000
  C   C166      1.0  0.27308  0.18837  0.72192  1.0000
  C   C167      1.0  0.43643  0.23360  0.83067  1.0000
  C   C168      1.0  0.04509  0.20444  0.68710  1.0000
  H   H195      1.0  0.46671  0.99757  0.93403  1.0000
  H   H196      1.0  0.04180  0.08607  0.63485  1.0000
  H   H197      1.0  0.11388  0.01121  0.60184  1.0000
  H   H198      1.0  0.05970  0.02476  0.56209  1.0000
  H   H199      1.0  0.48564  0.20010  0.79352  1.0000
  H   H200      1.0  0.05458  0.13795  0.64878  1.0000
  H   H201      1.0  0.43325  0.21285  0.74843  1.0000
  C   C169      1.0  0.16905  0.23395  0.62869  1.0000
  H   H202      1.0  0.48642  0.08881  0.89846  1.0000
  H   H203      1.0  0.40449  0.08509  0.95621  1.0000
  C   C170      1.0  0.27009  0.99706  0.73971  1.0000
  H   H204      1.0  0.46176  0.99795  0.73429  1.0000
  H   H205      1.0  0.49468  0.99742  0.78713  1.0000
  H   H206      1.0  0.48055  0.07043  0.92867  1.0000
  H   H207      1.0  0.34963  0.99031  0.87057  1.0000
  C   C171      1.0  0.49142  0.08993  0.96734  1.0000
  H   H208      1.0  0.09588  0.99260  0.62425  1.0000
  S   S46       1.0  0.13381  0.99322  0.66722  1.0000
  H   H209      1.0  0.14596  0.08105  0.49521  1.0000
  H   H210      1.0  0.37759  0.09446  0.97139  1.0000
  C   C172      1.0  0.30076  0.23673  0.81897  1.0000
  H   H211      1.0  0.31506  0.23636  0.83455  1.0000
  N   N12       1.0  0.41707  0.09998  0.97878  1.0000
  C   C173      1.0  0.49778  0.03020  0.96558  1.0000
  C   C174      1.0  0.20978  0.98864  0.68997  1.0000
  H   H212      1.0  0.42971  0.23517  0.84998  1.0000
  H   H213      1.0  0.19254  0.98897  0.67737  1.0000
  H   H214      1.0  0.43986  0.98873  0.96825  1.0000
  H   H215      1.0  0.24214  0.05812  0.47984  1.0000
  Fe  Fe23      1.0  0.08781  0.45286  0.32913  1.0000
  S   S47       1.0  0.10121  0.46168  0.36365  1.0000
  S   S48       1.0  0.04249  0.45100  0.33724  1.0000
  Fe  Fe24      1.0  0.14677  0.45289  0.30495  1.0000
  S   S49       1.0  0.16188  0.46203  0.33819  1.0000
  S   S50       1.0  0.17578  0.44720  0.27141  1.0000
  Fe  Fe25      1.0  0.13734  0.44730  0.36223  1.0000
  S   S51       1.0  0.15632  0.43505  0.39598  1.0000
  Fe  Fe26      1.0  0.12399  0.47539  0.33649  1.0000
  S   S52       1.0  0.12339  0.43740  0.32936  1.0000
  S   S53       1.0  0.10959  0.46742  0.30173  1.0000
  H   H216      1.0  0.37017  0.43696  0.05086  1.0000
  Fe  Fe27      1.0  0.32503  0.44879  0.19559  1.0000
  S   S54       1.0  0.30878  0.44974  0.15663  1.0000
  S   S55       1.0  0.30028  0.44914  0.23375  1.0000
  Fe  Fe28      1.0  0.38395  0.45103  0.17299  1.0000
  S   S56       1.0  0.37055  0.45212  0.13283  1.0000
  S   S57       1.0  0.42639  0.45739  0.17881  1.0000
  Fe  Fe29      1.0  0.33664  0.46597  0.14558  1.0000
  Fe  Fe30      1.0  0.34411  0.43568  0.14678  1.0000
  S   S58       1.0  0.33456  0.41961  0.12156  1.0000
  S   S59       1.0  0.35104  0.46615  0.18484  1.0000
  S   S60       1.0  0.35920  0.43341  0.18669  1.0000
  H   H217      1.0  0.39775  0.44291  0.21940  1.0000
  C   C175      1.0  0.46829  0.43723  0.18553  1.0000
  H   H218      1.0  0.40001  0.47456  0.25199  1.0000
  S   S61       1.0  0.41023  0.39979  0.03091  1.0000
  H   H219      1.0  0.36707  0.44514  0.23787  1.0000
  H   H220      1.0  0.32315  0.47920  0.03919  1.0000
  C   C176      1.0  0.39224  0.46650  0.24185  1.0000
  C   C177      1.0  0.47061  0.43448  0.25900  1.0000
  C   C178      1.0  0.46063  0.45093  0.17973  1.0000
  C   C179      1.0  0.44860  0.46000  0.24135  1.0000
  C   C180      1.0  0.49966  0.39595  0.98194  1.0000
  H   H221      1.0  0.47524  0.47071  0.17181  1.0000
  H   H222      1.0  0.45318  0.43003  0.18853  1.0000
  C   C181      1.0  0.35565  0.41470  0.09590  1.0000
  C   C182      1.0  0.34482  0.40844  0.07641  1.0000
  C   C183      1.0  0.36113  0.40413  0.05601  1.0000
  C   C184      1.0  0.38855  0.40577  0.05526  1.0000
  C   C185      1.0  0.39931  0.41215  0.07462  1.0000
  C   C186      1.0  0.38290  0.41676  0.09469  1.0000
  H   H223      1.0  0.32376  0.40684  0.07722  1.0000
  H   H224      1.0  0.35264  0.39922  0.04122  1.0000
  H   H225      1.0  0.42049  0.41345  0.07418  1.0000
  H   H226      1.0  0.39147  0.42153  0.10960  1.0000
  H   H227      1.0  0.11932  0.46321  0.47231  1.0000
  H   H228      1.0  0.49425  0.39716  0.00161  1.0000
  H   H229      1.0  0.01035  0.47319  0.36445  1.0000
  H   H230      1.0  0.02333  0.44693  0.28673  1.0000
  C   C187      1.0  0.13830  0.45732  0.47740  1.0000
  C   C188      1.0  0.21016  0.44896  0.26059  1.0000
  C   C189      1.0  0.21866  0.44512  0.23640  1.0000
  C   C190      1.0  0.24567  0.44560  0.22746  1.0000
  C   C191      1.0  0.26506  0.44974  0.24273  1.0000
  C   C192      1.0  0.25652  0.45373  0.26680  1.0000
  C   C193      1.0  0.22941  0.45353  0.27550  1.0000
  H   H231      1.0  0.20422  0.44161  0.22448  1.0000
  H   H232      1.0  0.25158  0.44243  0.20897  1.0000
  H   H233      1.0  0.27104  0.45701  0.27891  1.0000
  H   H234      1.0  0.22355  0.45685  0.29386  1.0000
  C   C194      1.0  0.13650  0.43008  0.42320  1.0000
  C   C195      1.0  0.14879  0.42324  0.44452  1.0000
  H   H235      1.0  0.15521  0.46200  0.46651  1.0000
  H   H236      1.0  0.04455  0.47922  0.33873  1.0000
  C   C196      1.0  0.09350  0.42849  0.44569  1.0000
  C   C197      1.0  0.10879  0.43276  0.42395  1.0000
  H   H237      1.0  0.17021  0.42109  0.44408  1.0000
  C   C198      1.0  0.10575  0.42159  0.46694  1.0000
  H   H238      1.0  0.07206  0.43050  0.44594  1.0000
  H   H239      1.0  0.09910  0.43797  0.40763  1.0000
  Fe  Fe31      1.0  0.39718  0.39470  0.99261  1.0000
  H   H240      1.0  0.39601  0.44110  0.28905  1.0000
  H   H241      1.0  0.43094  0.42941  0.26879  1.0000
  H   H242      1.0  0.48921  0.46448  0.23121  1.0000
  H   H243      1.0  0.44151  0.46988  0.23327  1.0000
  H   H244      1.0  0.39840  0.46807  0.22141  1.0000
  C   C199      1.0  0.48720  0.44427  0.24852  1.0000
  H   H245      1.0  0.47924  0.42452  0.26534  1.0000
  H   H246      1.0  0.29623  0.39789  0.03376  1.0000
  C   C200      1.0  0.29711  0.37954  0.01536  1.0000
  C   C201      1.0  0.48079  0.46009  0.17620  1.0000
  C   C202      1.0  0.39174  0.45145  0.27982  1.0000
  C   C203      1.0  0.36020  0.44093  0.03380  1.0000
  N   N13       1.0  0.21054  0.42004  0.33073  1.0000
  C   C204      1.0  0.18330  0.41621  0.32612  1.0000
  C   C205      1.0  0.22035  0.41133  0.35315  1.0000
  C   C206      1.0  0.20810  0.43423  0.33699  1.0000
  C   C207      1.0  0.22950  0.41875  0.30876  1.0000
  C   C208      1.0  0.22164  0.41534  0.28486  1.0000
  C   C209      1.0  0.25664  0.42147  0.31061  1.0000
  C   C210      1.0  0.23995  0.41461  0.26433  1.0000
  C   C211      1.0  0.27472  0.42081  0.28988  1.0000
  C   C212      1.0  0.26639  0.41739  0.26680  1.0000
  H   H247      1.0  0.18355  0.40560  0.32131  1.0000
  H   H248      1.0  0.16967  0.41713  0.34314  1.0000
  H   H249      1.0  0.17394  0.42298  0.31050  1.0000
  H   H250      1.0  0.22366  0.40062  0.34883  1.0000
  H   H251      1.0  0.20582  0.41174  0.36964  1.0000
  H   H252      1.0  0.23934  0.41449  0.35982  1.0000
  H   H253      1.0  0.20048  0.44103  0.32065  1.0000
  H   H254      1.0  0.19400  0.43566  0.35346  1.0000
  H   H255      1.0  0.22740  0.43785  0.34189  1.0000
  H   H256      1.0  0.20126  0.41366  0.28117  1.0000
  H   H257      1.0  0.26390  0.42454  0.32788  1.0000
  H   H258      1.0  0.23334  0.41247  0.24604  1.0000
  H   H259      1.0  0.29509  0.42343  0.29137  1.0000
  H   H260      1.0  0.28019  0.41741  0.25050  1.0000
  N   N14       1.0  0.33660  0.45960  0.05676  1.0000
  H   H261      1.0  0.13515  0.48367  0.38667  1.0000
  C   C213      1.0  0.32671  0.45008  0.07768  1.0000
  C   C214      1.0  0.36161  0.46479  0.06451  1.0000
  C   C215      1.0  0.31636  0.47121  0.05359  1.0000
  H   H262      1.0  0.40120  0.45855  0.29108  1.0000
  H   H263      1.0  0.37018  0.47172  0.04910  1.0000
  C   C216      1.0  0.43104  0.45019  0.25172  1.0000
  H   H264      1.0  0.30920  0.44500  0.07205  1.0000
  H   H265      1.0  0.36967  0.45363  0.28146  1.0000
  H   H266      1.0  0.28992  0.41270  0.99398  1.0000
  H   H267      1.0  0.31247  0.47614  0.07151  1.0000
  H   H268      1.0  0.29684  0.46794  0.04826  1.0000
  H   H269      1.0  0.34216  0.44204  0.08376  1.0000
  H   H270      1.0  0.13725  0.44723  0.47034  1.0000
  H   H271      1.0  0.32065  0.45524  0.09500  1.0000
  C   C217      1.0  0.29603  0.37381  0.99237  1.0000
  H   H272      1.0  0.35815  0.47046  0.08161  1.0000
  H   H273      1.0  0.37713  0.45654  0.06949  1.0000
  C   C218      1.0  0.33001  0.45696  0.01005  1.0000
  C   C219      1.0  0.38909  0.44289  0.23908  1.0000
  H   H274      1.0  0.30050  0.37313  0.03277  1.0000
  C   C220      1.0  0.34203  0.45254  0.03352  1.0000
  C   C221      1.0  0.36591  0.43416  0.01208  1.0000
  C   C222      1.0  0.29101  0.40182  0.99362  1.0000
  N   N15       1.0  0.40161  0.45283  0.25301  1.0000
  C   C223      1.0  0.01030  0.44920  0.32534  1.0000
  C   C224      1.0  0.44296  0.43738  0.26076  1.0000
  H   H275      1.0  0.39205  0.43241  0.24807  1.0000
  H   H276      1.0  0.47408  0.36536  0.98813  1.0000
  H   H277      1.0  0.37003  0.46807  0.24275  1.0000
  H   H278      1.0  0.31608  0.46571  0.00780  1.0000
  H   H279      1.0  0.37991  0.42533  0.01273  1.0000
  H   H280      1.0  0.49448  0.43130  0.12992  1.0000
  C   C225      1.0  0.33583  0.45006  0.98846  1.0000
  C   C226      1.0  0.29469  0.39351  0.01598  1.0000
  S   S62       1.0  0.32237  0.48416  0.11998  1.0000
  C   C227      1.0  0.47624  0.45702  0.23997  1.0000
  C   C228      1.0  0.00635  0.44744  0.29993  1.0000
  H   H281      1.0  0.37763  0.48464  0.13312  1.0000
  C   C229      1.0  0.49556  0.43290  0.18844  1.0000
  C   C230      1.0  0.35371  0.43869  0.98949  1.0000
  H   H282      1.0  0.47999  0.42402  0.08960  1.0000
  C   C231      1.0  0.13350  0.41905  0.46637  1.0000
  H   H283      1.0  0.04171  0.40280  0.47856  1.0000
  H   H284      1.0  0.04996  0.47739  0.38400  1.0000
  C   C232      1.0  0.00090  0.41729  0.45389  1.0000
  S   S63       1.0  0.35749  0.38942  0.98020  1.0000
  H   H285      1.0  0.29880  0.36295  0.99325  1.0000
  H   H286      1.0  0.02199  0.41888  0.45220  1.0000
  C   C233      1.0  0.05324  0.48834  0.38250  1.0000
  H   H287      1.0  0.10057  0.45478  0.51576  1.0000
  C   C234      1.0  0.01531  0.41087  0.59557  1.0000
  S   S64       1.0  0.13278  0.45959  0.68418  1.0000
  C   C235      1.0  0.27864  0.25745  0.83169  1.0000
  H   H288      1.0  0.04053  0.39581  0.51046  1.0000
  S   S65       1.0  0.37253  0.46113  0.84455  1.0000
  Fe  Fe32      1.0  0.12705  0.38581  0.56948  1.0000
  S   S66       1.0  0.12026  0.39832  0.60254  1.0000
  S   S67       1.0  0.14224  0.36365  0.57244  1.0000
  Fe  Fe33      1.0  0.10174  0.40808  0.53171  1.0000
  S   S68       1.0  0.09200  0.42185  0.56227  1.0000
  Fe  Fe34      1.0  0.13316  0.41552  0.57519  1.0000
  S   S69       1.0  0.15716  0.43313  0.58088  1.0000
  Fe  Fe35      1.0  0.07990  0.40362  0.58650  1.0000
  S   S70       1.0  0.04233  0.40195  0.61071  1.0000
  S   S71       1.0  0.14387  0.40261  0.54312  1.0000
  S   S72       1.0  0.08565  0.39023  0.55496  1.0000
  Fe  Fe36      1.0  0.36485  0.40425  0.94642  1.0000
  H   H289      1.0  0.40793  0.33593  0.80871  1.0000
  S   S73       1.0  0.33245  0.41998  0.93395  1.0000
  Fe  Fe37      1.0  0.42217  0.39375  0.93932  1.0000
  Fe  Fe38      1.0  0.38018  0.37438  0.95654  1.0000
  S   S74       1.0  0.36995  0.35264  0.95489  1.0000
  S   S75       1.0  0.38460  0.38891  0.92195  1.0000
  Fe  Fe39      1.0  0.35984  0.30598  0.83867  1.0000
  S   S76       1.0  0.37126  0.30958  0.79728  1.0000
  S   S77       1.0  0.34774  0.32642  0.85343  1.0000
  Fe  Fe40      1.0  0.37135  0.27550  0.83632  1.0000
  S   S78       1.0  0.38404  0.27762  0.79508  1.0000
  S   S79       1.0  0.37200  0.25499  0.85890  1.0000
  Fe  Fe41      1.0  0.40665  0.29485  0.80560  1.0000
  S   S80       1.0  0.44771  0.30231  0.79324  1.0000
  Fe  Fe42      1.0  0.34720  0.29208  0.79132  1.0000
  S   S81       1.0  0.31880  0.29199  0.75843  1.0000
  S   S82       1.0  0.39604  0.29190  0.84720  1.0000
  S   S83       1.0  0.33366  0.28924  0.83219  1.0000
  Fe  Fe43      1.0  0.14867  0.27244  0.67864  1.0000
  S   S84       1.0  0.13991  0.26611  0.71951  1.0000
  S   S85       1.0  0.16137  0.25764  0.64979  1.0000
  Fe  Fe44      1.0  0.13707  0.30255  0.68508  1.0000
  S   S86       1.0  0.12713  0.29781  0.72670  1.0000
  S   S87       1.0  0.13398  0.32543  0.67536  1.0000
  Fe  Fe45      1.0  0.16400  0.28348  0.72703  1.0000
  S   S88       1.0  0.19362  0.28280  0.75911  1.0000
  Fe  Fe46      1.0  0.10407  0.28114  0.71481  1.0000
  S   S89       1.0  0.06315  0.27505  0.73080  1.0000
  S   S90       1.0  0.17497  0.28895  0.68615  1.0000
  S   S91       1.0  0.11178  0.28665  0.67329  1.0000
  H   H290      1.0  0.14314  0.41368  0.48257  1.0000
  H   H291      1.0  0.02893  0.47853  0.72558  1.0000
  C   C236      1.0  0.29370  0.36141  0.94614  1.0000
  C   C237      1.0  0.03123  0.28125  0.71965  1.0000
  C   C238      1.0  0.02829  0.29107  0.69914  1.0000
  H   H292      1.0  0.44292  0.25450  0.82108  1.0000
  H   H293      1.0  0.04581  0.29507  0.68951  1.0000
  H   H294      1.0  0.26286  0.25152  0.84159  1.0000
  H   H295      1.0  0.41515  0.35253  0.81536  1.0000
  H   H296      1.0  0.37582  0.25026  0.80559  1.0000
  C   C239      1.0  0.47997  0.29445  0.79990  1.0000
  C   C240      1.0  0.49216  0.44245  0.89085  1.0000
  C   C241      1.0  0.48426  0.28050  0.80557  1.0000
  C   C242      1.0  0.42677  0.34080  0.88799  1.0000
  H   H297      1.0  0.46748  0.27429  0.80686  1.0000
  C   C243      1.0  0.28378  0.28980  0.75899  1.0000
  C   C244      1.0  0.27096  0.28953  0.73596  1.0000
  C   C245      1.0  0.24341  0.28757  0.73556  1.0000
  C   C246      1.0  0.22828  0.28577  0.75826  1.0000
  C   C247      1.0  0.24104  0.28620  0.78126  1.0000
  C   C248      1.0  0.26850  0.28829  0.78165  1.0000
  H   H298      1.0  0.28247  0.29077  0.71829  1.0000
  H   H299      1.0  0.23403  0.28716  0.71772  1.0000
  H   H300      1.0  0.22954  0.28493  0.79893  1.0000
  H   H301      1.0  0.27783  0.28882  0.79947  1.0000
  C   C249      1.0  0.42842  0.34931  0.90724  1.0000
  H   H302      1.0  0.42231  0.34598  0.92654  1.0000
  C   C250      1.0  0.36513  0.34543  0.92625  1.0000
  C   C251      1.0  0.36037  0.35344  0.90359  1.0000
  C   C252      1.0  0.35523  0.34742  0.88152  1.0000
  C   C253      1.0  0.35568  0.33331  0.88157  1.0000
  C   C254      1.0  0.36133  0.32526  0.90400  1.0000
  C   C255      1.0  0.36564  0.33131  0.92632  1.0000
  H   H303      1.0  0.36047  0.36427  0.90306  1.0000
  H   H304      1.0  0.35091  0.35374  0.86426  1.0000
  H   H305      1.0  0.36152  0.31439  0.90436  1.0000
  H   H306      1.0  0.36933  0.32502  0.94375  1.0000
  H   H307      1.0  0.08044  0.35889  0.59130  1.0000
  C   C256      1.0  0.01891  0.42296  0.58064  1.0000
  H   H308      1.0  0.02058  0.36045  0.59933  1.0000
  H   H309      1.0  0.03819  0.42711  0.57915  1.0000
  C   C257      1.0  0.27305  0.25067  0.78934  1.0000
  C   C258      1.0  0.14173  0.35307  0.60125  1.0000
  C   C259      1.0  0.14453  0.33897  0.60062  1.0000
  C   C260      1.0  0.14270  0.33026  0.62313  1.0000
  C   C261      1.0  0.13835  0.33564  0.64648  1.0000
  C   C262      1.0  0.13633  0.34972  0.64714  1.0000
  C   C263      1.0  0.13786  0.35840  0.62467  1.0000
  H   H310      1.0  0.14765  0.33475  0.58258  1.0000
  H   H311      1.0  0.14432  0.31944  0.62233  1.0000
  H   H312      1.0  0.13310  0.35398  0.66513  1.0000
  H   H313      1.0  0.13601  0.36921  0.62547  1.0000
  N   N16       1.0  0.00541  0.40854  0.49973  1.0000
  C   C264      1.0  0.36188  0.45014  0.87034  1.0000
  C   C265      1.0  0.34005  0.45383  0.88613  1.0000
  C   C266      1.0  0.33097  0.44452  0.90561  1.0000
  C   C267      1.0  0.34416  0.43166  0.90980  1.0000
  C   C268      1.0  0.36638  0.42813  0.89441  1.0000
  C   C269      1.0  0.37493  0.43727  0.87448  1.0000
  H   H314      1.0  0.32987  0.46375  0.88305  1.0000
  H   H315      1.0  0.31382  0.44731  0.91753  1.0000
  H   H316      1.0  0.37672  0.41826  0.89754  1.0000
  H   H317      1.0  0.39183  0.43437  0.86235  1.0000
  C   C270      1.0  0.47965  0.39637  0.96431  1.0000
  H   H318      1.0  0.30411  0.44672  0.79549  1.0000
  C   C271      1.0  0.13956  0.45252  0.65520  1.0000
  C   C272      1.0  0.13166  0.43955  0.65262  1.0000
  C   C273      1.0  0.13646  0.43368  0.62969  1.0000
  C   C274      1.0  0.15000  0.44056  0.60945  1.0000
  C   C275      1.0  0.15818  0.45348  0.61210  1.0000
  C   C276      1.0  0.15260  0.45955  0.63481  1.0000
  H   H319      1.0  0.12176  0.43403  0.66841  1.0000
  H   H320      1.0  0.13029  0.42368  0.62789  1.0000
  H   H321      1.0  0.16896  0.45880  0.59665  1.0000
  H   H322      1.0  0.15891  0.46952  0.63671  1.0000
  N   N17       1.0  0.31197  0.46767  0.78592  1.0000
  C   C277      1.0  0.01634  0.42093  0.50711  1.0000
  C   C278      1.0  0.31596  0.25814  0.80222  1.0000
  C   C279      1.0  0.30308  0.47125  0.81158  1.0000
  C   C280      1.0  0.28974  0.47084  0.76837  1.0000
  C   C281      1.0  0.43714  0.36220  0.90172  1.0000
  C   C282      1.0  0.48638  0.34311  0.94374  1.0000
  H   H323      1.0  0.17107  0.44607  0.53082  1.0000
  H   H324      1.0  0.14762  0.48289  0.57245  1.0000
  H   H325      1.0  0.47427  0.33147  0.83904  1.0000
  H   H326      1.0  0.43828  0.36877  0.91672  1.0000
  H   H327      1.0  0.26270  0.45723  0.78921  1.0000
  C   C283      1.0  0.12003  0.44878  0.51771  1.0000
  H   H328      1.0  0.08178  0.45275  0.66550  1.0000
  H   H329      1.0  0.26622  0.39244  0.92611  1.0000
  C   C284      1.0  0.03069  0.43636  0.64695  1.0000
  H   H330      1.0  0.20873  0.24323  0.78004  1.0000
  C   C285      1.0  0.26541  0.46448  0.77302  1.0000
  H   H331      1.0  0.02900  0.41876  0.52396  1.0000
  H   H332      1.0  0.45903  0.39811  0.97049  1.0000
  H   H333      1.0  0.29674  0.48219  0.81116  1.0000
  N   N18       1.0  0.05362  0.35920  0.62435  1.0000
  C   C286      1.0  0.07163  0.35189  0.60653  1.0000
  H   H334      1.0  0.01927  0.37351  0.62105  1.0000
  C   C287      1.0  0.06897  0.36897  0.63603  1.0000
  C   C288      1.0  0.04289  0.34947  0.64441  1.0000
  H   H335      1.0  0.32615  0.44982  0.76831  1.0000
  H   H336      1.0  0.24093  0.24219  0.81341  1.0000
  C   C289      1.0  0.05682  0.24590  0.69627  1.0000
  H   H337      1.0  0.05597  0.37495  0.64905  1.0000
  H   H338      1.0  0.45742  0.25132  0.77673  1.0000
  H   H339      1.0  0.11820  0.43902  0.50951  1.0000
  H   H340      1.0  0.06090  0.34441  0.59735  1.0000
  H   H341      1.0  0.41931  0.33106  0.89366  1.0000
  H   H342      1.0  0.31937  0.46902  0.82529  1.0000
  H   H343      1.0  0.31548  0.39205  0.92523  1.0000
  C   C290      1.0  0.16769  0.44821  0.51017  1.0000
  H   H344      1.0  0.08574  0.36398  0.64711  1.0000
  H   H345      1.0  0.07786  0.37629  0.62145  1.0000
  H   H346      1.0  0.04162  0.37421  0.59416  1.0000
  H   H347      1.0  0.45703  0.32837  0.81148  1.0000
  H   H348      1.0  0.44035  0.31726  0.86313  1.0000
  H   H349      1.0  0.31270  0.35699  0.95455  1.0000
  N   N19       1.0  0.29186  0.25081  0.81005  1.0000
  C   C291      1.0  0.33605  0.47507  0.77831  1.0000
  C   C292      1.0  0.00579  0.33877  0.66821  1.0000
  H   H350      1.0  0.32651  0.45352  0.97071  1.0000
  H   H351      1.0  0.02053  0.38935  0.48754  1.0000
  H   H352      1.0  0.49914  0.31315  0.79334  1.0000
  C   C293      1.0  0.37297  0.24083  0.81663  1.0000
  H   H353      1.0  0.34427  0.47266  0.75933  1.0000
  C   C294      1.0  0.01478  0.45152  0.67835  1.0000
  H   H354      1.0  0.04491  0.25194  0.70914  1.0000
  C   C295      1.0  0.27977  0.25489  0.76361  1.0000
  C   C296      1.0  0.07346  0.25220  0.67791  1.0000
  C   C297      1.0  0.44382  0.24455  0.81435  1.0000
  C   C298      1.0  0.00992  0.44190  0.66182  1.0000
  C   C299      1.0  0.26129  0.25492  0.74464  1.0000
  H   H355      1.0  0.07437  0.26307  0.67657  1.0000
  H   H356      1.0  0.33163  0.48620  0.77803  1.0000
  H   H357      1.0  0.29355  0.35750  0.92715  1.0000
  H   H358      1.0  0.22102  0.25157  0.73607  1.0000
  C   C300      1.0  0.06054  0.34095  0.66009  1.0000
  C   C301      1.0  0.31529  0.38087  0.92828  1.0000
  C   C302      1.0  0.24593  0.47693  0.73613  1.0000
  H   H359      1.0  0.33757  0.45046  0.79989  1.0000
  H   H360      1.0  0.18498  0.45358  0.50162  1.0000
  H   H361      1.0  0.29305  0.25883  0.84650  1.0000
  H   H362      1.0  0.28782  0.40315  0.95369  1.0000
  H   H363      1.0  0.32865  0.25300  0.78783  1.0000
  S   S92       1.0  0.40297  0.41057  0.96030  1.0000
  C   C303      1.0  0.29237  0.38203  0.96916  1.0000
  H   H364      1.0  0.48496  0.42352  0.91220  1.0000
  H   H365      1.0  0.14601  0.46123  0.55495  1.0000
  H   H366      1.0  0.26568  0.37667  0.91319  1.0000
  C   C304      1.0  0.03271  0.36710  0.60912  1.0000
  C   C305      1.0  0.06144  0.45004  0.66483  1.0000
  C   C306      1.0  0.16188  0.23980  0.65115  1.0000
  H   H367      1.0  0.00196  0.25607  0.65139  1.0000
  H   H368      1.0  0.01018  0.26856  0.74774  1.0000
  C   C307      1.0  0.05638  0.44048  0.64836  1.0000
  C   C308      1.0  0.24725  0.24594  0.79451  1.0000
  H   H369      1.0  0.42459  0.31616  0.83394  1.0000
  C   C309      1.0  0.44221  0.35835  0.85735  1.0000
  C   C310      1.0  0.22878  0.24624  0.77545  1.0000
  C   C311      1.0  0.45179  0.24271  0.78937  1.0000
  H   H370      1.0  0.31569  0.37705  0.90921  1.0000
  H   H371      1.0  0.06507  0.32520  0.69065  1.0000
  C   C312      1.0  0.14486  0.47026  0.54194  1.0000
  C   C313      1.0  0.00257  0.29596  0.69140  1.0000
  C   C314      1.0  0.02338  0.47124  0.71241  1.0000
  C   C315      1.0  0.32023  0.45304  0.78741  1.0000
  N   N20       1.0  0.29212  0.37641  0.94429  1.0000
  H   H372      1.0  0.24933  0.37903  0.94351  1.0000
  C   C316      1.0  0.23571  0.25085  0.75061  1.0000
  N   N21       1.0  0.20675  0.32631  0.70990  1.0000
  C   C317      1.0  0.21012  0.31874  0.68706  1.0000
  C   C318      1.0  0.18603  0.31992  0.72682  1.0000
  C   C319      1.0  0.19649  0.34034  0.70210  1.0000
  C   C320      1.0  0.23276  0.32642  0.72196  1.0000
  C   C321      1.0  0.23681  0.32164  0.74775  1.0000
  C   C322      1.0  0.25508  0.33147  0.70779  1.0000
  C   C323      1.0  0.26178  0.32174  0.75833  1.0000
  C   C324      1.0  0.28007  0.33129  0.71848  1.0000
  C   C325      1.0  0.28344  0.32634  0.74366  1.0000
  H   H373      1.0  0.21907  0.30833  0.69192  1.0000
  H   H374      1.0  0.19067  0.31792  0.67821  1.0000
  H   H375      1.0  0.22299  0.32367  0.67194  1.0000
  H   H376      1.0  0.16685  0.31981  0.71720  1.0000
  H   H377      1.0  0.18135  0.32543  0.74390  1.0000
  H   H378      1.0  0.19224  0.30921  0.73292  1.0000
  H   H379      1.0  0.20983  0.34550  0.68765  1.0000
  H   H380      1.0  0.17657  0.34063  0.69350  1.0000
  H   H381      1.0  0.19426  0.34647  0.71863  1.0000
  H   H382      1.0  0.22125  0.31744  0.76005  1.0000
  H   H383      1.0  0.25344  0.33545  0.68821  1.0000
  H   H384      1.0  0.26464  0.31776  0.77785  1.0000
  H   H385      1.0  0.29702  0.33485  0.70713  1.0000
  H   H386      1.0  0.30297  0.32585  0.75177  1.0000
  N   N22       1.0  0.04720  0.46550  0.69851  1.0000
  C   C326      1.0  0.06544  0.45857  0.71762  1.0000
  C   C327      1.0  0.06060  0.47696  0.68484  1.0000
  H   H387      1.0  0.33428  0.37703  0.93727  1.0000
  C   C328      1.0  0.04088  0.45583  0.68045  1.0000
  H   H388      1.0  0.12304  0.44607  0.53827  1.0000
  C   C329      1.0  0.14280  0.46954  0.51548  1.0000
  H   H389      1.0  0.28608  0.46555  0.81959  1.0000
  H   H390      1.0  0.04812  0.48216  0.66953  1.0000
  C   C330      1.0  0.26726  0.38135  0.93126  1.0000
  H   H391      1.0  0.08435  0.45440  0.70882  1.0000
  H   H392      1.0  0.07131  0.46558  0.73121  1.0000
  H   H393      1.0  0.05609  0.44997  0.72858  1.0000
  H   H394      1.0  0.22520  0.46288  0.76137  1.0000
  C   C331      1.0  0.05105  0.33164  0.67908  1.0000
  H   H395      1.0  0.08027  0.47378  0.67613  1.0000
  C   C332      1.0  0.14210  0.48199  0.49988  1.0000
  H   H396      1.0  0.35816  0.43340  0.97270  1.0000
  H   H397      1.0  0.32886  0.25889  0.81849  1.0000
  H   H398      1.0  0.47188  0.44406  0.88439  1.0000
  H   H399      1.0  0.27666  0.35730  0.95769  1.0000
  H   H400      1.0  0.44714  0.36245  0.83829  1.0000
  Fe  Fe47      1.0  0.13709  0.48188  0.68499  1.0000
  H   H401      1.0  0.35240  0.47238  0.79185  1.0000
  N   N23       1.0  0.43187  0.33640  0.84139  1.0000
  C   C333      1.0  0.41069  0.34240  0.82431  1.0000
  C   C334      1.0  0.45761  0.33538  0.82660  1.0000
  C   C335      1.0  0.42525  0.32243  0.85012  1.0000
  C   C336      1.0  0.43383  0.34504  0.86236  1.0000
  S   S93       1.0  0.08549  0.41628  0.49359  1.0000
  C   C337      1.0  0.44399  0.36673  0.87684  1.0000
  S   S94       1.0  0.46107  0.39491  0.91713  1.0000
  H   H402      1.0  0.08882  0.34626  0.61607  1.0000
  H   H403      1.0  0.47591  0.33714  0.93190  1.0000
  H   H404      1.0  0.08192  0.34138  0.65784  1.0000
  H   H405      1.0  0.39112  0.34352  0.83487  1.0000
  H   H406      1.0  0.40514  0.32220  0.85968  1.0000
  H   H407      1.0  0.46285  0.34519  0.81672  1.0000
  H   H408      1.0  0.26936  0.26760  0.82522  1.0000
  C   C338      1.0  0.47198  0.35105  0.96058  1.0000
  H   H409      1.0  0.31053  0.26865  0.79437  1.0000
  H   H410      1.0  0.07258  0.43612  0.63684  1.0000
  C   C339      1.0  0.00814  0.27613  0.73179  1.0000
  C   C340      1.0  0.37159  0.24022  0.84306  1.0000
  C   C341      1.0  0.02788  0.39869  0.49379  1.0000
  H   H411      1.0  0.26647  0.25871  0.72535  1.0000
  H   H412      1.0  0.45045  0.37688  0.87275  1.0000
  S   S95       1.0  0.41932  0.37817  0.97236  1.0000
  H   H413      1.0  0.29887  0.25865  0.75769  1.0000
  C   C342      1.0  0.24385  0.46757  0.75717  1.0000
  C   C343      1.0  0.48633  0.39467  0.93890  1.0000
  N   N24       1.0  0.14216  0.45627  0.50517  1.0000
  H   H414      1.0  0.16816  0.43821  0.50237  1.0000
  H   H415      1.0  0.02697  0.42877  0.63444  1.0000
  H   H416      1.0  0.06482  0.48466  0.69776  1.0000
  H   H417      1.0  0.00897  0.47686  0.69919  1.0000
  H   H418      1.0  0.01301  0.46332  0.72437  1.0000
  H   H419      1.0  0.17406  0.24032  0.61172  1.0000
  C   C344      1.0  0.29117  0.48037  0.74671  1.0000
  Fe  Fe48      1.0  0.36351  0.48333  0.84761  1.0000
  C   C345      1.0  0.28979  0.39621  0.97056  1.0000
  C   C346      1.0  0.01508  0.34813  0.64910  1.0000
  C   C347      1.0  0.02373  0.33058  0.68320  1.0000
  H   H420      1.0  0.30845  0.48601  0.74190  1.0000
  H   H421      1.0  0.22891  0.47957  0.72425  1.0000
  H   H422      1.0  0.01643  0.32339  0.69805  1.0000
  H   H423      1.0  0.02933  0.42570  0.49184  1.0000
  H   H424      1.0  0.10291  0.24945  0.64793  1.0000
  C   C348      1.0  0.08947  0.24450  0.66181  1.0000
  H   H425      1.0  0.45038  0.35123  0.96198  1.0000
  C   C349      1.0  0.26957  0.48323  0.73083  1.0000
  C   C350      1.0  0.14589  0.48262  0.55217  1.0000
  C   C351      1.0  0.48535  0.35892  0.97548  1.0000
  H   H426      1.0  0.14097  0.48256  0.47951  1.0000
  H   H427      1.0  0.00324  0.40009  0.53881  1.0000
  H   H428      1.0  0.00031  0.43917  0.55632  1.0000
  C   C352      1.0  0.49946  0.43088  0.90653  1.0000
  H   H429      1.0  0.00056  0.30368  0.67571  1.0000
  Fe  Fe49      1.0  0.12538  0.54045  0.45037  1.0000
  C   C353      1.0  0.42907  0.61827  0.05788  1.0000
  S   S96       1.0  0.13464  0.51825  0.44619  1.0000
  Fe  Fe50      1.0  0.08541  0.56468  0.44482  1.0000
  C   C354      1.0  0.28219  0.52688  0.10444  1.0000
  S   S97       1.0  0.04819  0.57461  0.42784  1.0000
  Fe  Fe51      1.0  0.14232  0.56909  0.45263  1.0000
  S   S98       1.0  0.17396  0.58415  0.44561  1.0000
  C   C355      1.0  0.41371  0.72292  0.22970  1.0000
  S   S99       1.0  0.12296  0.55909  0.42265  1.0000
  H   H430      1.0  0.01858  0.67739  0.25849  1.0000
  S   S100      1.0  0.45843  0.57685  0.02175  1.0000
  Fe  Fe52      1.0  0.36838  0.57162  0.06645  1.0000
  S   S101      1.0  0.40892  0.56246  0.07657  1.0000
  S   S102      1.0  0.34435  0.58508  0.09274  1.0000
  C   C356      1.0  0.12242  0.72786  0.31628  1.0000
  C   C357      1.0  0.46147  0.62892  0.17730  1.0000
  Fe  Fe53      1.0  0.39560  0.54375  0.06213  1.0000
  S   S103      1.0  0.41044  0.52444  0.08403  1.0000
  S   S104      1.0  0.35364  0.55235  0.05472  1.0000
  Fe  Fe54      1.0  0.41124  0.65768  0.21725  1.0000
  S   S105      1.0  0.41106  0.66089  0.17517  1.0000
  S   S106      1.0  0.44946  0.65748  0.23897  1.0000
  Fe  Fe55      1.0  0.34957  0.65623  0.22142  1.0000
  S   S107      1.0  0.34595  0.65928  0.17876  1.0000
  S   S108      1.0  0.31735  0.65499  0.25358  1.0000
  Fe  Fe56      1.0  0.38241  0.64448  0.17729  1.0000
  S   S109      1.0  0.39843  0.62761  0.15306  1.0000
  Fe  Fe57      1.0  0.37526  0.67526  0.18071  1.0000
  S   S110      1.0  0.37792  0.69578  0.15869  1.0000
  S   S111      1.0  0.38442  0.64053  0.21975  1.0000
  S   S112      1.0  0.37704  0.67303  0.22296  1.0000
  Fe  Fe58      1.0  0.10002  0.65311  0.31265  1.0000
  S   S113      1.0  0.10316  0.66448  0.34678  1.0000
  S   S114      1.0  0.06192  0.64424  0.30163  1.0000
  Fe  Fe59      1.0  0.16002  0.65626  0.29589  1.0000
  S   S115      1.0  0.16648  0.66803  0.32880  1.0000
  S   S116      1.0  0.19001  0.65245  0.26296  1.0000
  Fe  Fe60      1.0  0.14266  0.65231  0.35157  1.0000
  S   S117      1.0  0.15905  0.64353  0.38941  1.0000
  Fe  Fe61      1.0  0.12645  0.67898  0.32087  1.0000
  S   S118      1.0  0.11396  0.70136  0.31248  1.0000
  S   S119      1.0  0.13822  0.63999  0.31895  1.0000
  S   S120      1.0  0.12136  0.66803  0.28652  1.0000
  H   H431      1.0  0.07970  0.66599  0.22600  1.0000
  C   C358      1.0  0.31554  0.53993  0.12177  1.0000
  C   C359      1.0  0.12806  0.71448  0.32641  1.0000
  C   C360      1.0  0.10173  0.69522  0.24391  1.0000
  H   H432      1.0  0.27713  0.55926  0.07807  1.0000
  N   N25       1.0  0.49542  0.53292  0.05965  1.0000
  C   C361      1.0  0.15313  0.72281  0.35913  1.0000
  C   C362      1.0  0.14371  0.71197  0.34773  1.0000
  H   H433      1.0  0.47902  0.61204  0.23338  1.0000
  H   H434      1.0  0.16488  0.72080  0.37586  1.0000
  H   H435      1.0  0.14816  0.70170  0.35571  1.0000
  C   C363      1.0  0.02880  0.65179  0.30273  1.0000
  H   H436      1.0  0.48757  0.62838  0.21961  1.0000
  C   C364      1.0  0.49079  0.60894  0.18430  1.0000
  H   H437      1.0  0.48065  0.69939  0.20814  1.0000
  H   H438      1.0  0.06754  0.51069  0.35463  1.0000
  C   C365      1.0  0.36878  0.71042  0.17423  1.0000
  C   C366      1.0  0.35083  0.71005  0.19510  1.0000
  C   C367      1.0  0.34232  0.72200  0.20600  1.0000
  H   H439      1.0  0.37907  0.54638  0.13456  1.0000
  H   H440      1.0  0.41203  0.50050  0.11858  1.0000
  C   C368      1.0  0.37905  0.72274  0.16505  1.0000
  H   H441      1.0  0.34276  0.70062  0.20229  1.0000
  H   H442      1.0  0.32776  0.72169  0.22164  1.0000
  H   H443      1.0  0.39302  0.72309  0.14895  1.0000
  N   N26       1.0  0.33797  0.54115  0.13843  1.0000
  H   H444      1.0  0.01126  0.59837  0.41748  1.0000
  H   H445      1.0  0.44192  0.63133  0.11336  1.0000
  C   C369      1.0  0.28175  0.65506  0.25511  1.0000
  C   C370      1.0  0.26698  0.65268  0.23441  1.0000
  C   C371      1.0  0.23896  0.65210  0.23708  1.0000
  C   C372      1.0  0.22521  0.65411  0.26030  1.0000
  C   C373      1.0  0.23992  0.65675  0.28085  1.0000
  C   C374      1.0  0.26797  0.65708  0.27832  1.0000
  H   H446      1.0  0.27719  0.65104  0.21648  1.0000
  H   H447      1.0  0.22788  0.65000  0.22105  1.0000
  H   H448      1.0  0.22974  0.65848  0.29875  1.0000
  H   H449      1.0  0.27913  0.65898  0.29444  1.0000
  C   C375      1.0  0.37296  0.49293  0.11895  1.0000
  C   C376      1.0  0.48843  0.59751  0.17066  1.0000
  H   H450      1.0  0.45303  0.57985  0.07583  1.0000
  C   C377      1.0  0.35934  0.59634  0.11090  1.0000
  C   C378      1.0  0.34331  0.60651  0.12203  1.0000
  C   C379      1.0  0.35477  0.61604  0.13549  1.0000
  C   C380      1.0  0.38241  0.61544  0.13798  1.0000
  C   C381      1.0  0.39836  0.60508  0.12732  1.0000
  C   C382      1.0  0.38694  0.59558  0.11391  1.0000
  H   H451      1.0  0.32192  0.60717  0.11992  1.0000
  H   H452      1.0  0.34224  0.62394  0.14362  1.0000
  H   H453      1.0  0.41976  0.60447  0.12921  1.0000
  H   H454      1.0  0.39956  0.58777  0.10566  1.0000
  C   C383      1.0  0.38635  0.51283  0.09278  1.0000
  C   C384      1.0  0.39241  0.50191  0.11072  1.0000
  H   H455      1.0  0.02076  0.70123  0.24693  1.0000
  H   H456      1.0  0.39586  0.71745  0.23095  1.0000
  C   C385      1.0  0.34166  0.50550  0.09067  1.0000
  C   C386      1.0  0.36100  0.51456  0.08262  1.0000
  H   H457      1.0  0.14078  0.49189  0.42874  1.0000
  H   H458      1.0  0.43924  0.69848  0.26879  1.0000
  H   H459      1.0  0.32206  0.50687  0.08276  1.0000
  H   H460      1.0  0.35627  0.52283  0.06851  1.0000
  H   H461      1.0  0.27334  0.51734  0.10368  1.0000
  C   C387      1.0  0.01366  0.72850  0.35276  1.0000
  C   C388      1.0  0.03639  0.54913  0.41941  1.0000
  H   H462      1.0  0.39769  0.61049  0.00499  1.0000
  H   H463      1.0  0.05763  0.54643  0.41978  1.0000
  C   C389      1.0  0.16762  0.60046  0.42958  1.0000
  C   C390      1.0  0.14816  0.60351  0.41121  1.0000
  C   C391      1.0  0.14549  0.61656  0.39798  1.0000
  C   C392      1.0  0.16177  0.62665  0.40365  1.0000
  C   C393      1.0  0.18076  0.62353  0.42223  1.0000
  C   C394      1.0  0.18391  0.61055  0.43479  1.0000
  H   H464      1.0  0.13559  0.59576  0.40686  1.0000
  H   H465      1.0  0.13060  0.61887  0.38380  1.0000
  H   H466      1.0  0.19332  0.63122  0.42687  1.0000
  H   H467      1.0  0.19907  0.60833  0.44874  1.0000
  C   C395      1.0  0.12997  0.51270  0.41635  1.0000
  C   C396      1.0  0.13449  0.49894  0.41300  1.0000
  H   H468      1.0  0.47907  0.63500  0.17401  1.0000
  C   C397      1.0  0.12383  0.50341  0.36869  1.0000
  C   C398      1.0  0.11902  0.51715  0.37212  1.0000
  C   C399      1.0  0.12197  0.52179  0.39594  1.0000
  H   H469      1.0  0.45580  0.62625  0.15847  1.0000
  H   H470      1.0  0.00116  0.54666  0.46874  1.0000
  H   H471      1.0  0.11321  0.52424  0.35627  1.0000
  H   H472      1.0  0.11841  0.53241  0.39842  1.0000
  N   N27       1.0  0.03793  0.49603  0.36193  1.0000
  C   C400      1.0  0.06702  0.73564  0.35828  1.0000
  H   H473      1.0  0.07008  0.72671  0.34709  1.0000
  C   C401      1.0  0.04589  0.51015  0.35979  1.0000
  H   H474      1.0  0.43153  0.68586  0.20506  1.0000
  N   N28       1.0  0.44236  0.70123  0.22805  1.0000
  C   C402      1.0  0.36114  0.54618  0.12305  1.0000
  C   C403      1.0  0.43019  0.69505  0.25196  1.0000
  C   C404      1.0  0.42844  0.69695  0.20639  1.0000
  C   C405      1.0  0.43945  0.71613  0.22773  1.0000
  C   C406      1.0  0.13685  0.68179  0.22334  1.0000
  H   H475      1.0  0.47197  0.68444  0.22680  1.0000
  H   H476      1.0  0.36674  0.53962  0.10759  1.0000
  C   C407      1.0  0.44569  0.62591  0.09663  1.0000
  H   H477      1.0  0.45966  0.60579  0.03800  1.0000
  H   H478      1.0  0.46239  0.52951  0.03684  1.0000
  H   H479      1.0  0.46942  0.59364  0.16782  1.0000
  H   H480      1.0  0.03485  0.51657  0.34485  1.0000
  H   H481      1.0  0.29326  0.72145  0.16907  1.0000
  C   C408      1.0  0.47235  0.62087  0.22019  1.0000
  C   C409      1.0  0.11884  0.67224  0.21989  1.0000
  C   C410      1.0  0.14710  0.73621  0.34925  1.0000
  C   C411      1.0  0.37098  0.73468  0.17634  1.0000
  C   C412      1.0  0.03380  0.61446  0.36246  1.0000
  S   S121      1.0  0.10451  0.57558  0.47332  1.0000
  H   H482      1.0  0.40828  0.69752  0.25357  1.0000
  H   H483      1.0  0.35408  0.52046  0.13938  1.0000
  C   C413      1.0  0.02230  0.66395  0.31340  1.0000
  H   H484      1.0  0.49427  0.60673  0.06781  1.0000
  N   N29       1.0  0.21962  0.62102  0.33178  1.0000
  C   C414      1.0  0.20758  0.63288  0.34400  1.0000
  C   C415      1.0  0.24904  0.62178  0.32977  1.0000
  C   C416      1.0  0.20999  0.62192  0.30553  1.0000
  C   C417      1.0  0.21256  0.60858  0.34736  1.0000
  C   C418      1.0  0.19468  0.59958  0.33927  1.0000
  C   C419      1.0  0.22257  0.60553  0.37202  1.0000
  C   C420      1.0  0.18783  0.58814  0.35483  1.0000
  C   C421      1.0  0.21582  0.59399  0.38726  1.0000
  C   C422      1.0  0.19843  0.58534  0.37873  1.0000
  H   H485      1.0  0.21548  0.63359  0.36306  1.0000
  H   H486      1.0  0.21104  0.64253  0.33241  1.0000
  H   H487      1.0  0.18566  0.63230  0.34692  1.0000
  H   H488      1.0  0.25776  0.62296  0.34823  1.0000
  H   H489      1.0  0.25486  0.63066  0.31685  1.0000
  H   H490      1.0  0.25899  0.61257  0.32222  1.0000
  H   H491      1.0  0.18782  0.62294  0.30515  1.0000
  H   H492      1.0  0.21676  0.63098  0.29390  1.0000
  H   H493      1.0  0.21765  0.61304  0.29551  1.0000
  H   H494      1.0  0.18530  0.60126  0.32122  1.0000
  H   H495      1.0  0.23505  0.61225  0.38005  1.0000
  H   H496      1.0  0.17381  0.58152  0.34856  1.0000
  H   H497      1.0  0.22318  0.59198  0.40627  1.0000
  H   H498      1.0  0.19253  0.57667  0.39105  1.0000
  N   N30       1.0  0.05547  0.68735  0.25236  1.0000
  C   C423      1.0  0.05625  0.68884  0.27990  1.0000
  C   C424      1.0  0.04185  0.69973  0.23979  1.0000
  C   C425      1.0  0.03890  0.67591  0.24943  1.0000
  H   H499      1.0  0.05211  0.59997  0.39038  1.0000
  H   H500      1.0  0.14244  0.70059  0.23831  1.0000
  H   H501      1.0  0.06657  0.69778  0.28406  1.0000
  C   C426      1.0  0.02664  0.56248  0.42176  1.0000
  C   C427      1.0  0.30315  0.52766  0.12061  1.0000
  C   C428      1.0  0.45477  0.61164  0.05391  1.0000
  C   C429      1.0  0.48250  0.65627  0.22579  1.0000
  H   H502      1.0  0.01140  0.62851  0.33777  1.0000
  C   C430      1.0  0.47056  0.69565  0.22626  1.0000
  C   C431      1.0  0.46165  0.72429  0.22567  1.0000
  S   S122      1.0  0.11943  0.49787  0.33878  1.0000
  C   C432      1.0  0.30261  0.72834  0.15493  1.0000
  C   C433      1.0  0.34746  0.49482  0.10914  1.0000
  H   H503      1.0  0.02855  0.72044  0.35782  1.0000
  H   H504      1.0  0.36777  0.61011  0.04166  1.0000
  C   C434      1.0  0.42516  0.62536  0.07989  1.0000
  H   H505      1.0  0.01341  0.63619  0.28325  1.0000
  S   S123      1.0  0.08589  0.54534  0.46965  1.0000
  H   H506      1.0  0.34521  0.72779  0.10371  1.0000
  H   H507      1.0  0.04168  0.69921  0.21892  1.0000
  H   H508      1.0  0.31341  0.56105  0.10620  1.0000
  H   H509      1.0  0.43114  0.61538  0.00633  1.0000
  C   C435      1.0  0.49330  0.57817  0.08888  1.0000
  H   H510      1.0  0.44465  0.63548  0.18482  1.0000
  N   N31       1.0  0.46723  0.61670  0.19475  1.0000
  C   C436      1.0  0.47882  0.54297  0.07340  1.0000
  C   C437      1.0  0.44282  0.60905  0.19757  1.0000
  H   H511      1.0  0.04912  0.50852  0.45407  1.0000
  H   H512      1.0  0.06694  0.67986  0.28997  1.0000
  C   C438      1.0  0.28434  0.55043  0.09003  1.0000
  H   H513      1.0  0.43522  0.60712  0.17895  1.0000
  C   C439      1.0  0.01858  0.53921  0.41704  1.0000
  H   H514      1.0  0.41347  0.63760  0.02237  1.0000
  H   H515      1.0  0.48200  0.72012  0.22394  1.0000
  H   H516      1.0  0.09635  0.70414  0.25361  1.0000
  H   H517      1.0  0.03601  0.67462  0.22916  1.0000
  C   C440      1.0  0.48183  0.57693  0.04517  1.0000
  H   H518      1.0  0.02605  0.52883  0.41602  1.0000
  H   H519      1.0  0.40599  0.63033  0.08468  1.0000
  H   H520      1.0  0.48810  0.51606  0.03888  1.0000
  H   H521      1.0  0.38785  0.63747  0.04708  1.0000
  C   C441      1.0  0.30523  0.55133  0.10619  1.0000
  C   C442      1.0  0.12825  0.69332  0.23512  1.0000
  H   H522      1.0  0.45421  0.62597  0.22898  1.0000
  H   H523      1.0  0.33117  0.52407  0.16555  1.0000
  Fe  Fe62      1.0  0.42033  0.56818  0.03602  1.0000
  H   H524      1.0  0.38119  0.63183  0.01735  1.0000
  H   H525      1.0  0.42584  0.61486  0.20673  1.0000
  C   C443      1.0  0.47393  0.57833  0.07049  1.0000
  C   C444      1.0  0.39698  0.63179  0.03146  1.0000
  H   H526      1.0  0.04806  0.66628  0.25873  1.0000
  S   S124      1.0  0.41104  0.54864  0.02237  1.0000
  H   H527      1.0  0.47143  0.65810  0.18688  1.0000
  H   H528      1.0  0.04276  0.51477  0.37810  1.0000
  H   H529      1.0  0.48632  0.61947  0.10550  1.0000
  C   C445      1.0  0.41467  0.61062  0.01775  1.0000
  C   C446      1.0  0.27288  0.53822  0.08911  1.0000
  H   H530      1.0  0.32232  0.71234  0.13512  1.0000
  H   H531      1.0  0.30947  0.51840  0.13168  1.0000
  N   N32       1.0  0.40693  0.61786  0.04047  1.0000
  H   H532      1.0  0.42113  0.59986  0.02309  1.0000
  S   S125      1.0  0.38087  0.57880  0.02661  1.0000
  C   C447      1.0  0.38474  0.61092  0.05411  1.0000
  C   C448      1.0  0.32964  0.55090  0.15720  1.0000
  H   H533      1.0  0.46768  0.53800  0.08991  1.0000
  Fe  Fe63      1.0  0.37030  0.55869  0.01552  1.0000
  H   H534      1.0  0.32485  0.56126  0.14801  1.0000
  H   H535      1.0  0.35707  0.55664  0.11418  1.0000
  H   H536      1.0  0.44643  0.59929  0.20930  1.0000
  C   C449      1.0  0.03401  0.60593  0.38481  1.0000
  C   C450      1.0  0.01086  0.60503  0.40009  1.0000
  C   C451      1.0  0.00859  0.64559  0.29162  1.0000
  H   H537      1.0  0.40652  0.69923  0.20803  1.0000
  H   H538      1.0  0.15767  0.68008  0.21745  1.0000
  H   H539      1.0  0.46486  0.51871  0.06535  1.0000
  C   C452      1.0  0.34720  0.52818  0.15257  1.0000
  H   H540      1.0  0.03749  0.66868  0.32252  1.0000
  H   H541      1.0  0.37640  0.61622  0.07054  1.0000
  H   H542      1.0  0.31153  0.54779  0.16843  1.0000
  H   H543      1.0  0.34411  0.53171  0.99338  1.0000
  H   H544      1.0  0.39156  0.60048  0.06151  1.0000
  H   H545      1.0  0.34567  0.55178  0.17066  1.0000
  H   H546      1.0  0.43291  0.68382  0.25336  1.0000
  H   H547      1.0  0.36441  0.52933  0.16450  1.0000
  C   C453      1.0  0.47705  0.52383  0.04977  1.0000
  C   C454      1.0  0.47057  0.61925  0.09225  1.0000
  C   C455      1.0  0.13135  0.49428  0.38922  1.0000
  C   C456      1.0  0.08301  0.68548  0.24146  1.0000
  C   C457      1.0  0.09226  0.67401  0.22867  1.0000
  H   H548      1.0  0.25677  0.53753  0.07647  1.0000
  H   H549      1.0  0.11048  0.72988  0.29969  1.0000
  H   H550      1.0  0.12583  0.66316  0.21118  1.0000
  H   H551      1.0  0.22158  0.73400  0.30043  1.0000
  C   C458      1.0  0.35215  0.73437  0.19655  1.0000
  H   H552      1.0  0.43547  0.70214  0.18806  1.0000
  C   C459      1.0  0.33198  0.73191  0.11818  1.0000
  H   H553      1.0  0.05189  0.61524  0.35062  1.0000
  C   C460      1.0  0.01042  0.62207  0.35528  1.0000
  H   H554      1.0  0.03587  0.68997  0.28884  1.0000
  H   H555      1.0  0.04759  0.49215  0.40119  1.0000
  H   H556      1.0  0.23525  0.73775  0.32949  1.0000
  C   C461      1.0  0.47506  0.61214  0.07095  1.0000
  C   C462      1.0  0.48775  0.65642  0.19967  1.0000
  H   H557      1.0  0.48722  0.57944  0.10836  1.0000
  C   C463      1.0  0.04593  0.49031  0.33764  1.0000
  H   H558      1.0  0.49460  0.54553  0.02416  1.0000
  H   H559      1.0  0.05179  0.70895  0.24316  1.0000
  C   C464      1.0  0.00901  0.49489  0.36746  1.0000
  H   H560      1.0  0.48208  0.69813  0.24246  1.0000
  H   H561      1.0  0.46384  0.54874  0.06094  1.0000
  H   H562      1.0  0.49095  0.55050  0.08070  1.0000
  H   H563      1.0  0.03338  0.49496  0.32200  1.0000
  H   H564      1.0  0.06030  0.73226  0.37797  1.0000
  H   H565      1.0  0.13330  0.61377  0.46809  1.0000
  H   H566      1.0  0.07514  0.48916  0.37920  1.0000
  C   C465      1.0  0.31898  0.72317  0.13579  1.0000
  H   H567      1.0  0.06710  0.49189  0.33193  1.0000
  H   H568      1.0  0.01351  0.52470  0.46702  1.0000
  H   H569      1.0  0.01373  0.51623  0.29432  1.0000
  C   C466      1.0  0.05065  0.51321  0.47150  1.0000
  C   C467      1.0  0.41040  0.73693  0.23006  1.0000
  C   C468      1.0  0.45803  0.73833  0.22579  1.0000
  S   S126      1.0  0.14880  0.54980  0.47836  1.0000
  S   S127      1.0  0.09582  0.55306  0.53807  1.0000
  Fe  Fe64      1.0  0.14995  0.50898  0.65847  1.0000
  S   S128      1.0  0.13644  0.51999  0.69253  1.0000
  S   S129      1.0  0.16658  0.51820  0.62068  1.0000
  Fe  Fe65      1.0  0.10103  0.50695  0.69456  1.0000
  S   S130      1.0  0.05706  0.51551  0.69450  1.0000
  Fe  Fe66      1.0  0.15937  0.50285  0.71572  1.0000
  H   H570      1.0  0.17125  0.57446  0.50357  1.0000
  H   H571      1.0  0.43403  0.51115  0.89277  1.0000
  C   C469      1.0  0.27026  0.50928  0.77811  1.0000
  Fe  Fe67      1.0  0.34294  0.50648  0.87775  1.0000
  S   S131      1.0  0.34995  0.52184  0.84488  1.0000
  S   S132      1.0  0.32576  0.51046  0.91674  1.0000
  Fe  Fe68      1.0  0.33188  0.50732  0.82098  1.0000
  C   C470      1.0  0.00897  0.55064  0.48555  1.0000
  Fe  Fe69      1.0  0.38992  0.50996  0.84007  1.0000
  S   S133      1.0  0.42883  0.52090  0.83749  1.0000
  H   H572      1.0  0.40165  0.54761  0.94367  1.0000
  C   C471      1.0  0.21607  0.52626  0.83867  1.0000
  H   H573      1.0  0.22224  0.53953  0.76777  1.0000
  H   H574      1.0  0.39121  0.52627  0.94168  1.0000
  H   H575      1.0  0.08452  0.54363  0.59003  1.0000
  H   H576      1.0  0.14619  0.50417  0.54440  1.0000
  H   H577      1.0  0.27781  0.55112  0.82814  1.0000
  C   C472      1.0  0.46281  0.51415  0.83936  1.0000
  Fe  Fe70      1.0  0.10894  0.55554  0.49642  1.0000
  C   C473      1.0  0.22032  0.53616  0.78778  1.0000
  H   H578      1.0  0.42247  0.56310  0.96805  1.0000
  C   C474      1.0  0.33518  0.52394  0.93291  1.0000
  H   H579      1.0  0.33266  0.51271  0.96962  1.0000
  H   H580      1.0  0.39959  0.52879  0.88432  1.0000
  C   C475      1.0  0.25146  0.54046  0.86956  1.0000
  C   C476      1.0  0.34554  0.54729  0.93352  1.0000
  C   C477      1.0  0.34000  0.53643  0.91995  1.0000
  H   H581      1.0  0.28915  0.51968  0.86918  1.0000
  H   H582      1.0  0.39436  0.54270  0.90313  1.0000
  H   H583      1.0  0.34856  0.55703  0.92344  1.0000
  H   H584      1.0  0.33868  0.53784  0.89956  1.0000
  C   C478      1.0  0.02620  0.50811  0.70260  1.0000
  H   H585      1.0  0.45475  0.49337  0.83812  1.0000
  H   H586      1.0  0.03101  0.50740  0.74279  1.0000
  C   C479      1.0  0.21855  0.50494  0.76058  1.0000
  S   S134      1.0  0.38321  0.49537  0.87417  1.0000
  C   C480      1.0  0.25212  0.50201  0.79376  1.0000
  H   H587      1.0  0.17490  0.59924  0.55071  1.0000
  H   H588      1.0  0.24224  0.55067  0.86342  1.0000
  S   S135      1.0  0.30259  0.51289  0.78826  1.0000
  H   H589      1.0  0.01182  0.55026  0.63977  1.0000
  H   H590      1.0  0.23625  0.53490  0.88124  1.0000
  H   H591      1.0  0.23116  0.51611  0.72601  1.0000
  H   H592      1.0  0.25741  0.49820  0.81275  1.0000
  C   C481      1.0  0.11511  0.54261  0.56035  1.0000
  C   C482      1.0  0.14105  0.53757  0.55421  1.0000
  C   C483      1.0  0.15648  0.53002  0.57284  1.0000
  C   C484      1.0  0.14598  0.52720  0.59761  1.0000
  C   C485      1.0  0.11980  0.53197  0.60358  1.0000
  C   C486      1.0  0.10454  0.53975  0.58507  1.0000
  H   H593      1.0  0.14942  0.53963  0.53525  1.0000
  H   H594      1.0  0.17670  0.52634  0.56807  1.0000
  H   H595      1.0  0.11154  0.52989  0.62262  1.0000
  C   C487      1.0  0.07316  0.51017  0.48596  1.0000
  C   C488      1.0  0.28432  0.54063  0.83549  1.0000
  H   H596      1.0  0.47794  0.53370  0.84084  1.0000
  C   C489      1.0  0.34721  0.54565  0.96004  1.0000
  H   H597      1.0  0.02655  0.54334  0.68321  1.0000
  H   H598      1.0  0.29415  0.53531  0.81964  1.0000
  C   C490      1.0  0.09984  0.61027  0.49384  1.0000
  C   C491      1.0  0.01749  0.50611  0.72801  1.0000
  C   C492      1.0  0.14430  0.57772  0.56271  1.0000
  H   H599      1.0  0.03758  0.55202  0.52643  1.0000
  C   C493      1.0  0.12650  0.60855  0.48583  1.0000
  C   C494      1.0  0.46699  0.53728  0.93173  1.0000
  C   C495      1.0  0.16223  0.57138  0.52262  1.0000
  C   C496      1.0  0.27211  0.51953  0.85645  1.0000
  H   H600      1.0  0.48057  0.53052  0.92181  1.0000
  C   C497      1.0  0.46261  0.55554  0.95906  1.0000
  S   S136      1.0  0.37271  0.49713  0.81287  1.0000
  H   H601      1.0  0.15936  0.57090  0.57335  1.0000
  C   C498      1.0  0.01830  0.54714  0.52962  1.0000
  C   C499      1.0  0.07534  0.51630  0.50823  1.0000
  C   C500      1.0  0.22657  0.49993  0.78510  1.0000
  H   H602      1.0  0.21367  0.52202  0.85806  1.0000
  H   H603      1.0  0.17666  0.56386  0.53249  1.0000
  C   C501      1.0  0.23681  0.51208  0.74483  1.0000
  C   C502      1.0  0.44461  0.51805  0.90362  1.0000
  C   C503      1.0  0.19746  0.53002  0.79705  1.0000
  H   H604      1.0  0.13778  0.58603  0.57464  1.0000
  H   H605      1.0  0.01950  0.54005  0.54709  1.0000
  N   N33       1.0  0.42562  0.52779  0.91589  1.0000
  C   C504      1.0  0.40726  0.51982  0.93290  1.0000
  C   C505      1.0  0.41000  0.53555  0.89558  1.0000
  H   H606      1.0  0.00273  0.55528  0.53360  1.0000
  C   C506      1.0  0.43876  0.53723  0.93048  1.0000
  C   C507      1.0  0.42318  0.54687  0.94393  1.0000
  S   S137      1.0  0.18512  0.50266  0.75146  1.0000
  H   H607      1.0  0.25876  0.54170  0.79497  1.0000
  H   H608      1.0  0.27590  0.51994  0.74117  1.0000
  H   H609      1.0  0.42318  0.54147  0.88202  1.0000
  C   C508      1.0  0.10848  0.59439  0.53054  1.0000
  C   C509      1.0  0.19534  0.52507  0.82244  1.0000
  H   H610      1.0  0.39693  0.51262  0.92252  1.0000
  C   C510      1.0  0.34307  0.53306  0.97296  1.0000
  H   H611      1.0  0.27919  0.51377  0.84017  1.0000
  C   C511      1.0  0.47859  0.54632  0.94588  1.0000
  H   H612      1.0  0.06992  0.60432  0.52191  1.0000
  H   H613      1.0  0.09998  0.58892  0.54711  1.0000
  H   H614      1.0  0.05903  0.53049  0.53272  1.0000
  H   H615      1.0  0.18179  0.52865  0.78427  1.0000
  H   H616      1.0  0.19358  0.58309  0.55408  1.0000
  N   N34       1.0  0.26158  0.53333  0.84736  1.0000
  H   H617      1.0  0.45825  0.52332  0.88957  1.0000
  C   C512      1.0  0.24126  0.53734  0.80378  1.0000
  C   C513      1.0  0.17975  0.58970  0.54166  1.0000
  C   C514      1.0  0.23968  0.53247  0.82987  1.0000
  C   C515      1.0  0.33660  0.52232  0.95945  1.0000
  H   H618      1.0  0.41813  0.51392  0.94860  1.0000
  C   C516      1.0  0.26229  0.51427  0.75358  1.0000
  H   H619      1.0  0.17775  0.52001  0.82934  1.0000
  C   C517      1.0  0.14429  0.59978  0.50008  1.0000
  H   H620      1.0  0.14414  0.56609  0.51953  1.0000
  H   H621      1.0  0.30016  0.54136  0.84924  1.0000
  N   N35       1.0  0.15508  0.58303  0.53746  1.0000
  H   H622      1.0  0.19144  0.59214  0.52376  1.0000
  C   C518      1.0  0.13595  0.59255  0.52309  1.0000
  C   C519      1.0  0.14325  0.49429  0.51031  1.0000
  C   C520      1.0  0.03265  0.52953  0.50090  1.0000
  H   H623      1.0  0.02840  0.55487  0.47959  1.0000
  H   H624      1.0  0.45667  0.51158  0.91775  1.0000
  H   H625      1.0  0.26775  0.54169  0.88260  1.0000
  C   C521      1.0  0.05544  0.52582  0.51575  1.0000
  C   C522      1.0  0.00776  0.50701  0.68374  1.0000
  N   N36       1.0  0.01200  0.54018  0.50729  1.0000
  C   C523      1.0  0.47003  0.50033  0.83946  1.0000
  C   C524      1.0  0.00574  0.54301  0.67878  1.0000
  H   H626      1.0  0.08922  0.50327  0.47962  1.0000
  H   H627      1.0  0.25686  0.51365  0.86740  1.0000
  H   H628      1.0  0.12719  0.57144  0.56101  1.0000
  C   C525      1.0  0.43496  0.55585  0.95797  1.0000
  H   H629      1.0  0.01388  0.50902  0.66402  1.0000
  C   C526      1.0  0.48316  0.52298  0.84099  1.0000
  C   C527      1.0  0.09084  0.60319  0.51610  1.0000
  C   C528      1.0  0.14509  0.49462  0.53639  1.0000
  S   S138      1.0  0.32239  0.49281  0.85456  1.0000
  H   H630      1.0  0.16445  0.59839  0.49237  1.0000
  H   H631      1.0  0.14303  0.50365  0.49800  1.0000
  H   H632      1.0  0.09306  0.51407  0.51926  1.0000
  S   S139      1.0  0.11388  0.49708  0.65930  1.0000
  C   C529      1.0  0.03051  0.52261  0.47896  1.0000
  S   S140      1.0  0.12232  0.49092  0.72064  1.0000
  S   S141      1.0  0.17479  0.49267  0.68129  1.0000
  H   H633      1.0  0.21272  0.49448  0.79762  1.0000
  H   H634      1.0  0.47160  0.56256  0.97000  1.0000
  H   H635      1.0  0.27080  0.49075  0.71474  1.0000
  C   C530      1.0  0.49718  0.49550  0.84049  1.0000
  H   H636      1.0  0.08604  0.61689  0.48243  1.0000
  S   S142      1.0  0.35402  0.55969  0.97607  1.0000
  Fe  Fe71      1.0  0.35814  0.76916  0.20751  1.0000
  S   S143      1.0  0.37735  0.77411  0.24247  1.0000
  H   H637      1.0  0.16894  0.95214  0.43045  1.0000
  Fe  Fe72      1.0  0.36169  0.79821  0.18224  1.0000
  S   S144      1.0  0.38054  0.80510  0.21592  1.0000
  S   S145      1.0  0.34912  0.81135  0.14674  1.0000
  Fe  Fe73      1.0  0.40625  0.78541  0.21601  1.0000
  S   S146      1.0  0.45152  0.78088  0.21023  1.0000
  Fe  Fe74      1.0  0.34967  0.79309  0.23912  1.0000
  S   S147      1.0  0.32282  0.79927  0.27284  1.0000
  S   S148      1.0  0.38820  0.77914  0.18105  1.0000
  S   S149      1.0  0.32963  0.78759  0.20528  1.0000
  Fe  Fe75      1.0  0.14622  0.77137  0.35119  1.0000
  S   S150      1.0  0.14018  0.77710  0.31017  1.0000
  S   S151      1.0  0.15841  0.74960  0.36461  1.0000
  Fe  Fe76      1.0  0.13253  0.80060  0.36432  1.0000
  S   S152      1.0  0.12566  0.80806  0.32336  1.0000
  S   S153      1.0  0.11986  0.81208  0.39877  1.0000
  Fe  Fe77      1.0  0.10338  0.78930  0.32255  1.0000
  S   S154      1.0  0.06494  0.78504  0.30447  1.0000
  Fe  Fe78      1.0  0.16357  0.79496  0.31506  1.0000
  S   S155      1.0  0.19502  0.79823  0.28274  1.0000
  S   S156      1.0  0.10829  0.78250  0.36353  1.0000
  S   S157      1.0  0.17149  0.78861  0.35610  1.0000
  H   H638      1.0  0.07347  0.81799  0.36568  1.0000
  C   C531      1.0  0.08176  0.97719  0.30448  1.0000
  S   S158      1.0  0.07944  0.93291  0.43982  1.0000
  Fe  Fe79      1.0  0.40173  0.88033  0.07619  1.0000
  S   S159      1.0  0.40932  0.89892  0.09459  1.0000
  S   S160      1.0  0.41331  0.86177  0.10303  1.0000
  Fe  Fe80      1.0  0.38675  0.89722  0.02656  1.0000
  S   S161      1.0  0.39251  0.91694  0.04177  1.0000
  Fe  Fe81      1.0  0.09499  0.91308  0.45957  1.0000
  Fe  Fe82      1.0  0.42946  0.90628  0.05814  1.0000
  S   S162      1.0  0.46495  0.91853  0.06035  1.0000
  Fe  Fe83      1.0  0.37200  0.90821  0.07713  1.0000
  S   S163      1.0  0.34501  0.92142  0.10098  1.0000
  S   S164      1.0  0.42547  0.88693  0.04071  1.0000
  S   S165      1.0  0.36234  0.88915  0.06093  1.0000
  H   H639      1.0  0.01607  0.85805  0.46279  1.0000
  H   H640      1.0  0.46492  0.79460  0.25439  1.0000
  S   S166      1.0  0.16283  0.95863  0.36018  1.0000
  C   C532      1.0  0.00431  0.86728  0.38037  1.0000
  H   H641      1.0  0.08722  0.73935  0.35958  1.0000
  H   H642      1.0  0.48454  0.84015  0.12649  1.0000
  H   H643      1.0  0.06028  0.83002  0.32784  1.0000
  S   S167      1.0  0.41517  0.95717  0.16068  1.0000
  H   H644      1.0  0.48552  0.98588  0.20745  1.0000
  H   H645      1.0  0.33076  0.90563  0.01907  1.0000
  C   C533      1.0  0.02051  0.95146  0.36534  1.0000
  H   H646      1.0  0.33582  0.78192  0.14715  1.0000
  C   C534      1.0  0.29655  0.92982  0.98010  1.0000
  C   C535      1.0  0.43249  0.74462  0.22805  1.0000
  S   S168      1.0  0.07664  0.89357  0.45625  1.0000
  C   C536      1.0  0.25227  0.75588  0.29316  1.0000
  H   H647      1.0  0.04443  0.75773  0.30989  1.0000
  H   H648      1.0  0.17513  0.83038  0.44025  1.0000
  H   H649      1.0  0.31856  0.92208  0.05046  1.0000
  C   C537      1.0  0.46206  0.97535  0.26132  1.0000
  H   H650      1.0  0.47592  0.89631  0.02925  1.0000
  C   C538      1.0  0.36396  0.93179  0.11723  1.0000
  C   C539      1.0  0.35177  0.93983  0.13541  1.0000
  C   C540      1.0  0.36714  0.94793  0.14858  1.0000
  C   C541      1.0  0.39481  0.94772  0.14402  1.0000
  C   C542      1.0  0.40681  0.93981  0.12568  1.0000
  C   C543      1.0  0.39140  0.93210  0.11203  1.0000
  H   H651      1.0  0.33048  0.93976  0.13939  1.0000
  H   H652      1.0  0.35770  0.95406  0.16269  1.0000
  H   H653      1.0  0.42806  0.93972  0.12173  1.0000
  H   H654      1.0  0.40092  0.92649  0.09732  1.0000
  H   H655      1.0  0.11510  0.96150  0.33370  1.0000
  C   C544      1.0  0.10214  0.94002  0.41719  1.0000
  C   C545      1.0  0.12275  0.93197  0.40649  1.0000
  C   C546      1.0  0.14123  0.93781  0.38902  1.0000
  C   C547      1.0  0.13912  0.95172  0.38202  1.0000
  C   C548      1.0  0.11822  0.95976  0.39239  1.0000
  C   C549      1.0  0.09977  0.95391  0.40996  1.0000
  H   H656      1.0  0.12430  0.92119  0.41138  1.0000
  H   H657      1.0  0.15718  0.93152  0.38084  1.0000
  H   H658      1.0  0.11625  0.97046  0.38699  1.0000
  H   H659      1.0  0.08375  0.96019  0.41807  1.0000
  C   C550      1.0  0.03201  0.79111  0.31281  1.0000
  C   C551      1.0  0.02692  0.80126  0.32917  1.0000
  H   H660      1.0  0.03953  0.75679  0.37971  1.0000
  H   H661      1.0  0.04344  0.80545  0.33723  1.0000
  C   C552      1.0  0.12513  0.82871  0.40565  1.0000
  C   C553      1.0  0.11131  0.83392  0.42665  1.0000
  C   C554      1.0  0.11463  0.84713  0.43278  1.0000
  C   C555      1.0  0.13216  0.85519  0.41814  1.0000
  C   C556      1.0  0.14586  0.85000  0.39708  1.0000
  C   C557      1.0  0.14229  0.83686  0.39076  1.0000
  H   H662      1.0  0.09800  0.82770  0.43832  1.0000
  H   H663      1.0  0.06578  0.82390  0.39576  1.0000
  H   H664      1.0  0.15948  0.85615  0.38564  1.0000
  H   H665      1.0  0.15306  0.83299  0.37456  1.0000
  C   C558      1.0  0.02338  0.85923  0.36753  1.0000
  N   N37       1.0  0.08200  0.96229  0.30911  1.0000
  H   H666      1.0  0.09538  0.83841  0.35571  1.0000
  C   C559      1.0  0.31235  0.75148  0.13910  1.0000
  C   C560      1.0  0.47417  0.82212  0.14890  1.0000
  C   C561      1.0  0.36726  0.82525  0.13447  1.0000
  C   C562      1.0  0.39109  0.82798  0.14499  1.0000
  C   C563      1.0  0.40500  0.83911  0.13485  1.0000
  C   C564      1.0  0.39521  0.84770  0.11424  1.0000
  C   C565      1.0  0.37130  0.84504  0.10378  1.0000
  C   C566      1.0  0.35745  0.83384  0.11384  1.0000
  H   H667      1.0  0.39883  0.82149  0.16090  1.0000
  H   H668      1.0  0.42332  0.84118  0.14322  1.0000
  H   H669      1.0  0.36358  0.85154  0.08787  1.0000
  H   H670      1.0  0.33903  0.83180  0.10559  1.0000
  C   C567      1.0  0.28729  0.79861  0.27554  1.0000
  C   C568      1.0  0.27220  0.79633  0.25499  1.0000
  C   C569      1.0  0.24415  0.79617  0.25769  1.0000
  C   C570      1.0  0.23065  0.79805  0.28104  1.0000
  C   C571      1.0  0.24573  0.80007  0.30178  1.0000
  C   C572      1.0  0.27381  0.80045  0.29896  1.0000
  H   H671      1.0  0.28206  0.79492  0.23685  1.0000
  H   H672      1.0  0.23280  0.79466  0.24146  1.0000
  H   H673      1.0  0.23573  0.80166  0.31984  1.0000
  H   H674      1.0  0.28517  0.80224  0.31502  1.0000
  H   H675      1.0  0.12748  0.74890  0.31959  1.0000
  H   H676      1.0  0.12471  0.96037  0.30130  1.0000
  H   H677      1.0  0.38251  0.97088  0.11577  1.0000
  N   N38       1.0  0.35428  0.88131  0.15631  1.0000
  C   C573      1.0  0.38358  0.87871  0.15836  1.0000
  C   C574      1.0  0.34735  0.88070  0.12955  1.0000
  C   C575      1.0  0.34713  0.89534  0.16278  1.0000
  C   C576      1.0  0.34063  0.87091  0.17282  1.0000
  C   C577      1.0  0.32339  0.87400  0.19380  1.0000
  C   C578      1.0  0.34482  0.85711  0.16834  1.0000
  C   C579      1.0  0.31135  0.86379  0.20921  1.0000
  C   C580      1.0  0.33270  0.84701  0.18381  1.0000
  C   C581      1.0  0.31604  0.85034  0.20425  1.0000
  H   H678      1.0  0.39093  0.86876  0.15194  1.0000
  H   H679      1.0  0.39467  0.88636  0.14636  1.0000
  H   H680      1.0  0.38960  0.87880  0.17827  1.0000
  H   H681      1.0  0.35562  0.87124  0.12176  1.0000
  H   H682      1.0  0.35553  0.88908  0.11692  1.0000
  H   H683      1.0  0.32534  0.88143  0.12752  1.0000
  H   H684      1.0  0.35296  0.89680  0.18227  1.0000
  H   H685      1.0  0.35758  0.90288  0.14978  1.0000
  H   H686      1.0  0.32539  0.89810  0.16093  1.0000
  H   H687      1.0  0.31891  0.88418  0.19875  1.0000
  H   H688      1.0  0.35767  0.85400  0.15286  1.0000
  H   H689      1.0  0.29832  0.86630  0.22518  1.0000
  H   H690      1.0  0.33635  0.83651  0.17991  1.0000
  H   H691      1.0  0.30679  0.84244  0.21629  1.0000
  H   H692      1.0  0.44177  0.95703  0.26740  1.0000
  H   H693      1.0  0.27811  0.94838  0.99388  1.0000
  C   C582      1.0  0.44486  0.97063  0.05686  1.0000
  H   H694      1.0  0.06219  0.98196  0.29819  1.0000
  N   N39       1.0  0.31002  0.76627  0.14077  1.0000
  C   C583      1.0  0.04888  0.75839  0.36036  1.0000
  C   C584      1.0  0.00153  0.84961  0.41439  1.0000
  C   C585      1.0  0.28694  0.74827  0.26247  1.0000
  H   H695      1.0  0.08367  0.84644  0.38340  1.0000
  C   C586      1.0  0.30446  0.75699  0.27060  1.0000
  H   H696      1.0  0.29689  0.78443  0.11798  1.0000
  H   H697      1.0  0.39056  0.74189  0.23180  1.0000
  C   C587      1.0  0.01038  0.78569  0.30241  1.0000
  H   H698      1.0  0.29211  0.94334  0.03758  1.0000
  C   C588      1.0  0.31230  0.92421  0.03107  1.0000
  H   H699      1.0  0.23424  0.85922  0.45993  1.0000
  C   C589      1.0  0.48324  0.79103  0.24495  1.0000
  C   C590      1.0  0.15646  0.83066  0.47737  1.0000
  C   C591      1.0  0.15941  0.98566  0.46203  1.0000
  H   H700      1.0  0.32999  0.97262  0.08544  1.0000
  H   H701      1.0  0.49671  0.93490  0.16509  1.0000
  H   H702      1.0  0.35087  0.76945  0.12813  1.0000
  C   C592      1.0  0.48213  0.78395  0.22355  1.0000
  H   H703      1.0  0.20830  0.76969  0.27516  1.0000
  H   H704      1.0  0.00233  0.76203  0.33344  1.0000
  C   C593      1.0  0.22031  0.74133  0.31501  1.0000
  C   C594      1.0  0.15819  0.97346  0.47730  1.0000
  C   C595      1.0  0.42374  0.95016  0.05228  1.0000
  H   H705      1.0  0.02567  0.83280  0.33719  1.0000
  H   H706      1.0  0.00495  0.94892  0.37939  1.0000
  C   C596      1.0  0.05742  0.74956  0.31983  1.0000
  N   N40       1.0  0.05301  0.83791  0.36431  1.0000
  C   C597      1.0  0.07837  0.84464  0.36389  1.0000
  C   C598      1.0  0.05795  0.82395  0.37642  1.0000
  C   C599      1.0  0.04563  0.83685  0.33779  1.0000
  C   C600      1.0  0.03194  0.84601  0.37773  1.0000
  C   C601      1.0  0.19170  0.87646  0.46418  1.0000
  H   H707      1.0  0.05216  0.94143  0.38754  1.0000
  H   H708      1.0  0.42518  0.93982  0.04745  1.0000
  H   H709      1.0  0.08733  0.94711  0.35673  1.0000
  C   C602      1.0  0.16623  0.96128  0.44000  1.0000
  H   H710      1.0  0.05731  0.96113  0.27712  1.0000
  H   H711      1.0  0.46688  0.94278  0.15133  1.0000
  C   C603      1.0  0.06127  0.95855  0.32873  1.0000
  C   C604      1.0  0.43985  0.96793  0.26706  1.0000
  H   H712      1.0  0.06976  0.76106  0.36235  1.0000
  Fe  Fe84      1.0  0.11877  0.88410  0.45623  1.0000
  S   S169      1.0  0.37670  0.89602  0.98544  1.0000
  C   C605      1.0  0.06724  0.95070  0.35189  1.0000
  C   C606      1.0  0.29931  0.74226  0.15674  1.0000
  H   H713      1.0  0.07729  0.85461  0.35259  1.0000
  H   H714      1.0  0.47815  0.93554  0.09765  1.0000
  C   C607      1.0  0.29944  0.77329  0.11698  1.0000
  C   C608      1.0  0.03396  0.96261  0.32477  1.0000
  C   C609      1.0  0.39928  0.95606  0.06076  1.0000
  H   H715      1.0  0.38269  0.94971  0.06218  1.0000
  H   H716      1.0  0.17114  0.97357  0.40465  1.0000
  C   C610      1.0  0.42049  0.97665  0.06536  1.0000
  H   H717      1.0  0.23199  0.76174  0.34080  1.0000
  H   H718      1.0  0.32425  0.75757  0.26175  1.0000
  H   H719      1.0  0.09229  0.95883  0.27022  1.0000
  H   H720      1.0  0.31013  0.77193  0.29600  1.0000
  C   C611      1.0  0.02023  0.74207  0.34645  1.0000
  C   C612      1.0  0.48020  0.81310  0.16986  1.0000
  H   H721      1.0  0.34583  0.76533  0.16147  1.0000
  C   C613      1.0  0.29211  0.77054  0.16204  1.0000
  H   H722      1.0  0.48131  0.97018  0.25723  1.0000
  H   H723      1.0  0.28722  0.74547  0.17268  1.0000
  H   H724      1.0  0.29963  0.76614  0.18072  1.0000
  C   C614      1.0  0.02039  0.84142  0.40168  1.0000
  H   H725      1.0  0.46734  0.95188  0.10655  1.0000
  N   N41       1.0  0.22472  0.75528  0.30413  1.0000
  H   H726      1.0  0.46533  0.95260  0.04398  1.0000
  C   C615      1.0  0.33675  0.77094  0.14447  1.0000
  H   H727      1.0  0.29082  0.78170  0.16277  1.0000
  S   S170      1.0  0.40783  0.98588  0.20769  1.0000
  H   H728      1.0  0.33964  0.75219  0.10589  1.0000
  C   C616      1.0  0.29645  0.76504  0.28996  1.0000
  C   C617      1.0  0.34873  0.96738  0.07817  1.0000
  H   H729      1.0  0.02589  0.83166  0.41131  1.0000
  H   H730      1.0  0.27971  0.76971  0.11307  1.0000
  C   C618      1.0  0.16750  0.97352  0.42498  1.0000
  H   H731      1.0  0.01676  0.92534  0.43274  1.0000
  H   H732      1.0  0.07786  0.75323  0.31887  1.0000
  H   H733      1.0  0.07526  0.94557  0.28810  1.0000
  N   N42       1.0  0.04793  0.74624  0.34636  1.0000
  H   H734      1.0  0.42982  0.75549  0.22821  1.0000
  H   H735      1.0  0.01411  0.77793  0.28952  1.0000
  H   H736      1.0  0.43690  0.96838  0.99742  1.0000
  H   H737      1.0  0.09680  0.98042  0.28955  1.0000
  H   H738      1.0  0.01215  0.90111  0.44716  1.0000
  C   C619      1.0  0.07644  0.95671  0.28511  1.0000
  H   H739      1.0  0.10408  0.85096  0.44912  1.0000
  S   S171      1.0  0.35769  0.98757  0.16952  1.0000
  H   H740      1.0  0.14430  0.93694  0.45352  1.0000
  S   S172      1.0  0.33887  0.74920  0.20955  1.0000
  C   C620      1.0  0.13982  0.93981  0.47305  1.0000
  H   H741      1.0  0.45739  0.82065  0.13751  1.0000
  C   C621      1.0  0.32871  0.74585  0.11969  1.0000
  H   H742      1.0  0.03804  0.91743  0.46892  1.0000
  S   S173      1.0  0.13849  0.87157  0.42575  1.0000
  H   H743      1.0  0.00611  0.79687  0.40834  1.0000
  C   C622      1.0  0.00046  0.80625  0.33432  1.0000
  C   C623      1.0  0.01397  0.95906  0.34280  1.0000
  H   H744      1.0  0.04507  0.84669  0.32609  1.0000
  H   H745      1.0  0.31301  0.77168  0.10029  1.0000
  H   H746      1.0  0.03876  0.76755  0.35042  1.0000
  C   C624      1.0  0.16153  0.96085  0.46665  1.0000
  H   H747      1.0  0.47116  0.96486  0.13963  1.0000
  H   H748      1.0  0.03183  0.86355  0.34979  1.0000
  H   H749      1.0  0.39760  0.96880  0.27569  1.0000
  H   H750      1.0  0.46807  0.80460  0.17481  1.0000
  H   H751      1.0  0.08649  0.98173  0.32197  1.0000
  C   C625      1.0  0.20537  0.75928  0.28398  1.0000
  H   H752      1.0  0.38922  0.98765  0.10362  1.0000
  H   H753      1.0  0.22010  0.77511  0.31754  1.0000
  H   H754      1.0  0.34466  0.96443  0.05908  1.0000
  H   H755      1.0  0.19957  0.85028  0.44348  1.0000
  H   H756      1.0  0.19168  0.93742  0.45997  1.0000
  C   C626      1.0  0.31906  0.91493  0.01345  1.0000
  H   H757      1.0  0.05792  0.74062  0.30874  1.0000
  H   H758      1.0  0.20717  0.75243  0.26861  1.0000
  C   C627      1.0  0.10948  0.95727  0.31617  1.0000
  N   N43       1.0  0.37153  0.97608  0.07717  1.0000
  H   H759      1.0  0.01399  0.98469  0.36282  1.0000
  H   H760      1.0  0.37876  0.74413  0.16896  1.0000
  H   H761      1.0  0.01428  0.80227  0.45187  1.0000
  C   C628      1.0  0.01007  0.86369  0.47873  1.0000
  Fe  Fe85      1.0  0.15935  0.98101  0.34886  1.0000
  C   C629      1.0  0.49476  0.91011  0.05036  1.0000
  C   C630      1.0  0.04707  0.94728  0.36987  1.0000
  C   C631      1.0  0.44646  0.95738  0.05038  1.0000
  H   H762      1.0  0.18441  0.75918  0.29161  1.0000
  C   C632      1.0  0.27076  0.76459  0.30110  1.0000
  H   H763      1.0  0.19785  0.76353  0.33254  1.0000
  C   C633      1.0  0.31129  0.91759  0.98838  1.0000
  H   H764      1.0  0.27143  0.76758  0.16029  1.0000
  S   S174      1.0  0.13690  0.90408  0.45664  1.0000
  C   C634      1.0  0.37495  0.97973  0.10320  1.0000
  C   C635      1.0  0.21860  0.76433  0.32463  1.0000
  H   H765      1.0  0.02779  0.96878  0.30788  1.0000
  H   H766      1.0  0.47508  0.74446  0.22417  1.0000
  C   C636      1.0  0.48544  0.94506  0.10331  1.0000
  C   C637      1.0  0.26124  0.74767  0.27356  1.0000
  H   H767      1.0  0.11171  0.94606  0.31922  1.0000
  Fe  Fe86      1.0  0.39932  0.97778  0.17101  1.0000
  H   H768      1.0  0.36223  0.98643  0.04075  1.0000
  C   C638      1.0  0.49452  0.89930  0.03547  1.0000
  H   H769      1.0  0.35241  0.95809  0.09125  1.0000
  H   H770      1.0  0.26582  0.77136  0.31559  1.0000
  C   C639      1.0  0.39692  0.96955  0.06757  1.0000
  C   C640      1.0  0.28964  0.93898  0.99865  1.0000
  C   C641      1.0  0.29750  0.93619  0.02372  1.0000
  H   H771      1.0  0.03956  0.81834  0.37761  1.0000
  H   H772      1.0  0.49706  0.94969  0.08683  1.0000
  C   C642      1.0  0.16404  0.98568  0.43595  1.0000
  H   H773      1.0  0.42597  0.94687  0.98184  1.0000
  H   H774      1.0  0.24835  0.74080  0.26652  1.0000
  H   H775      1.0  0.35584  0.98382  0.11192  1.0000
  C   C643      1.0  0.48957  0.83309  0.14274  1.0000
  H   H776      1.0  0.19548  0.87348  0.44459  1.0000
  H   H777      1.0  0.11999  0.94561  0.47294  1.0000
  H   H778      1.0  0.37295  0.92496  0.99023  1.0000
  H   H779      1.0  0.20014  0.74067  0.32450  1.0000
  H   H780      1.0  0.20174  0.88593  0.46546  1.0000
  H   H781      1.0  0.47875  0.92647  0.14325  1.0000
  H   H782      1.0  0.29338  0.74205  0.24734  1.0000
  C   C644      1.0  0.17348  0.83536  0.45764  1.0000
  H   H783      1.0  0.42024  0.98690  0.07047  1.0000
  C   C645      1.0  0.41504  0.97456  0.27187  1.0000
  H   H784      1.0  0.14517  0.82201  0.47532  1.0000
  H   H785      1.0  0.46258  0.97626  0.05543  1.0000
  H   H786      1.0  0.48590  0.98608  0.15136  1.0000
  H   H787      1.0  0.16987  0.87894  0.46626  1.0000
  C   C646      1.0  0.48543  0.93642  0.14733  1.0000
  C   C647      1.0  0.18748  0.84675  0.45975  1.0000
  C   C648      1.0  0.49243  0.96601  0.13930  1.0000
  C   C649      1.0  0.36414  0.98858  0.06077  1.0000
  C   C650      1.0  0.13204  0.73867  0.32753  1.0000
  Fe  Fe87      1.0  0.16287  0.94439  0.64999  1.0000
  S   S175      1.0  0.15408  0.93249  0.68723  1.0000
  S   S176      1.0  0.18746  0.93478  0.61851  1.0000
  Fe  Fe88      1.0  0.14269  0.97067  0.67098  1.0000
  S   S177      1.0  0.13240  0.96041  0.70933  1.0000
  Fe  Fe89      1.0  0.17276  0.94891  0.70573  1.0000
  S   S178      1.0  0.20155  0.94560  0.73947  1.0000
  Fe  Fe90      1.0  0.11477  0.94530  0.68709  1.0000
  S   S179      1.0  0.07496  0.93556  0.69599  1.0000
  S   S180      1.0  0.18352  0.96009  0.66843  1.0000
  S   S181      1.0  0.12304  0.95628  0.64883  1.0000
  Fe  Fe91      1.0  0.13441  0.90067  0.49909  1.0000
  C   C651      1.0  0.00795  0.96061  0.67973  1.0000
  S   S182      1.0  0.17100  0.90530  0.51920  1.0000
  S   S183      1.0  0.04487  0.88620  0.52553  1.0000
  H   H788      1.0  0.00794  0.93993  0.60934  1.0000
  H   H789      1.0  0.23011  0.90729  0.65821  1.0000
  N   N44       1.0  0.23937  0.91798  0.68992  1.0000
  C   C652      1.0  0.15490  0.94896  0.50957  1.0000
  S   S184      1.0  0.11987  0.87989  0.49876  1.0000
  Fe  Fe92      1.0  0.36867  0.95059  0.86246  1.0000
  S   S185      1.0  0.37694  0.93756  0.82987  1.0000
  S   S186      1.0  0.35935  0.94678  0.90493  1.0000
  C   C653      1.0  0.28267  0.91834  0.74747  1.0000
  S   S187      1.0  0.38670  0.96520  0.79462  1.0000
  Fe  Fe93      1.0  0.35065  0.95352  0.80685  1.0000
  S   S188      1.0  0.32186  0.95240  0.77366  1.0000
  Fe  Fe94      1.0  0.41201  0.95054  0.82004  1.0000
  S   S189      1.0  0.45514  0.94333  0.80817  1.0000
  S   S190      1.0  0.34070  0.96570  0.84023  1.0000
  S   S191      1.0  0.40481  0.96238  0.85362  1.0000
  C   C654      1.0  0.19714  0.87132  0.50879  1.0000
  H   H790      1.0  0.04410  0.89875  0.58729  1.0000
  H   H791      1.0  0.01169  0.93119  0.64075  1.0000
  C   C655      1.0  0.42943  0.97952  0.93461  1.0000
  H   H792      1.0  0.47296  0.96488  0.83701  1.0000
  C   C656      1.0  0.36938  0.93272  0.92620  1.0000
  C   C657      1.0  0.37363  0.91969  0.91852  1.0000
  C   C658      1.0  0.37673  0.90852  0.93683  1.0000
  H   H793      1.0  0.15416  0.93889  0.52053  1.0000
  H   H794      1.0  0.28095  0.91675  0.76798  1.0000
  C   C659      1.0  0.36970  0.93451  0.95216  1.0000
  H   H795      1.0  0.37316  0.91814  0.89863  1.0000
  H   H796      1.0  0.37889  0.89841  0.93085  1.0000
  H   H797      1.0  0.00335  0.97108  0.67310  1.0000
  H   H798      1.0  0.41774  0.94596  0.93643  1.0000
  C   C660      1.0  0.02157  0.87745  0.51137  1.0000
  H   H799      1.0  0.20335  0.94573  0.48553  1.0000
  H   H800      1.0  0.20360  0.86376  0.52452  1.0000
  Fe  Fe95      1.0  0.37779  0.97626  0.82914  1.0000
  C   C661      1.0  0.04128  0.94226  0.69143  1.0000
  C   C662      1.0  0.03491  0.95572  0.68252  1.0000
  C   C663      1.0  0.02022  0.93376  0.69715  1.0000
  H   H801      1.0  0.05075  0.96242  0.67815  1.0000
  H   H802      1.0  0.02481  0.92336  0.70423  1.0000
  C   C664      1.0  0.28788  0.95103  0.76492  1.0000
  C   C665      1.0  0.26799  0.94631  0.78217  1.0000
  C   C666      1.0  0.24193  0.94480  0.77402  1.0000
  C   C667      1.0  0.23496  0.94808  0.74855  1.0000
  C   C668      1.0  0.25471  0.95301  0.73136  1.0000
  C   C669      1.0  0.28085  0.95438  0.73946  1.0000
  H   H803      1.0  0.27280  0.94361  0.80176  1.0000
  H   H804      1.0  0.22704  0.94099  0.78763  1.0000
  H   H805      1.0  0.25003  0.95568  0.71177  1.0000
  H   H806      1.0  0.29586  0.95803  0.72582  1.0000
  C   C670      1.0  0.17301  0.91362  0.54717  1.0000
  C   C671      1.0  0.15075  0.91802  0.56205  1.0000
  C   C672      1.0  0.15437  0.92465  0.58410  1.0000
  C   C673      1.0  0.18023  0.92686  0.59119  1.0000
  C   C674      1.0  0.20209  0.92252  0.57605  1.0000
  C   C675      1.0  0.19854  0.91600  0.55435  1.0000
  H   H807      1.0  0.13088  0.91623  0.55674  1.0000
  H   H808      1.0  0.13730  0.92792  0.59567  1.0000
  H   H809      1.0  0.22210  0.92418  0.58121  1.0000
  H   H810      1.0  0.21585  0.91272  0.54309  1.0000
  H   H811      1.0  0.21307  0.93096  0.66573  1.0000
  H   H812      1.0  0.22087  0.90256  0.71449  1.0000
  H   H813      1.0  0.23647  0.85345  0.49293  1.0000
  H   H814      1.0  0.02927  0.91852  0.60889  1.0000
  C   C676      1.0  0.24726  0.90875  0.67010  1.0000
  H   H815      1.0  0.28904  0.92615  0.67471  1.0000
  C   C677      1.0  0.42705  0.95590  0.96884  1.0000
  H   H816      1.0  0.28838  0.98680  0.77287  1.0000
  Fe  Fe96      1.0  0.07923  0.89098  0.49870  1.0000
  H   H817      1.0  0.43638  0.98292  0.88158  1.0000
  C   C678      1.0  0.01412  0.91216  0.60418  1.0000
  C   C679      1.0  0.42236  0.95539  0.94328  1.0000
  H   H818      1.0  0.22549  0.93875  0.69157  1.0000
  H   H819      1.0  0.44292  0.96394  0.76357  1.0000
  H   H820      1.0  0.25486  0.89866  0.67876  1.0000
  C   C680      1.0  0.44182  0.97429  0.75347  1.0000
  H   H821      1.0  0.17065  0.95415  0.51816  1.0000
  H   H822      1.0  0.29122  0.91284  0.94167  1.0000
  H   H823      1.0  0.24658  0.93567  0.66429  1.0000
  H   H824      1.0  0.16183  0.98599  0.71268  1.0000
  C   C681      1.0  0.16756  0.84866  0.50180  1.0000
  H   H825      1.0  0.32669  0.92889  0.70095  1.0000
  C   C682      1.0  0.02920  0.87013  0.49072  1.0000
  C   C683      1.0  0.01961  0.91841  0.48119  1.0000
  H   H826      1.0  0.17609  0.87503  0.51274  1.0000
  C   C684      1.0  0.26223  0.91929  0.70601  1.0000
  N   N45       1.0  0.16074  0.94771  0.48214  1.0000
  H   H827      1.0  0.31902  0.94680  0.94597  1.0000
  C   C685      1.0  0.00494  0.89189  0.58534  1.0000
  H   H828      1.0  0.31769  0.90996  0.97582  1.0000
  H   H829      1.0  0.13975  0.83376  0.51446  1.0000
  H   H830      1.0  0.29420  0.94847  0.92266  1.0000
  H   H831      1.0  0.13514  0.95445  0.51286  1.0000
  C   C686      1.0  0.29730  0.94636  0.94338  1.0000
  H   H832      1.0  0.18740  0.93016  0.49178  1.0000
  H   H833      1.0  0.16396  0.85340  0.51920  1.0000
  C   C687      1.0  0.48727  0.94809  0.81632  1.0000
  H   H834      1.0  0.32096  0.92188  0.93604  1.0000
  H   H835      1.0  0.41901  0.96581  0.90698  1.0000
  H   H836      1.0  0.42018  0.97753  0.75242  1.0000
  C   C688      1.0  0.48553  0.97999  0.76793  1.0000
  H   H837      1.0  0.36636  0.94454  0.95833  1.0000
  C   C689      1.0  0.15342  0.83732  0.49935  1.0000
  H   H838      1.0  0.29325  0.92590  0.91629  1.0000
  H   H839      1.0  0.25147  0.93584  0.93351  1.0000
  H   H840      1.0  0.32290  0.92429  0.74750  1.0000
  H   H841      1.0  0.26299  0.91269  0.65666  1.0000
  H   H842      1.0  0.15466  0.97422  0.49734  1.0000
  H   H843      1.0  0.20732  0.91962  0.71821  1.0000
  C   C690      1.0  0.49775  0.96806  0.75844  1.0000
  C   C691      1.0  0.26079  0.91676  0.73288  1.0000
  H   H844      1.0  0.24899  0.94168  0.96442  1.0000
  C   C692      1.0  0.37354  0.92341  0.97034  1.0000
  H   H845      1.0  0.44971  0.97367  0.73366  1.0000
  C   C693      1.0  0.02302  0.90076  0.59189  1.0000
  C   C694      1.0  0.37639  0.91031  0.96284  1.0000
  H   H846      1.0  0.19929  0.91134  0.69155  1.0000
  C   C695      1.0  0.49037  0.95925  0.82983  1.0000
  H   H847      1.0  0.24277  0.91397  0.74323  1.0000
  C   C696      1.0  0.30838  0.92527  0.70972  1.0000
  C   C697      1.0  0.30637  0.92260  0.73595  1.0000
  C   C698      1.0  0.23084  0.93141  0.67734  1.0000
  C   C699      1.0  0.21580  0.91262  0.70427  1.0000
  C   C700      1.0  0.25858  0.93366  0.95318  1.0000
  C   C701      1.0  0.28669  0.92366  0.69491  1.0000
  H   H848      1.0  0.25089  0.92391  0.96120  1.0000
  H   H849      1.0  0.44634  0.97357  0.80316  1.0000
  S   S192      1.0  0.09397  0.91134  0.50199  1.0000
  C   C702      1.0  0.17916  0.98454  0.72527  1.0000
  H   H850      1.0  0.20969  0.97635  0.76121  1.0000
  H   H851      1.0  0.17147  0.98727  0.74423  1.0000
  H   H852      1.0  0.02200  0.91004  0.49646  1.0000
  H   H853      1.0  0.28687  0.95492  0.95256  1.0000
  H   H854      1.0  0.13773  0.93018  0.48515  1.0000
  N   N46       1.0  0.20052  0.86567  0.48380  1.0000
  H   H855      1.0  0.20901  0.88025  0.50961  1.0000
  C   C703      1.0  0.29881  0.92295  0.93626  1.0000
  C   C704      1.0  0.43458  0.97963  0.96072  1.0000
  C   C705      1.0  0.42331  0.96699  0.92637  1.0000
  C   C706      1.0  0.27061  0.98828  0.76173  1.0000
  H   H856      1.0  0.04986  0.86934  0.48411  1.0000
  H   H857      1.0  0.47291  0.98768  0.90765  1.0000
  H   H858      1.0  0.40217  0.98731  0.89126  1.0000
  N   N47       1.0  0.28810  0.93305  0.95365  1.0000
  N   N48       1.0  0.45648  0.98371  0.76687  1.0000
  H   H859      1.0  0.17256  0.98587  0.62754  1.0000
  C   C707      1.0  0.24839  0.98117  0.76927  1.0000
  H   H860      1.0  0.01207  0.88307  0.57587  1.0000
  H   H861      1.0  0.24905  0.97422  0.78627  1.0000
  C   C708      1.0  0.43317  0.96800  0.97755  1.0000
  H   H862      1.0  0.21926  0.97817  0.69150  1.0000
  H   H863      1.0  0.01970  0.92812  0.48987  1.0000
  C   C709      1.0  0.44464  0.98383  0.79294  1.0000
  H   H864      1.0  0.42305  0.98724  0.79284  1.0000
  C   C710      1.0  0.22573  0.98257  0.75459  1.0000
  H   H865      1.0  0.18544  0.97357  0.72662  1.0000
  C   C711      1.0  0.18692  0.93995  0.47971  1.0000
  H   H866      1.0  0.48642  0.96066  0.75099  1.0000
  C   C712      1.0  0.22944  0.86210  0.47944  1.0000
  C   C713      1.0  0.18523  0.85368  0.48203  1.0000
  H   H867      1.0  0.24163  0.87072  0.48186  1.0000
  H   H868      1.0  0.58161  0.00849  0.08294  1.0000
  C   C714      1.0  0.58653  0.01562  0.09666  1.0000
  C   C715      1.0  0.70279  0.05554  0.09442  1.0000
  H   H869      1.0  0.67782  0.00491  0.98013  1.0000
  S   S193      1.0  0.67650  0.02743  0.01805  1.0000
  C   C716      1.0  0.72082  0.05278  0.05203  1.0000
  C   C717      1.0  0.96047  0.04611  0.38067  1.0000
  H   H870      1.0  0.83631  0.02860  0.46549  1.0000
  C   C718      1.0  0.99604  0.99797  0.33284  1.0000
  Fe  Fe97      1.0  0.68391  0.00019  0.21440  1.0000
  S   S194      1.0  0.69728  0.00115  0.17313  1.0000
  H   H871      1.0  0.96381  0.02805  0.42113  1.0000
  Fe  Fe98      1.0  0.65845  0.01308  0.16466  1.0000
  S   S195      1.0  0.65219  0.03128  0.13593  1.0000
  S   S196      1.0  0.64598  0.01374  0.20610  1.0000
  H   H872      1.0  0.93841  0.04804  0.38312  1.0000
  Fe  Fe99      1.0  0.86017  0.00236  0.32394  1.0000
  S   S197      1.0  0.84571  0.00592  0.36390  1.0000
  S   S198      1.0  0.83288  0.00215  0.28912  1.0000
  Fe  Fe100     1.0  0.92043  0.99767  0.34041  1.0000
  S   S199      1.0  0.90858  0.00064  0.38087  1.0000
  C   C719      1.0  0.99777  0.02930  0.37830  1.0000
  Fe  Fe101     1.0  0.88151  0.01807  0.36578  1.0000
  S   S200      1.0  0.88607  0.03748  0.38413  1.0000
  S   S201      1.0  0.89479  0.01593  0.32488  1.0000
  H   H873      1.0  0.51508  0.02403  0.18015  1.0000
  C   C720      1.0  0.50563  0.04256  0.00150  1.0000
  C   C721      1.0  0.85909  0.03170  0.43025  1.0000
  C   C722      1.0  0.87868  0.03901  0.41686  1.0000
  C   C723      1.0  0.89195  0.04821  0.42944  1.0000
  C   C724      1.0  0.88574  0.05009  0.45513  1.0000
  H   H874      1.0  0.98497  0.01238  0.30166  1.0000
  H   H875      1.0  0.84849  0.02470  0.42075  1.0000
  H   H876      1.0  0.90686  0.05407  0.41922  1.0000
  S   S202      1.0  0.71306  0.99997  0.24793  1.0000
  C   C725      1.0  0.74643  0.00132  0.25893  1.0000
  C   C726      1.0  0.79904  0.00232  0.27832  1.0000
  C   C727      1.0  0.79460  0.00373  0.25204  1.0000
  C   C728      1.0  0.76871  0.00331  0.24245  1.0000
  C   C729      1.0  0.69334  0.08226  0.00751  1.0000
  H   H877      1.0  0.81142  0.00515  0.23889  1.0000
  C   C730      1.0  0.65859  0.02964  0.10331  1.0000
  C   C731      1.0  0.65037  0.04038  0.08577  1.0000
  C   C732      1.0  0.65544  0.03965  0.05969  1.0000
  C   C733      1.0  0.66907  0.02821  0.05081  1.0000
  C   C734      1.0  0.67738  0.01742  0.06832  1.0000
  C   C735      1.0  0.67192  0.01806  0.09451  1.0000
  H   H878      1.0  0.64042  0.04945  0.09242  1.0000
  H   H879      1.0  0.64945  0.04814  0.04657  1.0000
  H   H880      1.0  0.68813  0.00856  0.06166  1.0000
  H   H881      1.0  0.67845  0.00973  0.10790  1.0000
  H   H882      1.0  0.53068  0.03520  0.05615  1.0000
  C   C736      1.0  0.95636  0.02646  0.35835  1.0000
  H   H883      1.0  0.56147  0.01496  0.18937  1.0000
  H   H884      1.0  0.58335  0.01065  0.11612  1.0000
  Fe  Fe102     1.0  0.65010  0.04116  0.99159  1.0000
  C   C737      1.0  0.55003  0.99534  0.20419  1.0000
  C   C738      1.0  0.52401  0.03039  0.07420  1.0000
  C   C739      1.0  0.53225  0.04353  0.99318  1.0000
  C   C740      1.0  0.70755  0.06516  0.04236  1.0000
  H   H885      1.0  0.56881  0.04545  0.06341  1.0000
  H   H886      1.0  0.93422  0.02816  0.35906  1.0000
  H   H887      1.0  0.60086  0.03671  0.06637  1.0000
  H   H888      1.0  0.69568  0.08544  0.98684  1.0000
  H   H889      1.0  0.73301  0.04655  0.03982  1.0000
  H   H890      1.0  0.75324  0.06442  0.01357  1.0000
  H   H891      1.0  0.65519  0.99885  0.01626  1.0000
  C   C741      1.0  0.51866  0.01368  0.18800  1.0000
  H   H892      1.0  0.60837  0.01697  0.09449  1.0000
  H   H893      1.0  0.74439  0.08124  0.02177  1.0000
  C   C742      1.0  0.71827  0.04805  0.07763  1.0000
  C   C743      1.0  0.68965  0.06776  0.08565  1.0000
  H   H894      1.0  0.57331  0.03274  0.13166  1.0000
  H   H895      1.0  0.62983  0.00287  0.97998  1.0000
  C   C744      1.0  0.53019  0.02020  0.11708  1.0000
  N   N49       1.0  0.96831  0.03148  0.38041  1.0000
  H   H896      1.0  0.77936  0.99952  0.31507  1.0000
  H   H897      1.0  0.96119  0.01545  0.35787  1.0000
  H   H898      1.0  0.69801  0.09110  0.01737  1.0000
  C   C745      1.0  0.73893  0.07337  0.00978  1.0000
  S   S203      1.0  0.62927  0.06089  0.00067  1.0000
  H   H899      1.0  0.76610  0.00457  0.22225  1.0000
  H   H900      1.0  0.68519  0.05546  0.00478  1.0000
  H   H901      1.0  0.93424  0.02638  0.40473  1.0000
  N   N50       1.0  0.57046  0.02868  0.09244  1.0000
  C   C746      1.0  0.57915  0.03525  0.06740  1.0000
  H   H902      1.0  0.70034  0.05165  0.11415  1.0000
  C   C747      1.0  0.50192  0.99228  0.20351  1.0000
  H   H903      1.0  0.68095  0.08204  0.05457  1.0000
  C   C748      1.0  0.95635  0.02448  0.40369  1.0000
  Fe  Fe103     1.0  0.62468  0.99512  0.20043  1.0000
  H   H904      1.0  0.72786  0.03836  0.08444  1.0000
  N   N51       1.0  0.71091  0.07003  0.01520  1.0000
  S   S204      1.0  0.61293  0.03237  0.98160  1.0000
  H   H905      1.0  0.71972  0.05056  0.00026  1.0000
  H   H906      1.0  0.59824  0.03971  0.11085  1.0000
  H   H907      1.0  0.54223  0.01697  0.13325  1.0000
  H   H908      1.0  0.51587  0.07531  0.99023  1.0000
  S   S205      1.0  0.63580  0.99519  0.15899  1.0000
  H   H909      1.0  0.96022  0.01333  0.40410  1.0000
  H   H910      1.0  0.56459  0.04726  0.11013  1.0000
  C   C749      1.0  0.75083  0.00000  0.28524  1.0000
  H   H911      1.0  0.67185  0.08042  0.01108  1.0000
  C   C750      1.0  0.69188  0.07256  0.06003  1.0000
  S   S206      1.0  0.55336  0.05279  0.00915  1.0000
  Fe  Fe104     1.0  0.59276  0.05255  0.98769  1.0000
  C   C751      1.0  0.54506  0.00856  0.19316  1.0000
  H   H912      1.0  0.96616  0.05199  0.36267  1.0000
  H   H913      1.0  0.57549  0.02907  0.05164  1.0000
  C   C752      1.0  0.77671  0.00055  0.29484  1.0000
  H   H914      1.0  0.67728  0.07342  0.09880  1.0000
  C   C753      1.0  0.85218  0.03396  0.45562  1.0000
  C   C754      1.0  0.54161  0.02640  0.09433  1.0000
  S   S207      1.0  0.96495  0.99013  0.33587  1.0000
  H   H915      1.0  0.96982  0.05042  0.39644  1.0000
  C   C755      1.0  0.86548  0.04312  0.46824  1.0000
  H   H916      1.0  0.96339  0.03148  0.33995  1.0000
  C   C756      1.0  0.57682  0.03748  0.11208  1.0000
  H   H917      1.0  0.73401  0.99857  0.29839  1.0000
  H   H918      1.0  0.89597  0.05726  0.46452  1.0000
  C   C757      1.0  0.50289  0.01826  0.11961  1.0000
  C   C758      1.0  0.70483  0.05937  0.99904  1.0000
  H   H919      1.0  0.74226  0.07723  0.98956  1.0000
  H   H920      1.0  0.53400  0.98969  0.15199  1.0000
  H   H921      1.0  0.88408  0.99420  0.47539  1.0000
  C   C759      1.0  0.74182  0.99671  0.80851  1.0000
  C   C760      1.0  0.95854  0.10972  0.60265  1.0000
  Fe  Fe105     1.0  0.62111  0.04147  0.94210  1.0000
  C   C761      1.0  0.99489  0.01933  0.57470  1.0000
  S   S208      1.0  0.60777  0.03026  0.91054  1.0000
  Fe  Fe106     1.0  0.63720  0.06777  0.95940  1.0000
  S   S209      1.0  0.65198  0.08883  0.95169  1.0000
  S   S210      1.0  0.59820  0.06128  0.94749  1.0000
  Fe  Fe107     1.0  0.92798  0.06864  0.54302  1.0000
  S   S211      1.0  0.88661  0.07739  0.53368  1.0000
  S   S212      1.0  0.96494  0.07894  0.53038  1.0000
  Fe  Fe108     1.0  0.90864  0.04446  0.57521  1.0000
  S   S213      1.0  0.86595  0.05140  0.56882  1.0000
  S   S214      1.0  0.92390  0.02571  0.59892  1.0000
  Fe  Fe109     1.0  0.87939  0.05573  0.52793  1.0000
  Fe  Fe110     1.0  0.87760  0.07217  0.57542  1.0000
  S   S215      1.0  0.85685  0.08360  0.60697  1.0000
  S   S216      1.0  0.92159  0.04761  0.53435  1.0000
  S   S217      1.0  0.91942  0.06470  0.58462  1.0000
  Fe  Fe111     1.0  0.88894  0.17791  0.69118  1.0000
  S   S218      1.0  0.89350  0.16518  0.72816  1.0000
  S   S219      1.0  0.89962  0.19865  0.69957  1.0000
  Fe  Fe112     1.0  0.87659  0.15302  0.66458  1.0000
  S   S220      1.0  0.87970  0.13932  0.70050  1.0000
  S   S221      1.0  0.87411  0.14461  0.62632  1.0000
  Fe  Fe113     1.0  0.85573  0.15628  0.71867  1.0000
  S   S222      1.0  0.82366  0.15480  0.75098  1.0000
  Fe  Fe114     1.0  0.91689  0.15001  0.70585  1.0000
  S   S223      1.0  0.95760  0.13854  0.71167  1.0000
  S   S224      1.0  0.85038  0.16948  0.68222  1.0000
  S   S225      1.0  0.91439  0.16316  0.66951  1.0000
  Fe  Fe115     1.0  0.65537  0.17646  0.84549  1.0000
  S   S226      1.0  0.64179  0.18481  0.80737  1.0000
  S   S227      1.0  0.66759  0.19005  0.87408  1.0000
  Fe  Fe116     1.0  0.64808  0.14715  0.83541  1.0000
  S   S228      1.0  0.63384  0.15398  0.79608  1.0000
  S   S229      1.0  0.64975  0.12426  0.84486  1.0000
  Fe  Fe117     1.0  0.66827  0.16755  0.79328  1.0000
  S   S230      1.0  0.69759  0.17080  0.75908  1.0000
  Fe  Fe118     1.0  0.60894  0.17040  0.81447  1.0000
  S   S231      1.0  0.56511  0.17891  0.81411  1.0000
  S   S232      1.0  0.68350  0.15990  0.83141  1.0000
  S   S233      1.0  0.62172  0.16285  0.85376  1.0000
  C   C762      1.0  0.78881  0.15986  0.75271  1.0000
  C   C763      1.0  0.77468  0.16534  0.73152  1.0000
  C   C764      1.0  0.74691  0.16876  0.73385  1.0000
  C   C765      1.0  0.73288  0.16688  0.75736  1.0000
  C   C766      1.0  0.74721  0.16185  0.77867  1.0000
  C   C767      1.0  0.77488  0.15828  0.77631  1.0000
  H   H922      1.0  0.78499  0.16663  0.71321  1.0000
  H   H923      1.0  0.73613  0.17268  0.71720  1.0000
  H   H924      1.0  0.73696  0.16069  0.79698  1.0000
  H   H925      1.0  0.78557  0.15416  0.79290  1.0000
  C   C768      1.0  0.86329  0.10036  0.61246  1.0000
  C   C769      1.0  0.85643  0.10501  0.63629  1.0000
  C   C770      1.0  0.86009  0.11842  0.64101  1.0000
  C   C771      1.0  0.87003  0.12745  0.62170  1.0000
  C   C772      1.0  0.87695  0.12278  0.59790  1.0000
  C   C773      1.0  0.87400  0.10927  0.59340  1.0000
  H   H926      1.0  0.84795  0.09824  0.65111  1.0000
  H   H927      1.0  0.85453  0.12186  0.65936  1.0000
  H   H928      1.0  0.88440  0.12968  0.58272  1.0000
  H   H929      1.0  0.87912  0.10589  0.57490  1.0000
  C   C774      1.0  0.64954  0.09874  0.92209  1.0000
  C   C775      1.0  0.65414  0.11253  0.92071  1.0000
  C   C776      1.0  0.65346  0.12061  0.89738  1.0000
  C   C777      1.0  0.64859  0.11491  0.87509  1.0000
  C   C778      1.0  0.64386  0.10113  0.87650  1.0000
  C   C779      1.0  0.64410  0.09311  0.89988  1.0000
  H   H930      1.0  0.65839  0.11699  0.93777  1.0000
  H   H931      1.0  0.65723  0.13117  0.89659  1.0000
  H   H932      1.0  0.64015  0.09660  0.85937  1.0000
  H   H933      1.0  0.64068  0.08251  0.90060  1.0000
  H   H934      1.0  0.95892  0.13818  0.60211  1.0000
  H   H935      1.0  0.93742  0.14587  0.62538  1.0000
  C   C780      1.0  0.91056  0.00077  0.61902  1.0000
  C   C781      1.0  0.90153  0.01304  0.60606  1.0000
  C   C782      1.0  0.87502  0.01494  0.59876  1.0000
  C   C783      1.0  0.85759  0.00465  0.60448  1.0000
  C   C784      1.0  0.82253  0.22323  0.71601  1.0000
  H   H936      1.0  0.93101  0.99923  0.62482  1.0000
  H   H937      1.0  0.86785  0.02428  0.58862  1.0000
  H   H938      1.0  0.83702  0.00621  0.59904  1.0000
  C   C785      1.0  0.64376  0.23491  0.78125  1.0000
  C   C786      1.0  0.67344  0.00597  0.89433  1.0000
  C   C787      1.0  0.65660  0.01630  0.90400  1.0000
  C   C788      1.0  0.62930  0.01721  0.89948  1.0000
  C   C789      1.0  0.61887  0.00761  0.88572  1.0000
  H   H939      1.0  0.53219  0.02586  0.94133  1.0000
  H   H940      1.0  0.84859  0.00560  0.55033  1.0000
  H   H941      1.0  0.66478  0.02373  0.91444  1.0000
  H   H942      1.0  0.59774  0.00828  0.88221  1.0000
  C   C790      1.0  0.54711  0.10155  0.89296  1.0000
  C   C791      1.0  0.66296  0.99637  0.88059  1.0000
  H   H943      1.0  0.55110  0.19109  0.88616  1.0000
  H   H944      1.0  0.90811  0.01214  0.54937  1.0000
  H   H945      1.0  0.58309  0.20196  0.83672  1.0000
  C   C792      1.0  0.53577  0.17096  0.80792  1.0000
  C   C793      1.0  0.53502  0.16271  0.78809  1.0000
  C   C794      1.0  0.95867  0.21918  0.68797  1.0000
  C   C795      1.0  0.58252  0.22011  0.87109  1.0000
  C   C796      1.0  0.63358  0.99478  0.96698  1.0000
  H   H946      1.0  0.55311  0.16026  0.77718  1.0000
  C   C797      1.0  0.55277  0.20204  0.88045  1.0000
  C   C798      1.0  0.52402  0.07627  0.89907  1.0000
  C   C799      1.0  0.85776  0.01122  0.53347  1.0000
  H   H947      1.0  0.96881  0.16688  0.71140  1.0000
  H   H948      1.0  0.76048  0.13836  0.71659  1.0000
  H   H949      1.0  0.97144  0.05590  0.56788  1.0000
  S   S234      1.0  0.66092  0.04845  0.95109  1.0000
  H   H950      1.0  0.60975  0.22345  0.90096  1.0000
  C   C800      1.0  0.65769  0.21662  0.85189  1.0000
  C   C801      1.0  0.66701  0.20788  0.87253  1.0000
  C   C802      1.0  0.67610  0.21338  0.89354  1.0000
  C   C803      1.0  0.67596  0.22734  0.89425  1.0000
  H   H951      1.0  0.55680  0.22191  0.83859  1.0000
  H   H952      1.0  0.68335  0.20677  0.90954  1.0000
  H   H953      1.0  0.61446  0.19999  0.85194  1.0000
  H   H954      1.0  0.80351  0.12727  0.73068  1.0000
  H   H955      1.0  0.91260  0.00808  0.49445  1.0000
  C   C804      1.0  0.88782  0.21475  0.68646  1.0000
  C   C805      1.0  0.87560  0.21678  0.66311  1.0000
  N   N52       1.0  0.58106  0.20535  0.87655  1.0000
  C   C806      1.0  0.71782  0.20701  0.79211  1.0000
  H   H956      1.0  0.87239  0.20824  0.65278  1.0000
  N   N53       1.0  0.82520  0.20112  0.74458  1.0000
  C   C807      1.0  0.85048  0.19601  0.75674  1.0000
  C   C808      1.0  0.80244  0.19677  0.76138  1.0000
  C   C809      1.0  0.82409  0.19444  0.72083  1.0000
  C   C810      1.0  0.82401  0.21605  0.74048  1.0000
  H   H957      1.0  0.85177  0.19928  0.77604  1.0000
  H   H958      1.0  0.85282  0.18476  0.75873  1.0000
  H   H959      1.0  0.86807  0.19962  0.74527  1.0000
  H   H960      1.0  0.80275  0.20043  0.78046  1.0000
  H   H961      1.0  0.80274  0.18555  0.76454  1.0000
  H   H962      1.0  0.78302  0.20043  0.75297  1.0000
  H   H963      1.0  0.82471  0.18325  0.72470  1.0000
  H   H964      1.0  0.80532  0.19752  0.71078  1.0000
  H   H965      1.0  0.84148  0.19665  0.70775  1.0000
  H   H966      1.0  0.82269  0.21821  0.69883  1.0000
  C   C811      1.0  0.59287  0.19845  0.85478  1.0000
  C   C812      1.0  0.59547  0.19961  0.89944  1.0000
  H   H967      1.0  0.54248  0.20783  0.89542  1.0000
  H   H968      1.0  0.59086  0.18740  0.85771  1.0000
  H   H969      1.0  0.58496  0.09006  0.89412  1.0000
  H   H970      1.0  0.61722  0.20107  0.89731  1.0000
  H   H971      1.0  0.58731  0.20418  0.91674  1.0000
  H   H972      1.0  0.59407  0.18849  0.90291  1.0000
  C   C813      1.0  0.68115  0.99639  0.96801  1.0000
  C   C814      1.0  0.98781  0.14692  0.71011  1.0000
  C   C815      1.0  0.72469  0.21772  0.77486  1.0000
  H   H973      1.0  0.97244  0.20977  0.72359  1.0000
  H   H974      1.0  0.51014  0.15211  0.76564  1.0000
  H   H975      1.0  0.50221  0.06421  0.86307  1.0000
  H   H976      1.0  0.56202  0.03829  0.96460  1.0000
  H   H977      1.0  0.54475  0.05056  0.91783  1.0000
  C   C816      1.0  0.55219  0.07713  0.89789  1.0000
  H   H978      1.0  0.52054  0.04167  0.90407  1.0000
  H   H979      1.0  0.54271  0.99160  0.78868  1.0000
  H   H980      1.0  0.95114  0.20999  0.68255  1.0000
  C   C817      1.0  0.82400  0.23801  0.75804  1.0000
  H   H981      1.0  0.72564  0.21643  0.75475  1.0000
  H   H982      1.0  0.51212  0.18050  0.83700  1.0000
  C   C818      1.0  0.98220  0.08935  0.63592  1.0000
  C   C819      1.0  0.97490  0.10205  0.64423  1.0000
  C   C820      1.0  0.59777  0.22788  0.88548  1.0000
  C   C821      1.0  0.82472  0.22390  0.76140  1.0000
  C   C822      1.0  0.96601  0.09699  0.59453  1.0000
  C   C823      1.0  0.97932  0.23094  0.71872  1.0000
  H   H983      1.0  0.74248  0.00594  0.79502  1.0000
  H   H984      1.0  0.97551  0.02205  0.56668  1.0000
  H   H985      1.0  0.80620  0.11421  0.77253  1.0000
  H   H986      1.0  0.72760  0.99908  0.82452  1.0000
  C   C824      1.0  0.97778  0.08684  0.61111  1.0000
  H   H987      1.0  0.54136  0.20421  0.86286  1.0000
  H   H988      1.0  0.71354  0.19745  0.78548  1.0000
  H   H989      1.0  0.71011  0.20039  0.83132  1.0000
  N   N54       1.0  0.87587  0.04257  0.65922  1.0000
  C   C825      1.0  0.86179  0.05172  0.67667  1.0000
  C   C826      1.0  0.90504  0.04322  0.66191  1.0000
  C   C827      1.0  0.86981  0.04777  0.63286  1.0000
  C   C828      1.0  0.86668  0.02878  0.66464  1.0000
  C   C829      1.0  0.88400  0.01742  0.67289  1.0000
  C   C830      1.0  0.83956  0.02640  0.66153  1.0000
  C   C831      1.0  0.87461  0.00454  0.67754  1.0000
  C   C832      1.0  0.83050  0.01344  0.66595  1.0000
  C   C833      1.0  0.84799  0.00255  0.67394  1.0000
  H   H990      1.0  0.86541  0.04806  0.69679  1.0000
  H   H991      1.0  0.86841  0.06217  0.67311  1.0000
  H   H992      1.0  0.83985  0.05260  0.67427  1.0000
  H   H993      1.0  0.91106  0.04004  0.68163  1.0000
  H   H994      1.0  0.91137  0.05365  0.65714  1.0000
  H   H995      1.0  0.91672  0.03677  0.64868  1.0000
  H   H996      1.0  0.84807  0.04935  0.62961  1.0000
  H   H997      1.0  0.87803  0.05774  0.62747  1.0000
  H   H998      1.0  0.87861  0.04069  0.61935  1.0000
  H   H999      1.0  0.90504  0.01810  0.67528  1.0000
  H   H1000     1.0  0.82527  0.03450  0.65515  1.0000
  H   H1001     1.0  0.89854  0.02274  0.50870  1.0000
  H   H1002     1.0  0.93986  0.11749  0.67438  1.0000
  C   C834      1.0  0.86663  0.99239  0.61741  1.0000
  N   N55       1.0  0.71580  0.12376  0.79293  1.0000
  C   C835      1.0  0.69193  0.13205  0.78338  1.0000
  C   C836      1.0  0.70854  0.10958  0.79734  1.0000
  C   C837      1.0  0.72193  0.12849  0.81761  1.0000
  C   C838      1.0  0.73942  0.12458  0.77529  1.0000
  C   C839      1.0  0.76435  0.11798  0.78240  1.0000
  C   C840      1.0  0.73857  0.13183  0.75086  1.0000
  C   C841      1.0  0.78714  0.11894  0.76643  1.0000
  C   C842      1.0  0.76139  0.13250  0.73488  1.0000
  C   C843      1.0  0.78567  0.12622  0.74275  1.0000
  H   H1003     1.0  0.68520  0.12868  0.76545  1.0000
  H   H1004     1.0  0.67460  0.13128  0.79707  1.0000
  H   H1005     1.0  0.69579  0.14293  0.78021  1.0000
  H   H1006     1.0  0.70402  0.10559  0.77922  1.0000
  H   H1007     1.0  0.69052  0.10868  0.81032  1.0000
  H   H1008     1.0  0.72475  0.10282  0.80622  1.0000
  H   H1009     1.0  0.72925  0.13878  0.81495  1.0000
  H   H1010     1.0  0.70402  0.12889  0.83072  1.0000
  H   H1011     1.0  0.73726  0.12177  0.82789  1.0000
  H   H1012     1.0  0.76650  0.11219  0.80055  1.0000
  H   H1013     1.0  0.72074  0.13738  0.74380  1.0000
  H   H1014     1.0  0.92436  0.13349  0.66382  1.0000
  H   H1015     1.0  0.50772  0.09244  0.95406  1.0000
  H   H1016     1.0  0.54270  0.05140  0.88376  1.0000
  S   S235      1.0  0.85583  0.04557  0.50021  1.0000
  C   C844      1.0  0.98764  0.16092  0.71045  1.0000
  C   C845      1.0  0.51945  0.10107  0.89418  1.0000
  C   C846      1.0  0.66651  0.23616  0.87405  1.0000
  C   C847      1.0  0.97683  0.13150  0.64894  1.0000
  C   C848      1.0  0.89384  0.01282  0.50258  1.0000
  H   H1017     1.0  0.51015  0.06249  0.94322  1.0000
  H   H1018     1.0  0.80996  0.01174  0.66257  1.0000
  H   H1019     1.0  0.90153  0.22438  0.71769  1.0000
  C   C849      1.0  0.89209  0.22590  0.69959  1.0000
  H   H1020     1.0  0.82634  0.21915  0.78049  1.0000
  C   C850      1.0  0.72115  0.22099  0.82663  1.0000
  H   H1021     1.0  0.98301  0.07694  0.60477  1.0000
  H   H1022     1.0  0.99404  0.13255  0.63522  1.0000
  H   H1023     1.0  0.70304  0.99736  0.77526  1.0000
  C   C851      1.0  0.90222  0.00225  0.54410  1.0000
  H   H1024     1.0  0.92063  0.99635  0.53800  1.0000
  H   H1025     1.0  0.97092  0.14166  0.65540  1.0000
  C   C852      1.0  0.94375  0.13609  0.61758  1.0000
  H   H1026     1.0  0.85937  0.23157  0.63439  1.0000
  H   H1027     1.0  0.65088  0.21250  0.83541  1.0000
  C   C853      1.0  0.72856  0.23209  0.80958  1.0000
  H   H1028     1.0  0.56607  0.06831  0.89918  1.0000
  H   H1029     1.0  0.99080  0.08131  0.64893  1.0000
  C   C854      1.0  0.99039  0.06025  0.56425  1.0000
  C   C855      1.0  0.99664  0.01193  0.59825  1.0000
  H   H1030     1.0  0.50680  0.11038  0.89250  1.0000
  H   H1031     1.0  0.69463  0.00542  0.89745  1.0000
  H   H1032     1.0  0.84111  0.99244  0.67653  1.0000
  C   C856      1.0  0.89315  0.99045  0.62466  1.0000
  H   H1033     1.0  0.55600  0.11119  0.89041  1.0000
  H   H1034     1.0  0.96204  0.09487  0.57536  1.0000
  C   C857      1.0  0.93273  0.12375  0.65721  1.0000
  H   H1035     1.0  0.87940  0.01530  0.48727  1.0000
  H   H1036     1.0  0.91596  0.11878  0.64984  1.0000
  C   C858      1.0  0.50800  0.08865  0.89736  1.0000
  C   C859      1.0  0.56849  0.22716  0.85061  1.0000
  H   H1037     1.0  0.71868  0.22160  0.84684  1.0000
  C   C860      1.0  0.97059  0.21906  0.71120  1.0000
  H   H1038     1.0  0.92554  0.13295  0.60929  1.0000
  C   C861      1.0  0.56341  0.08962  0.89494  1.0000
  N   N56       1.0  0.88243  0.00400  0.52386  1.0000
  H   H1039     1.0  0.86167  0.02136  0.53912  1.0000
  C   C862      1.0  0.71600  0.20867  0.81792  1.0000
  H   H1040     1.0  0.98385  0.12531  0.66623  1.0000
  C   C863      1.0  0.86838  0.23000  0.65270  1.0000
  C   C864      1.0  0.52472  0.03046  0.95816  1.0000
  H   H1041     1.0  0.68283  0.00110  0.94818  1.0000
  N   N57       1.0  0.95422  0.12580  0.63749  1.0000
  H   H1042     1.0  0.94880  0.11694  0.58893  1.0000
  C   C865      1.0  0.96289  0.11266  0.62783  1.0000
  H   H1043     1.0  0.88828  0.99593  0.68306  1.0000
  H   H1044     1.0  0.84250  0.01292  0.51866  1.0000
  H   H1045     1.0  0.65334  0.22619  0.79191  1.0000
  C   C866      1.0  0.53076  0.05127  0.90195  1.0000
  C   C867      1.0  0.54174  0.03742  0.97155  1.0000
  H   H1046     1.0  0.64985  0.23754  0.83704  1.0000
  C   C868      1.0  0.95524  0.23118  0.67216  1.0000
  C   C869      1.0  0.99277  0.07135  0.54629  1.0000
  H   H1047     1.0  0.94492  0.23058  0.65492  1.0000
  H   H1048     1.0  0.60471  0.23148  0.79745  1.0000
  C   C870      1.0  0.65733  0.23080  0.85270  1.0000
  N   N58       1.0  0.51138  0.06325  0.90249  1.0000
  C   C871      1.0  0.72983  0.23010  0.78335  1.0000
  H   H1049     1.0  0.76175  0.99469  0.81688  1.0000
  H   H1050     1.0  0.89438  0.99693  0.56191  1.0000
  C   C872      1.0  0.51054  0.15815  0.78150  1.0000
  H   H1051     1.0  0.97800  0.10342  0.66385  1.0000
  C   C873      1.0  0.51184  0.17418  0.82158  1.0000
  H   H1052     1.0  0.75394  0.23746  0.85159  1.0000
  H   H1053     1.0  0.97850  0.00887  0.60831  1.0000
  H   H1054     1.0  0.68315  0.23135  0.91076  1.0000
  H   H1055     1.0  0.63267  0.99986  0.94735  1.0000
  C   C874      1.0  0.82163  0.23734  0.71291  1.0000
  C   C875      1.0  0.63561  0.99713  0.87648  1.0000
  H   H1056     1.0  0.70080  0.99105  0.97273  1.0000
  H   H1057     1.0  0.98808  0.23089  0.73705  1.0000
  C   C876      1.0  0.61634  0.23786  0.78419  1.0000
  H   H1058     1.0  0.62737  0.98976  0.86592  1.0000
  H   H1059     1.0  0.69223  0.98996  0.80570  1.0000
  H   H1060     1.0  0.70414  0.06316  0.97860  1.0000
  H   H1061     1.0  0.73422  0.23820  0.76913  1.0000
  C   C877      1.0  0.87604  0.99067  0.51656  1.0000
  Fe  Fe119     1.0  0.64754  0.45052  0.19676  1.0000
  S   S236      1.0  0.65462  0.46435  0.16152  1.0000
  S   S237      1.0  0.67800  0.44612  0.22884  1.0000
  Fe  Fe120     1.0  0.58845  0.44693  0.18186  1.0000
  S   S238      1.0  0.59256  0.46081  0.14640  1.0000
  S   S239      1.0  0.54966  0.43618  0.19089  1.0000
  Fe  Fe121     1.0  0.63291  0.44992  0.14090  1.0000
  S   S240      1.0  0.64552  0.44649  0.10012  1.0000
  Fe  Fe122     1.0  0.61372  0.47376  0.17015  1.0000
  S   S241      1.0  0.62836  0.43519  0.17542  1.0000
  S   S242      1.0  0.60713  0.46066  0.20634  1.0000
  H   H1062     1.0  0.60495  0.39524  0.06676  1.0000
  H   H1063     1.0  0.52313  0.46298  0.17625  1.0000
  Fe  Fe123     1.0  0.64695  0.39008  0.00572  1.0000
  S   S243      1.0  0.66512  0.39336  0.04298  1.0000
  H   H1064     1.0  0.74803  0.43176  0.98809  1.0000
  C   C878      1.0  0.50806  0.45573  0.17873  1.0000
  Fe  Fe124     1.0  0.88372  0.45159  0.31308  1.0000
  S   S244      1.0  0.87798  0.46137  0.34944  1.0000
  S   S245      1.0  0.92549  0.44519  0.29675  1.0000
  Fe  Fe125     1.0  0.82337  0.45807  0.29868  1.0000
  S   S246      1.0  0.81479  0.46875  0.33416  1.0000
  S   S247      1.0  0.79405  0.45920  0.26527  1.0000
  Fe  Fe126     1.0  0.85420  0.47775  0.32681  1.0000
  Fe  Fe127     1.0  0.83930  0.45138  0.35435  1.0000
  S   S248      1.0  0.82287  0.44541  0.39419  1.0000
  S   S249      1.0  0.86161  0.46861  0.28999  1.0000
  S   S250      1.0  0.84620  0.44004  0.31928  1.0000
  C   C879      1.0  0.86103  0.41578  0.45625  1.0000
  C   C880      1.0  0.87172  0.41618  0.43126  1.0000
  C   C881      1.0  0.86067  0.42539  0.41204  1.0000
  C   C882      1.0  0.83818  0.43388  0.41752  1.0000
  C   C883      1.0  0.82734  0.43332  0.44243  1.0000
  C   C884      1.0  0.95956  0.47988  0.27653  1.0000
  H   H1065     1.0  0.88845  0.40928  0.42665  1.0000
  H   H1066     1.0  0.86903  0.42564  0.39286  1.0000
  H   H1067     1.0  0.80960  0.43965  0.44671  1.0000
  C   C885      1.0  0.96102  0.41060  0.47761  1.0000
  C   C886      1.0  0.71012  0.45026  0.23866  1.0000
  C   C887      1.0  0.72780  0.45768  0.22271  1.0000
  C   C888      1.0  0.75309  0.46033  0.23125  1.0000
  C   C889      1.0  0.76137  0.45568  0.25587  1.0000
  C   C890      1.0  0.74362  0.44832  0.27184  1.0000
  C   C891      1.0  0.71835  0.44564  0.26328  1.0000
  H   H1068     1.0  0.72228  0.46122  0.20365  1.0000
  H   H1069     1.0  0.76649  0.46599  0.21860  1.0000
  H   H1070     1.0  0.74944  0.44461  0.29077  1.0000
  H   H1071     1.0  0.70511  0.43986  0.27590  1.0000
  C   C892      1.0  0.64686  0.43104  0.08609  1.0000
  C   C893      1.0  0.65805  0.41906  0.09842  1.0000
  C   C894      1.0  0.66315  0.40752  0.08509  1.0000
  C   C895      1.0  0.65660  0.40777  0.05953  1.0000
  C   C896      1.0  0.64429  0.41957  0.04758  1.0000
  C   C897      1.0  0.63969  0.43117  0.06075  1.0000
  H   H1072     1.0  0.66385  0.41886  0.11785  1.0000
  H   H1073     1.0  0.67259  0.39841  0.09448  1.0000
  H   H1074     1.0  0.63916  0.41995  0.02796  1.0000
  H   H1075     1.0  0.63105  0.44039  0.05105  1.0000
  C   C898      1.0  0.59135  0.40096  0.07980  1.0000
  C   C899      1.0  0.55340  0.41627  0.10920  1.0000
  H   H1076     1.0  0.56370  0.35281  0.99455  1.0000
  H   H1077     1.0  0.60776  0.48284  0.00101  1.0000
  C   C900      1.0  0.51567  0.44211  0.18528  1.0000
  H   H1078     1.0  0.54970  0.41507  0.03446  1.0000
  H   H1079     1.0  0.57618  0.42281  0.04819  1.0000
  C   C901      1.0  0.53499  0.42321  0.12470  1.0000
  H   H1080     1.0  0.54889  0.38535  0.08133  1.0000
  C   C902      1.0  0.95790  0.44671  0.30844  1.0000
  C   C903      1.0  0.96183  0.44857  0.33381  1.0000
  C   C904      1.0  0.69071  0.44059  0.01374  1.0000
  H   H1081     1.0  0.94489  0.44889  0.34707  1.0000
  H   H1082     1.0  0.73127  0.42058  0.01109  1.0000
  H   H1083     1.0  0.92178  0.47207  0.30983  1.0000
  C   C905      1.0  0.50863  0.42595  0.11771  1.0000
  C   C906      1.0  0.95857  0.41900  0.43332  1.0000
  C   C907      1.0  0.69065  0.41649  0.98330  1.0000
  Fe  Fe128     1.0  0.59312  0.38986  0.98253  1.0000
  C   C908      1.0  0.83597  0.46601  0.45371  1.0000
  H   H1084     1.0  0.68155  0.47666  0.20272  1.0000
  H   H1085     1.0  0.88343  0.35763  0.47527  1.0000
  C   C909      1.0  0.54575  0.41180  0.08603  1.0000
  C   C910      1.0  0.55378  0.39167  0.06354  1.0000
  H   H1086     1.0  0.94696  0.42156  0.41656  1.0000
  C   C911      1.0  0.99790  0.48220  0.36789  1.0000
  S   S251      1.0  0.61826  0.37401  0.00491  1.0000
  C   C912      1.0  0.69026  0.48096  0.26518  1.0000
  H   H1087     1.0  0.68628  0.41422  0.00393  1.0000
  H   H1088     1.0  0.97710  0.47554  0.28747  1.0000
  H   H1089     1.0  0.53543  0.39336  0.05237  1.0000
  N   N59       1.0  0.56465  0.40447  0.06904  1.0000
  H   H1090     1.0  0.57347  0.41458  0.11586  1.0000
  C   C913      1.0  0.98899  0.41202  0.47718  1.0000
  C   C914      1.0  0.98588  0.42064  0.43230  1.0000
  H   H1091     1.0  0.75351  0.48351  0.28378  1.0000
  H   H1092     1.0  0.51162  0.41215  0.06173  1.0000
  H   H1093     1.0  0.96269  0.47104  0.37341  1.0000
  H   H1094     1.0  0.83812  0.45629  0.46578  1.0000
  C   C915      1.0  0.97065  0.48085  0.37307  1.0000
  C   C916      1.0  0.56853  0.41296  0.04487  1.0000
  H   H1095     1.0  0.54120  0.42650  0.14232  1.0000
  C   C917      1.0  0.98040  0.44602  0.29167  1.0000
  H   H1096     1.0  0.84737  0.36079  0.47512  1.0000
  H   H1097     1.0  0.99066  0.45065  0.36199  1.0000
  N   N60       1.0  0.86217  0.47092  0.44483  1.0000
  H   H1098     1.0  0.69474  0.43189  0.02713  1.0000
  C   C918      1.0  0.94618  0.41405  0.45595  1.0000
  H   H1099     1.0  0.99551  0.42452  0.41467  1.0000
  S   S252      1.0  0.55086  0.39304  0.99696  1.0000
  H   H1100     1.0  0.52210  0.36518  0.98596  1.0000
  C   C919      1.0  0.71283  0.47892  0.27996  1.0000
  C   C920      1.0  0.67451  0.48755  0.20095  1.0000
  H   H1101     1.0  0.56818  0.38560  0.05183  1.0000
  H   H1102     1.0  0.94963  0.47676  0.32625  1.0000
  H   H1103     1.0  0.58303  0.40789  0.03175  1.0000
  C   C921      1.0  0.73435  0.42342  0.99044  1.0000
  C   C922      1.0  0.67927  0.45236  0.02337  1.0000
  H   H1104     1.0  0.87749  0.45048  0.43890  1.0000
  C   C923      1.0  0.51880  0.41497  0.07929  1.0000
  H   H1105     1.0  0.67506  0.45253  0.04361  1.0000
  N   N61       1.0  0.71672  0.42307  0.17409  1.0000
  C   C924      1.0  0.69412  0.41616  0.18722  1.0000
  C   C925      1.0  0.70592  0.43644  0.16280  1.0000
  C   C926      1.0  0.72706  0.41488  0.15338  1.0000
  C   C927      1.0  0.73860  0.42490  0.19103  1.0000
  C   C928      1.0  0.76176  0.43122  0.18122  1.0000
  C   C929      1.0  0.73763  0.42071  0.21744  1.0000
  C   C930      1.0  0.78253  0.43324  0.19685  1.0000
  C   C931      1.0  0.75864  0.42269  0.23282  1.0000
  C   C932      1.0  0.78097  0.42898  0.22260  1.0000
  H   H1106     1.0  0.68448  0.42211  0.20232  1.0000
  H   H1107     1.0  0.67812  0.41482  0.17398  1.0000
  H   H1108     1.0  0.70071  0.40592  0.19588  1.0000
  H   H1109     1.0  0.69912  0.44306  0.17791  1.0000
  H   H1110     1.0  0.68860  0.43558  0.15075  1.0000
  H   H1111     1.0  0.72092  0.44182  0.15053  1.0000
  H   H1112     1.0  0.73635  0.40495  0.16118  1.0000
  H   H1113     1.0  0.71090  0.41291  0.14076  1.0000
  H   H1114     1.0  0.74237  0.41996  0.14095  1.0000
  H   H1115     1.0  0.76382  0.43485  0.16145  1.0000
  H   H1116     1.0  0.72056  0.41625  0.22693  1.0000
  H   H1117     1.0  0.79978  0.43836  0.18915  1.0000
  H   H1118     1.0  0.75721  0.41977  0.25304  1.0000
  H   H1119     1.0  0.79672  0.43093  0.23485  1.0000
  H   H1120     1.0  0.63618  0.48770  0.25501  1.0000
  C   C933      1.0  0.83906  0.42455  0.46184  1.0000
  S   S253      1.0  0.62039  0.40623  0.98573  1.0000
  H   H1121     1.0  0.91837  0.48662  0.32678  1.0000
  H   H1122     1.0  0.67366  0.47507  0.27146  1.0000
  C   C934      1.0  0.98784  0.44964  0.34219  1.0000
  H   H1123     1.0  0.60157  0.41014  0.08292  1.0000
  H   H1124     1.0  0.97774  0.44443  0.27206  1.0000
  H   H1125     1.0  0.94912  0.47107  0.27149  1.0000
  H   H1126     1.0  0.96666  0.48518  0.25837  1.0000
  C   C935      1.0  0.73571  0.48556  0.27276  1.0000
  H   H1127     1.0  0.62613  0.48671  0.22337  1.0000
  H   H1128     1.0  0.82363  0.46427  0.43748  1.0000
  H   H1129     1.0  0.71299  0.47174  0.29666  1.0000
  H   H1130     1.0  0.58992  0.39450  0.09804  1.0000
  H   H1131     1.0  0.89703  0.46361  0.42382  1.0000
  C   C936      1.0  0.93250  0.48079  0.31461  1.0000
  C   C937      1.0  0.87797  0.47269  0.46706  1.0000
  C   C938      1.0  0.64336  0.48468  0.23609  1.0000
  H   H1132     1.0  0.66377  0.47285  0.01454  1.0000
  C   C939      1.0  0.87637  0.46086  0.42915  1.0000
  H   H1133     1.0  0.74490  0.41442  0.98260  1.0000
  H   H1134     1.0  0.64818  0.47355  0.23756  1.0000
  H   H1135     1.0  0.86593  0.46006  0.41128  1.0000
  C   C940      1.0  0.67287  0.46380  0.00706  1.0000
  H   H1136     1.0  0.92488  0.41286  0.45676  1.0000
  C   C941      1.0  0.69648  0.44002  0.98738  1.0000
  H   H1137     1.0  0.90880  0.48481  0.26920  1.0000
  C   C942      1.0  0.85697  0.48353  0.42801  1.0000
  H   H1138     1.0  0.50855  0.44189  0.24641  1.0000
  C   C943      1.0  0.67797  0.46356  0.98109  1.0000
  H   H1139     1.0  0.84574  0.48173  0.41112  1.0000
  H   H1140     1.0  0.82441  0.47341  0.46513  1.0000
  C   C944      1.0  0.88447  0.48557  0.47342  1.0000
  H   H1141     1.0  0.87585  0.48792  0.42075  1.0000
  H   H1142     1.0  0.86832  0.37446  0.47396  1.0000
  H   H1143     1.0  0.50108  0.42234  0.19354  1.0000
  C   C945      1.0  0.50055  0.42185  0.09502  1.0000
  H   H1144     1.0  0.76196  0.26056  0.81293  1.0000
  C   C946      1.0  0.95021  0.25498  0.63772  1.0000
  S   S254      1.0  0.64041  0.47596  0.92172  1.0000
  C   C947      1.0  0.85959  0.33412  0.56218  1.0000
  H   H1145     1.0  0.52850  0.47766  0.88452  1.0000
  S   S255      1.0  0.85935  0.45739  0.68471  1.0000
  Fe  Fe129     1.0  0.86634  0.27584  0.67391  1.0000
  S   S256      1.0  0.88258  0.27497  0.71284  1.0000
  S   S257      1.0  0.86444  0.25762  0.65181  1.0000
  Fe  Fe130     1.0  0.85416  0.30675  0.67067  1.0000
  S   S258      1.0  0.86964  0.30767  0.70945  1.0000
  S   S259      1.0  0.83439  0.32583  0.65015  1.0000
  Fe  Fe131     1.0  0.90385  0.29335  0.69733  1.0000
  S   S260      1.0  0.94776  0.29838  0.69407  1.0000
  Fe  Fe132     1.0  0.84657  0.28925  0.72065  1.0000
  S   S261      1.0  0.81902  0.28731  0.75631  1.0000
  S   S262      1.0  0.88899  0.29344  0.65782  1.0000
  S   S263      1.0  0.82951  0.28905  0.68248  1.0000
  Fe  Fe133     1.0  0.60486  0.28226  0.81792  1.0000
  S   S264      1.0  0.61461  0.28462  0.85819  1.0000
  S   S265      1.0  0.56527  0.27425  0.80836  1.0000
  Fe  Fe134     1.0  0.66416  0.28540  0.79888  1.0000
  S   S266      1.0  0.67715  0.28825  0.83776  1.0000
  S   S267      1.0  0.69212  0.28323  0.76393  1.0000
  Fe  Fe135     1.0  0.65143  0.27112  0.85044  1.0000
  S   S268      1.0  0.66769  0.25363  0.87686  1.0000
  Fe  Fe136     1.0  0.63912  0.30157  0.84160  1.0000
  S   S269      1.0  0.63622  0.32328  0.85238  1.0000
  S   S270      1.0  0.64039  0.26764  0.81163  1.0000
  S   S271      1.0  0.62752  0.29986  0.80127  1.0000
  Fe  Fe137     1.0  0.64001  0.39920  0.95005  1.0000
  H   H1146     1.0  0.54041  0.46657  0.84675  1.0000
  S   S272      1.0  0.65463  0.41296  0.91696  1.0000
  H   H1147     1.0  0.59807  0.46448  0.88630  1.0000
  H   H1148     1.0  0.85480  0.31327  0.55787  1.0000
  S   S273      1.0  0.64393  0.34727  0.95928  1.0000
  S   S274      1.0  0.60983  0.38427  0.94469  1.0000
  Fe  Fe138     1.0  0.85274  0.42043  0.56903  1.0000
  S   S275      1.0  0.84722  0.40039  0.55389  1.0000
  S   S276      1.0  0.82193  0.43536  0.58477  1.0000
  Fe  Fe139     1.0  0.91115  0.41987  0.55485  1.0000
  S   S277      1.0  0.91133  0.39990  0.53936  1.0000
  S   S278      1.0  0.94653  0.43242  0.55161  1.0000
  Fe  Fe140     1.0  0.87351  0.40806  0.52085  1.0000
  Fe  Fe141     1.0  0.88547  0.39354  0.57343  1.0000
  S   S279      1.0  0.89921  0.37273  0.59183  1.0000
  S   S280      1.0  0.87530  0.42857  0.53409  1.0000
  S   S281      1.0  0.88910  0.41307  0.59080  1.0000
  H   H1149     1.0  0.56409  0.43574  0.91472  1.0000
  H   H1150     1.0  0.72404  0.41912  0.94327  1.0000
  C   C948      1.0  0.63852  0.32962  0.88239  1.0000
  C   C949      1.0  0.64213  0.32115  0.90474  1.0000
  C   C950      1.0  0.64390  0.32672  0.92806  1.0000
  C   C951      1.0  0.64209  0.34078  0.92933  1.0000
  C   C952      1.0  0.63839  0.34924  0.90701  1.0000
  C   C953      1.0  0.63656  0.34368  0.88372  1.0000
  H   H1151     1.0  0.64370  0.31033  0.90403  1.0000
  H   H1152     1.0  0.64684  0.32007  0.94519  1.0000
  H   H1153     1.0  0.63715  0.36007  0.90761  1.0000
  H   H1154     1.0  0.63385  0.35033  0.86655  1.0000
  H   H1155     1.0  0.88194  0.45124  0.48042  1.0000
  H   H1156     1.0  0.88784  0.24748  0.69982  1.0000
  C   C954      1.0  0.85273  0.33911  0.63523  1.0000
  C   C955      1.0  0.88058  0.33788  0.63274  1.0000
  C   C956      1.0  0.89442  0.34838  0.61976  1.0000
  C   C957      1.0  0.88068  0.36028  0.60938  1.0000
  C   C958      1.0  0.85282  0.36161  0.61217  1.0000
  C   C959      1.0  0.83893  0.35104  0.62491  1.0000
  H   H1157     1.0  0.89147  0.32877  0.64052  1.0000
  H   H1158     1.0  0.91595  0.34722  0.61765  1.0000
  H   H1159     1.0  0.84197  0.37069  0.60422  1.0000
  H   H1160     1.0  0.81738  0.35207  0.62666  1.0000
  C   C960      1.0  0.78389  0.28559  0.75822  1.0000
  C   C961      1.0  0.76970  0.28291  0.73734  1.0000
  C   C962      1.0  0.74173  0.28215  0.73949  1.0000
  C   C963      1.0  0.72750  0.28405  0.76248  1.0000
  C   C964      1.0  0.74171  0.28654  0.78346  1.0000
  C   C965      1.0  0.76971  0.28724  0.78134  1.0000
  H   H1161     1.0  0.78023  0.28151  0.71945  1.0000
  H   H1162     1.0  0.73103  0.28021  0.72310  1.0000
  H   H1163     1.0  0.73114  0.28814  0.80125  1.0000
  H   H1164     1.0  0.78039  0.28936  0.79763  1.0000
  C   C966      1.0  0.84737  0.45150  0.65738  1.0000
  C   C967      1.0  0.85177  0.43775  0.65390  1.0000
  C   C968      1.0  0.84368  0.43273  0.63183  1.0000
  C   C969      1.0  0.83071  0.44139  0.61324  1.0000
  C   C970      1.0  0.82545  0.45507  0.61712  1.0000
  C   C971      1.0  0.83405  0.46017  0.63900  1.0000
  H   H1165     1.0  0.86191  0.43097  0.66813  1.0000
  H   H1166     1.0  0.84737  0.42212  0.62925  1.0000
  H   H1167     1.0  0.81528  0.46181  0.60286  1.0000
  H   H1168     1.0  0.83044  0.47078  0.64157  1.0000
  C   C972      1.0  0.64268  0.45857  0.91909  1.0000
  C   C973      1.0  0.65313  0.45314  0.89712  1.0000
  C   C974      1.0  0.65603  0.43907  0.89636  1.0000
  C   C975      1.0  0.64806  0.43047  0.91735  1.0000
  C   C976      1.0  0.63673  0.43600  0.93889  1.0000
  C   C977      1.0  0.63434  0.45000  0.93987  1.0000
  H   H1169     1.0  0.65962  0.45974  0.88102  1.0000
  H   H1170     1.0  0.66487  0.43483  0.87964  1.0000
  H   H1171     1.0  0.52449  0.33688  0.92817  1.0000
  H   H1172     1.0  0.62616  0.45419  0.95688  1.0000
  H   H1173     1.0  0.63031  0.42953  0.95504  1.0000
  C   C978      1.0  0.51044  0.27454  0.80859  1.0000
  Fe  Fe142     1.0  0.86028  0.47964  0.68890  1.0000
  C   C979      1.0  0.51317  0.39277  0.93104  1.0000
  H   H1174     1.0  0.68030  0.24127  0.76320  1.0000
  C   C980      1.0  0.97948  0.29111  0.70394  1.0000
  C   C981      1.0  0.98240  0.28101  0.72402  1.0000
  C   C982      1.0  0.90830  0.47542  0.50999  1.0000
  H   H1175     1.0  0.96488  0.27729  0.73409  1.0000
  C   C983      1.0  0.52826  0.29645  0.80165  1.0000
  C   C984      1.0  0.53260  0.28246  0.80665  1.0000
  N   N62       1.0  0.73295  0.24544  0.81815  1.0000
  H   H1176     1.0  0.54507  0.30268  0.79986  1.0000
  H   H1177     1.0  0.67256  0.47242  0.96833  1.0000
  C   C985      1.0  0.88454  0.23905  0.68938  1.0000
  C   C986      1.0  0.75666  0.25127  0.80476  1.0000
  H   H1178     1.0  0.94681  0.26736  0.69520  1.0000
  C   C987      1.0  0.97240  0.42452  0.56978  1.0000
  C   C988      1.0  0.96865  0.41253  0.58498  1.0000
  H   H1179     1.0  0.58269  0.25098  0.77415  1.0000
  H   H1180     1.0  0.94938  0.40832  0.58640  1.0000
  H   H1181     1.0  0.92192  0.46264  0.63729  1.0000
  H   H1182     1.0  0.93888  0.45961  0.56792  1.0000
  H   H1183     1.0  0.76948  0.46840  0.70255  1.0000
  C   C989      1.0  0.84190  0.37210  0.51854  1.0000
  C   C990      1.0  0.60386  0.24908  0.77043  1.0000
  H   H1184     1.0  0.70533  0.25611  0.79188  1.0000
  N   N63       1.0  0.78885  0.32894  0.72140  1.0000
  C   C991      1.0  0.80037  0.34059  0.70633  1.0000
  C   C992      1.0  0.80535  0.32540  0.74394  1.0000
  C   C993      1.0  0.79128  0.31748  0.70542  1.0000
  C   C994      1.0  0.76058  0.33156  0.72968  1.0000
  C   C995      1.0  0.74591  0.34416  0.72408  1.0000
  C   C996      1.0  0.74688  0.32129  0.74401  1.0000
  C   C997      1.0  0.71927  0.34624  0.73255  1.0000
  C   C998      1.0  0.72027  0.32344  0.75228  1.0000
  C   C999      1.0  0.70651  0.33592  0.74665  1.0000
  H   H1185     1.0  0.80020  0.34952  0.71739  1.0000
  H   H1186     1.0  0.82161  0.33817  0.70030  1.0000
  H   H1187     1.0  0.78965  0.34341  0.68844  1.0000
  H   H1188     1.0  0.80325  0.33354  0.75701  1.0000
  H   H1189     1.0  0.82690  0.32371  0.73853  1.0000
  H   H1190     1.0  0.79980  0.31592  0.75497  1.0000
  H   H1191     1.0  0.78584  0.30788  0.71596  1.0000
  H   H1192     1.0  0.77850  0.31949  0.68866  1.0000
  H   H1193     1.0  0.81211  0.31559  0.69812  1.0000
  H   H1194     1.0  0.75453  0.35257  0.71321  1.0000
  H   H1195     1.0  0.75671  0.31148  0.74898  1.0000
  H   H1196     1.0  0.70843  0.35594  0.72820  1.0000
  H   H1197     1.0  0.71031  0.31537  0.76318  1.0000
  H   H1198     1.0  0.68591  0.33758  0.75327  1.0000
  N   N64       1.0  0.60611  0.26962  0.73810  1.0000
  C   C1000     1.0  0.61246  0.28194  0.74939  1.0000
  C   C1001     1.0  0.61658  0.27038  0.71138  1.0000
  C   C1002     1.0  0.57656  0.26955  0.73750  1.0000
  H   H1199     1.0  0.67130  0.41912  0.97403  1.0000
  C   C1003     1.0  0.56931  0.24110  0.84518  1.0000
  H   H1200     1.0  0.61038  0.24758  0.89089  1.0000
  H   H1201     1.0  0.56209  0.48104  0.88893  1.0000
  C   C1004     1.0  0.99739  0.42986  0.56796  1.0000
  H   H1202     1.0  0.82106  0.24260  0.69402  1.0000
  H   H1203     1.0  0.63438  0.28281  0.75004  1.0000
  H   H1204     1.0  0.60380  0.29127  0.73868  1.0000
  C   C1005     1.0  0.90192  0.46270  0.50456  1.0000
  H   H1205     1.0  0.63780  0.27287  0.70950  1.0000
  H   H1206     1.0  0.60558  0.27847  0.69921  1.0000
  H   H1207     1.0  0.61491  0.26065  0.70305  1.0000
  C   C1006     1.0  0.86229  0.34698  0.54988  1.0000
  H   H1208     1.0  0.94833  0.26485  0.62597  1.0000
  H   H1209     1.0  0.57052  0.26007  0.73063  1.0000
  H   H1210     1.0  0.50416  0.46078  0.87142  1.0000
  C   C1007     1.0  0.94074  0.26554  0.67600  1.0000
  H   H1211     1.0  0.81918  0.45625  0.76547  1.0000
  C   C1008     1.0  0.71487  0.42873  0.94995  1.0000
  H   H1212     1.0  0.69270  0.45243  0.95092  1.0000
  H   H1213     1.0  0.81609  0.47371  0.75238  1.0000
  H   H1214     1.0  0.59183  0.33524  0.95816  1.0000
  C   C1009     1.0  0.51083  0.45192  0.88347  1.0000
  C   C1010     1.0  0.51424  0.34293  0.94193  1.0000
  C   C1011     1.0  0.65893  0.24338  0.76505  1.0000
  H   H1215     1.0  0.75328  0.25459  0.78447  1.0000
  C   C1012     1.0  0.58408  0.45661  0.89287  1.0000
  H   H1216     1.0  0.72892  0.43668  0.94436  1.0000
  C   C1013     1.0  0.52543  0.42877  0.91495  1.0000
  H   H1217     1.0  0.51838  0.39155  0.91134  1.0000
  H   H1218     1.0  0.97370  0.40950  0.52835  1.0000
  H   H1219     1.0  0.56677  0.27074  0.75645  1.0000
  C   C1014     1.0  0.54434  0.43811  0.90756  1.0000
  H   H1220     1.0  0.58415  0.45570  0.91394  1.0000
  C   C1015     1.0  0.53327  0.39245  0.94870  1.0000
  N   N65       1.0  0.55807  0.35003  0.95534  1.0000
  C   C1016     1.0  0.90848  0.46827  0.62318  1.0000
  S   S282      1.0  0.87432  0.40359  0.47966  1.0000
  S   S283      1.0  0.62584  0.48717  0.84742  1.0000
  H   H1221     1.0  0.91402  0.47888  0.62135  1.0000
  H   H1222     1.0  0.54372  0.47208  0.91415  1.0000
  H   H1223     1.0  0.90895  0.44219  0.58675  1.0000
  N   N66       1.0  0.96036  0.25643  0.66317  1.0000
  C   C1017     1.0  0.70914  0.25470  0.81250  1.0000
  H   H1224     1.0  0.93815  0.27562  0.66511  1.0000
  H   H1225     1.0  0.55746  0.36717  0.92751  1.0000
  H   H1226     1.0  0.99321  0.26621  0.67718  1.0000
  C   C1018     1.0  0.61867  0.25768  0.75304  1.0000
  C   C1019     1.0  0.50213  0.30237  0.79798  1.0000
  H   H1227     1.0  0.83036  0.42418  0.48090  1.0000
  C   C1020     1.0  0.90695  0.44756  0.60420  1.0000
  H   H1228     1.0  0.50240  0.48484  0.83974  1.0000
  H   H1229     1.0  0.85953  0.33261  0.58273  1.0000
  H   H1230     1.0  0.98715  0.39648  0.60980  1.0000
  N   N67       1.0  0.91020  0.46222  0.59859  1.0000
  C   C1021     1.0  0.88996  0.46917  0.58147  1.0000
  H   H1231     1.0  0.57457  0.46932  0.84873  1.0000
  H   H1232     1.0  0.65965  0.26131  0.74015  1.0000
  C   C1022     1.0  0.64675  0.25472  0.75146  1.0000
  H   H1233     1.0  0.74671  0.47359  0.81190  1.0000
  N   N68       1.0  0.78999  0.46070  0.73661  1.0000
  C   C1023     1.0  0.81558  0.46304  0.74791  1.0000
  C   C1024     1.0  0.79211  0.44663  0.72945  1.0000
  C   C1025     1.0  0.78725  0.47003  0.71328  1.0000
  C   C1026     1.0  0.76633  0.46291  0.75376  1.0000
  C   C1027     1.0  0.76799  0.46748  0.77821  1.0000
  C   C1028     1.0  0.74044  0.46083  0.74584  1.0000
  C   C1029     1.0  0.74510  0.46976  0.79360  1.0000
  C   C1030     1.0  0.71767  0.46331  0.76128  1.0000
  C   C1031     1.0  0.72000  0.46780  0.78509  1.0000
  H   H1234     1.0  0.82276  0.36832  0.51342  1.0000
  H   H1235     1.0  0.83298  0.46111  0.73467  1.0000
  H   H1236     1.0  0.69804  0.46199  0.75462  1.0000
  H   H1237     1.0  0.79310  0.43926  0.74657  1.0000
  H   H1238     1.0  0.81038  0.44457  0.71727  1.0000
  H   H1239     1.0  0.83657  0.46364  0.54650  1.0000
  H   H1240     1.0  0.96375  0.24800  0.62708  1.0000
  H   H1241     1.0  0.78540  0.48073  0.71794  1.0000
  H   H1242     1.0  0.80482  0.46872  0.69996  1.0000
  H   H1243     1.0  0.78660  0.46977  0.78567  1.0000
  H   H1244     1.0  0.73755  0.45754  0.72739  1.0000
  H   H1245     1.0  0.98451  0.33783  0.67147  1.0000
  H   H1246     1.0  0.82518  0.24382  0.77418  1.0000
  H   H1247     1.0  0.70227  0.47012  0.79674  1.0000
  C   C1032     1.0  0.53756  0.45001  0.89149  1.0000
  H   H1248     1.0  0.55833  0.24634  0.82959  1.0000
  H   H1249     1.0  0.95299  0.45817  0.59857  1.0000
  C   C1033     1.0  0.51319  0.35870  0.97402  1.0000
  H   H1250     1.0  0.98250  0.25201  0.71004  1.0000
  H   H1251     1.0  0.69096  0.25081  0.82249  1.0000
  C   C1034     1.0  0.55921  0.46216  0.85540  1.0000
  C   C1035     1.0  0.56961  0.33583  0.95761  1.0000
  H   H1252     1.0  0.90761  0.36146  0.51489  1.0000
  H   H1253     1.0  0.77444  0.24392  0.80592  1.0000
  C   C1036     1.0  0.59840  0.24183  0.87986  1.0000
  H   H1254     1.0  0.56441  0.36804  0.97314  1.0000
  C   C1037     1.0  0.54731  0.47328  0.89324  1.0000
  H   H1255     1.0  0.55392  0.39111  0.94254  1.0000
  C   C1038     1.0  0.87063  0.46224  0.57005  1.0000
  H   H1256     1.0  0.71900  0.24238  0.85736  1.0000
  H   H1257     1.0  0.53093  0.41979  0.92730  1.0000
  H   H1258     1.0  0.82234  0.25565  0.73123  1.0000
  N   N69       1.0  0.86505  0.36316  0.51069  1.0000
  H   H1259     1.0  0.58848  0.35696  0.92839  1.0000
  H   H1260     1.0  0.56482  0.45243  0.84725  1.0000
  H   H1261     1.0  0.56771  0.27816  0.72496  1.0000
  C   C1039     1.0  0.86244  0.34935  0.52307  1.0000
  H   H1262     1.0  0.74189  0.25490  0.85162  1.0000
  H   H1263     1.0  0.86939  0.45146  0.57329  1.0000
  Fe  Fe143     1.0  0.63734  0.36940  0.96711  1.0000
  C   C1040     1.0  0.88680  0.46132  0.48355  1.0000
  H   H1264     1.0  0.86423  0.35511  0.56159  1.0000
  H   H1265     1.0  0.89348  0.37846  0.50828  1.0000
  N   N70       1.0  0.55684  0.46025  0.88349  1.0000
  H   H1266     1.0  0.88720  0.44576  0.61350  1.0000
  C   C1041     1.0  0.68967  0.45190  0.97127  1.0000
  C   C1042     1.0  0.58420  0.24842  0.85981  1.0000
  C   C1043     1.0  0.85963  0.33801  0.50930  1.0000
  H   H1267     1.0  0.92084  0.26131  0.67811  1.0000
  C   C1044     1.0  0.93721  0.46373  0.58677  1.0000
  C   C1045     1.0  0.85695  0.32516  0.52182  1.0000
  C   C1046     1.0  0.97610  0.24299  0.70303  1.0000
  C   C1047     1.0  0.88938  0.48336  0.57554  1.0000
  H   H1268     1.0  0.77501  0.44440  0.71835  1.0000
  C   C1048     1.0  0.52646  0.39397  0.97419  1.0000
  H   H1269     1.0  0.94216  0.47445  0.58389  1.0000
  C   C1049     1.0  0.89943  0.48683  0.49461  1.0000
  C   C1050     1.0  0.85692  0.32322  0.54819  1.0000
  C   C1051     1.0  0.88990  0.36847  0.51857  1.0000
  H   H1270     1.0  0.58480  0.25923  0.85553  1.0000
  H   H1271     1.0  0.85483  0.31662  0.51103  1.0000
  H   H1272     1.0  0.91991  0.47648  0.52633  1.0000
  C   C1052     1.0  0.52856  0.35049  0.95742  1.0000
  S   S284      1.0  0.66899  0.38395  0.97013  1.0000
  H   H1273     1.0  0.59287  0.44700  0.88590  1.0000
  H   H1274     1.0  0.84290  0.38258  0.50931  1.0000
  H   H1275     1.0  0.56528  0.33027  0.94126  1.0000
  H   H1276     1.0  0.60421  0.28190  0.76919  1.0000
  H   H1277     1.0  0.84079  0.37288  0.53934  1.0000
  H   H1278     1.0  0.88781  0.46819  0.63167  1.0000
  H   H1279     1.0  0.90863  0.45385  0.51677  1.0000
  H   H1280     1.0  0.71135  0.26490  0.81867  1.0000
  C   C1053     1.0  0.86609  0.36393  0.48254  1.0000
  H   H1281     1.0  0.92228  0.44256  0.61715  1.0000
  C   C1054     1.0  0.85128  0.48314  0.54928  1.0000
  H   H1282     1.0  0.85943  0.33879  0.48887  1.0000
  H   H1283     1.0  0.95000  0.40689  0.49442  1.0000
  C   C1055     1.0  0.85153  0.46918  0.55437  1.0000
  H   H1284     1.0  0.99000  0.43858  0.66071  1.0000
  C   C1056     1.0  0.56990  0.35701  0.97519  1.0000
  H   H1285     1.0  0.88931  0.37004  0.53907  1.0000
  C   C1057     1.0  0.99005  0.40579  0.59813  1.0000
  H   H1286     1.0  0.98201  0.39290  0.51816  1.0000
  N   N71       1.0  0.70888  0.42747  0.97774  1.0000
  C   C1058     1.0  0.56639  0.35661  0.93031  1.0000
  H   H1287     1.0  0.56029  0.35118  0.91438  1.0000
  H   H1288     1.0  0.99782  0.45532  0.68941  1.0000
  H   H1289     1.0  0.00005  0.35419  0.63833  1.0000
  C   C1059     1.0  0.82245  0.24471  0.73384  1.0000
  H   H1290     1.0  0.56205  0.33019  0.97526  1.0000
  H   H1291     1.0  0.00001  0.42857  0.51177  1.0000
  H   H1292     1.0  0.69639  0.43107  0.93910  1.0000
  C   C1060     1.0  0.98601  0.26297  0.65935  1.0000
  C   C1061     1.0  0.96412  0.24347  0.67914  1.0000
  C   C1062     1.0  0.73725  0.24492  0.84581  1.0000
  H   H1293     1.0  0.92973  0.25129  0.63907  1.0000
  C   C1063     1.0  0.99035  0.40246  0.52214  1.0000
  S   S285      1.0  0.86877  0.48454  0.72803  1.0000
  H   H1294     1.0  0.98407  0.27239  0.64627  1.0000
  H   H1295     1.0  0.69926  0.40690  0.97618  1.0000
  C   C1064     1.0  0.87296  0.24117  0.66574  1.0000
  H   H1296     1.0  0.51351  0.26370  0.81231  1.0000
  H   H1297     1.0  0.59205  0.35591  0.97401  1.0000
  H   H1298     1.0  0.83631  0.48849  0.53728  1.0000
  Fe  Fe144     1.0  0.58533  0.57362  0.08486  1.0000
  S   S286      1.0  0.54493  0.57612  0.10461  1.0000
  Fe  Fe145     1.0  0.63783  0.55650  0.08301  1.0000
  S   S287      1.0  0.65136  0.56747  0.04636  1.0000
  S   S288      1.0  0.66312  0.53791  0.09712  1.0000
  Fe  Fe146     1.0  0.63536  0.58619  0.06478  1.0000
  S   S289      1.0  0.65700  0.60553  0.06025  1.0000
  S   S290      1.0  0.62483  0.57516  0.10235  1.0000
  S   S291      1.0  0.59728  0.55395  0.06962  1.0000
  Fe  Fe147     1.0  0.93184  0.53792  0.44025  1.0000
  C   C1065     1.0  0.93890  0.62814  0.38059  1.0000
  S   S292      1.0  0.96871  0.53002  0.41968  1.0000
  Fe  Fe148     1.0  0.87280  0.53526  0.44703  1.0000
  C   C1066     1.0  0.67130  0.68680  0.25759  1.0000
  S   S293      1.0  0.83865  0.52510  0.43270  1.0000
  Fe  Fe149     1.0  0.89528  0.56184  0.45454  1.0000
  S   S294      1.0  0.88656  0.58470  0.45080  1.0000
  C   C1067     1.0  0.83202  0.73140  0.25295  1.0000
  S   S295      1.0  0.89692  0.54933  0.42147  1.0000
  H   H1299     1.0  0.67301  0.51291  0.21285  1.0000
  Fe  Fe150     1.0  0.60644  0.65489  0.19952  1.0000
  S   S296      1.0  0.61374  0.67090  0.16789  1.0000
  S   S297      1.0  0.56718  0.64533  0.19473  1.0000
  Fe  Fe151     1.0  0.66405  0.65656  0.21940  1.0000
  S   S298      1.0  0.67370  0.67266  0.18882  1.0000
  S   S299      1.0  0.69573  0.64899  0.24835  1.0000
  Fe  Fe152     1.0  0.63239  0.68184  0.19703  1.0000
  S   S300      1.0  0.61899  0.70264  0.20882  1.0000
  Fe  Fe153     1.0  0.65389  0.65972  0.16341  1.0000
  S   S301      1.0  0.67300  0.65455  0.12579  1.0000
  S   S302      1.0  0.62326  0.66624  0.22917  1.0000
  S   S303      1.0  0.64611  0.64318  0.19350  1.0000
  Fe  Fe154     1.0  0.90350  0.66577  0.30577  1.0000
  S   S304      1.0  0.89368  0.66120  0.34722  1.0000
  S   S305      1.0  0.94485  0.67314  0.29492  1.0000
  Fe  Fe155     1.0  0.84406  0.66312  0.29131  1.0000
  S   S306      1.0  0.83147  0.65824  0.33204  1.0000
  S   S307      1.0  0.81443  0.66721  0.25899  1.0000
  Fe  Fe156     1.0  0.85683  0.67511  0.33983  1.0000
  S   S308      1.0  0.84149  0.69273  0.36196  1.0000
  Fe  Fe157     1.0  0.86985  0.64486  0.33498  1.0000
  S   S309      1.0  0.87571  0.62219  0.34671  1.0000
  S   S310      1.0  0.86774  0.68048  0.29913  1.0000
  S   S311      1.0  0.88131  0.64890  0.29337  1.0000
  H   H1300     1.0  0.75064  0.67463  0.30657  1.0000
  H   H1301     1.0  0.55896  0.60985  0.17705  1.0000
  C   C1068     1.0  0.73951  0.62140  0.16706  1.0000
  C   C1069     1.0  0.85606  0.70838  0.35500  1.0000
  C   C1070     1.0  0.87876  0.70945  0.33895  1.0000
  C   C1071     1.0  0.88998  0.72193  0.33359  1.0000
  C   C1072     1.0  0.50403  0.65456  0.24208  1.0000
  H   H1302     1.0  0.68012  0.72026  0.25426  1.0000
  C   C1073     1.0  0.84459  0.72001  0.36545  1.0000
  H   H1303     1.0  0.88794  0.70060  0.33090  1.0000
  H   H1304     1.0  0.90767  0.72255  0.32129  1.0000
  H   H1305     1.0  0.74393  0.65392  0.14329  1.0000
  H   H1306     1.0  0.82709  0.71926  0.37797  1.0000
  C   C1074     1.0  0.63056  0.71863  0.19869  1.0000
  C   C1075     1.0  0.64905  0.72059  0.17844  1.0000
  H   H1307     1.0  0.60654  0.72826  0.22743  1.0000
  C   C1076     1.0  0.62089  0.72969  0.21176  1.0000
  H   H1308     1.0  0.65655  0.71216  0.16818  1.0000
  C   C1077     1.0  0.53507  0.53310  0.08703  1.0000
  H   H1309     1.0  0.99780  0.51605  0.37421  1.0000
  C   C1078     1.0  0.72842  0.65452  0.25127  1.0000
  C   C1079     1.0  0.73971  0.66391  0.23342  1.0000
  C   C1080     1.0  0.76581  0.66779  0.23631  1.0000
  C   C1081     1.0  0.78102  0.66243  0.25711  1.0000
  C   C1082     1.0  0.76962  0.65315  0.27509  1.0000
  C   C1083     1.0  0.74357  0.64921  0.27213  1.0000
  H   H1310     1.0  0.72853  0.66808  0.21724  1.0000
  H   H1311     1.0  0.77441  0.67491  0.22220  1.0000
  H   H1312     1.0  0.78100  0.64888  0.29114  1.0000
  H   H1313     1.0  0.73512  0.64197  0.28611  1.0000
  C   C1084     1.0  0.88471  0.59511  0.42173  1.0000
  C   C1085     1.0  0.88816  0.58972  0.39833  1.0000
  C   C1086     1.0  0.88533  0.59820  0.37566  1.0000
  C   C1087     1.0  0.87929  0.61217  0.37604  1.0000
  C   C1088     1.0  0.87635  0.61763  0.39943  1.0000
  C   C1089     1.0  0.87896  0.60911  0.42215  1.0000
  H   H1314     1.0  0.89297  0.57903  0.39769  1.0000
  H   H1315     1.0  0.88778  0.59389  0.35767  1.0000
  H   H1316     1.0  0.87168  0.62835  0.40004  1.0000
  H   H1317     1.0  0.87626  0.61338  0.44016  1.0000
  C   C1090     1.0  0.84667  0.51748  0.40451  1.0000
  C   C1091     1.0  0.87162  0.51877  0.39217  1.0000
  C   C1092     1.0  0.87750  0.51294  0.36934  1.0000
  C   C1093     1.0  0.85881  0.50542  0.35918  1.0000
  H   H1318     1.0  0.76200  0.63892  0.13255  1.0000
  C   C1094     1.0  0.82791  0.51001  0.39431  1.0000
  H   H1319     1.0  0.88633  0.52437  0.40003  1.0000
  H   H1320     1.0  0.89659  0.51426  0.35961  1.0000
  H   H1321     1.0  0.53588  0.54388  0.08249  1.0000
  H   H1322     1.0  0.69949  0.64105  0.16974  1.0000
  C   C1095     1.0  0.66880  0.64007  0.10971  1.0000
  C   C1096     1.0  0.65739  0.62843  0.12107  1.0000
  C   C1097     1.0  0.65343  0.61757  0.10643  1.0000
  C   C1098     1.0  0.66124  0.61833  0.08056  1.0000
  C   C1099     1.0  0.67325  0.62983  0.06977  1.0000
  C   C1100     1.0  0.67700  0.64055  0.08415  1.0000
  H   H1323     1.0  0.65148  0.62783  0.14096  1.0000
  H   H1324     1.0  0.64450  0.60865  0.11507  1.0000
  H   H1325     1.0  0.67956  0.63050  0.04994  1.0000
  H   H1326     1.0  0.68600  0.64939  0.07517  1.0000
  C   C1101     1.0  0.64621  0.52629  0.11766  1.0000
  C   C1102     1.0  0.65629  0.51278  0.12079  1.0000
  H   H1327     1.0  0.65130  0.71153  0.25062  1.0000
  C   C1103     1.0  0.61960  0.50743  0.15038  1.0000
  C   C1104     1.0  0.60977  0.52098  0.14750  1.0000
  C   C1105     1.0  0.62279  0.53036  0.13085  1.0000
  H   H1328     1.0  0.84447  0.49130  0.43782  1.0000
  C   C1106     1.0  0.98141  0.55604  0.41921  1.0000
  H   H1329     1.0  0.59190  0.52422  0.15805  1.0000
  H   H1330     1.0  0.61504  0.54080  0.12862  1.0000
  H   H1331     1.0  0.83351  0.71336  0.23325  1.0000
  H   H1332     1.0  0.93544  0.63215  0.33128  1.0000
  H   H1333     1.0  0.78710  0.62903  0.24504  1.0000
  H   H1334     1.0  0.74984  0.62598  0.21872  1.0000
  C   C1107     1.0  0.51565  0.51177  0.08468  1.0000
  C   C1108     1.0  0.71352  0.49667  0.23606  1.0000
  C   C1109     1.0  0.53043  0.65230  0.23253  1.0000
  C   C1110     1.0  0.53557  0.65163  0.20653  1.0000
  C   C1111     1.0  0.74458  0.68396  0.29544  1.0000
  H   H1335     1.0  0.70438  0.70995  0.21999  1.0000
  H   H1336     1.0  0.54665  0.65040  0.24544  1.0000
  H   H1337     1.0  0.51772  0.65329  0.17006  1.0000
  H   H1338     1.0  0.64883  0.52633  0.98006  1.0000
  C   C1112     1.0  0.52045  0.57634  0.08197  1.0000
  C   C1113     1.0  0.72984  0.70781  0.26601  1.0000
  N   N72       1.0  0.64398  0.51927  0.03295  1.0000
  H   H1339     1.0  0.56797  0.50801  0.12405  1.0000
  H   H1340     1.0  0.66171  0.53736  0.04122  1.0000
  H   H1341     1.0  0.96016  0.55872  0.41951  1.0000
  C   C1114     1.0  0.99122  0.50607  0.37313  1.0000
  N   N73       1.0  0.57918  0.64261  0.11360  1.0000
  C   C1115     1.0  0.55942  0.65299  0.12280  1.0000
  C   C1116     1.0  0.58922  0.63408  0.13617  1.0000
  C   C1117     1.0  0.60215  0.64940  0.10097  1.0000
  C   C1118     1.0  0.56672  0.63489  0.09530  1.0000
  C   C1119     1.0  0.56387  0.62076  0.09950  1.0000
  C   C1120     1.0  0.55747  0.64149  0.07208  1.0000
  C   C1121     1.0  0.55345  0.61372  0.08107  1.0000
  C   C1122     1.0  0.54706  0.63433  0.05381  1.0000
  H   H1342     1.0  0.94303  0.63116  0.39962  1.0000
  H   H1343     1.0  0.55280  0.66069  0.10741  1.0000
  H   H1344     1.0  0.54141  0.64828  0.13142  1.0000
  H   H1345     1.0  0.56778  0.65852  0.13763  1.0000
  H   H1346     1.0  0.57265  0.62961  0.14787  1.0000
  H   H1347     1.0  0.59971  0.64002  0.14895  1.0000
  H   H1348     1.0  0.60378  0.62585  0.13067  1.0000
  H   H1349     1.0  0.59598  0.65757  0.08627  1.0000
  H   H1350     1.0  0.61382  0.65420  0.11462  1.0000
  H   H1351     1.0  0.61606  0.64207  0.09147  1.0000
  H   H1352     1.0  0.57004  0.61482  0.11660  1.0000
  H   H1353     1.0  0.55876  0.65222  0.06769  1.0000
  H   H1354     1.0  0.55223  0.60289  0.08431  1.0000
  H   H1355     1.0  0.53800  0.61481  0.04374  1.0000
  C   C1123     1.0  0.51541  0.52583  0.07690  1.0000
  C   C1124     1.0  0.82406  0.72808  0.29838  1.0000
  C   C1125     1.0  0.50889  0.57536  0.03830  1.0000
  N   N74       1.0  0.74188  0.63597  0.16928  1.0000
  C   C1126     1.0  0.51689  0.61339  0.18566  1.0000
  H   H1356     1.0  0.67490  0.53046  0.01305  1.0000
  H   H1357     1.0  0.52205  0.54771  0.04290  1.0000
  C   C1127     1.0  0.80782  0.64117  0.21618  1.0000
  C   C1128     1.0  0.80741  0.64731  0.19150  1.0000
  C   C1129     1.0  0.71255  0.69712  0.26747  1.0000
  C   C1130     1.0  0.95400  0.62618  0.33763  1.0000
  C   C1131     1.0  0.51409  0.65383  0.19015  1.0000
  C   C1132     1.0  0.73606  0.49443  0.25086  1.0000
  C   C1133     1.0  0.78632  0.64566  0.17595  1.0000
  H   H1358     1.0  0.54877  0.57282  0.05127  1.0000
  H   H1359     1.0  0.67452  0.50961  0.11075  1.0000
  H   H1360     1.0  0.62495  0.52799  0.06529  1.0000
  H   H1361     1.0  0.53424  0.49479  0.10738  1.0000
  C   C1134     1.0  0.78710  0.63340  0.22553  1.0000
  C   C1135     1.0  0.99619  0.67018  0.31176  1.0000
  H   H1362     1.0  0.94992  0.65093  0.35400  1.0000
  C   C1136     1.0  0.65748  0.73361  0.17120  1.0000
  H   H1363     1.0  0.83068  0.55420  0.43501  1.0000
  H   H1364     1.0  0.82014  0.70747  0.31365  1.0000
  C   C1137     1.0  0.99108  0.54264  0.41767  1.0000
  C   C1138     1.0  0.99309  0.51452  0.29963  1.0000
  H   H1365     1.0  0.65045  0.49288  0.13886  1.0000
  C   C1139     1.0  0.95457  0.50079  0.29883  1.0000
  S   S312      1.0  0.60275  0.49600  0.17143  1.0000
  H   H1366     1.0  0.72513  0.71718  0.25462  1.0000
  C   C1140     1.0  0.61990  0.52256  0.04897  1.0000
  H   H1367     1.0  0.91899  0.50941  0.31815  1.0000
  C   C1141     1.0  0.87862  0.73355  0.34403  1.0000
  H   H1368     1.0  0.66652  0.71010  0.28088  1.0000
  C   C1142     1.0  0.55361  0.51293  0.11085  1.0000
  H   H1369     1.0  0.65475  0.50165  0.05857  1.0000
  H   H1370     1.0  0.50880  0.58199  0.14972  1.0000
  H   H1371     1.0  0.66539  0.68483  0.27798  1.0000
  C   C1143     1.0  0.98175  0.50311  0.29253  1.0000
  H   H1372     1.0  0.98391  0.64657  0.34603  1.0000
  C   C1144     1.0  0.62471  0.49937  0.01658  1.0000
  C   C1145     1.0  0.51091  0.59073  0.15998  1.0000
  C   C1146     1.0  0.95367  0.49206  0.37789  1.0000
  C   C1147     1.0  0.53922  0.60643  0.17515  1.0000
  C   C1148     1.0  0.98733  0.61259  0.39311  1.0000
  C   C1149     1.0  0.74388  0.64277  0.14315  1.0000
  H   H1373     1.0  0.82196  0.73135  0.31722  1.0000
  C   C1150     1.0  0.53624  0.59513  0.16230  1.0000
  C   C1151     1.0  0.54536  0.62044  0.05818  1.0000
  H   H1374     1.0  0.73516  0.61574  0.18566  1.0000
  C   C1152     1.0  0.98237  0.65164  0.29053  1.0000
  H   H1375     1.0  0.93310  0.61753  0.38266  1.0000
  H   H1376     1.0  0.67102  0.51628  0.06382  1.0000
  H   H1377     1.0  0.68198  0.67753  0.25098  1.0000
  H   H1378     1.0  0.75415  0.49935  0.24512  1.0000
  H   H1379     1.0  0.71493  0.50348  0.21906  1.0000
  H   H1380     1.0  0.81884  0.61363  0.40667  1.0000
  H   H1381     1.0  0.78717  0.65083  0.15716  1.0000
  C   C1153     1.0  0.83413  0.50379  0.37188  1.0000
  H   H1382     1.0  0.90225  0.49902  0.28678  1.0000
  H   H1383     1.0  0.96951  0.62805  0.32242  1.0000
  C   C1154     1.0  0.63644  0.51192  0.01167  1.0000
  H   H1384     1.0  0.62124  0.49498  0.03576  1.0000
  H   H1385     1.0  0.55352  0.58977  0.15397  1.0000
  H   H1386     1.0  0.94991  0.61533  0.33859  1.0000
  H   H1387     1.0  0.71235  0.63616  0.20035  1.0000
  H   H1388     1.0  0.77973  0.69352  0.30335  1.0000
  C   C1155     1.0  0.69478  0.70038  0.22555  1.0000
  H   H1389     1.0  0.82383  0.64279  0.22839  1.0000
  H   H1390     1.0  0.64219  0.53937  0.01375  1.0000
  C   C1156     1.0  0.96765  0.64427  0.36022  1.0000
  H   H1391     1.0  0.54079  0.63953  0.03593  1.0000
  H   H1392     1.0  0.63959  0.50850  0.21117  1.0000
  H   H1393     1.0  0.93254  0.49103  0.38183  1.0000
  N   N75       1.0  0.66669  0.49213  0.22615  1.0000
  C   C1157     1.0  0.66352  0.51069  0.04867  1.0000
  C   C1158     1.0  0.91827  0.49349  0.27597  1.0000
  C   C1159     1.0  0.67083  0.71064  0.26006  1.0000
  C   C1160     1.0  0.85574  0.73258  0.35992  1.0000
  H   H1394     1.0  0.92406  0.50027  0.25907  1.0000
  N   N76       1.0  0.81949  0.56684  0.40120  1.0000
  C   C1161     1.0  0.79386  0.56048  0.40034  1.0000
  C   C1162     1.0  0.84001  0.55943  0.38580  1.0000
  C   C1163     1.0  0.82792  0.56505  0.42788  1.0000
  C   C1164     1.0  0.81619  0.58116  0.39084  1.0000
  C   C1165     1.0  0.81025  0.58453  0.36497  1.0000
  C   C1166     1.0  0.81874  0.59209  0.40576  1.0000
  C   C1167     1.0  0.80809  0.59795  0.35448  1.0000
  C   C1168     1.0  0.81607  0.60546  0.39514  1.0000
  C   C1169     1.0  0.81118  0.60838  0.36951  1.0000
  H   H1395     1.0  0.78706  0.56055  0.38067  1.0000
  H   H1396     1.0  0.79562  0.54971  0.40837  1.0000
  H   H1397     1.0  0.77781  0.56586  0.41145  1.0000
  H   H1398     1.0  0.83376  0.55860  0.36624  1.0000
  H   H1399     1.0  0.84438  0.54886  0.39415  1.0000
  H   H1400     1.0  0.85904  0.56453  0.38436  1.0000
  H   H1401     1.0  0.76663  0.71481  0.27747  1.0000
  H   H1402     1.0  0.84729  0.56951  0.42983  1.0000
  C   C1170     1.0  0.72070  0.68509  0.28258  1.0000
  H   H1403     1.0  0.80763  0.57680  0.35255  1.0000
  H   H1404     1.0  0.82359  0.59063  0.42552  1.0000
  H   H1405     1.0  0.80444  0.60030  0.33450  1.0000
  H   H1406     1.0  0.51511  0.57420  0.01877  1.0000
  H   H1407     1.0  0.81032  0.61876  0.36119  1.0000
  S   S313      1.0  0.59489  0.58580  0.04830  1.0000
  H   H1408     1.0  0.68114  0.50725  0.03692  1.0000
  S   S314      1.0  0.59295  0.55556  0.00174  1.0000
  C   C1171     1.0  0.76584  0.63174  0.21025  1.0000
  C   C1172     1.0  0.97608  0.66406  0.30031  1.0000
  N   N77       1.0  0.96209  0.62981  0.36254  1.0000
  H   H1409     1.0  0.67680  0.70069  0.21394  1.0000
  H   H1410     1.0  0.92088  0.63446  0.37395  1.0000
  C   C1173     1.0  0.52807  0.57474  0.05674  1.0000
  H   H1411     1.0  0.71861  0.65235  0.18474  1.0000
  H   H1412     1.0  0.97376  0.64739  0.37858  1.0000
  H   H1413     1.0  0.72647  0.64104  0.13183  1.0000
  H   H1414     1.0  0.56850  0.53253  0.11126  1.0000
  C   C1174     1.0  0.76108  0.69461  0.29357  1.0000
  H   H1415     1.0  0.75828  0.61666  0.15886  1.0000
  Fe  Fe158     1.0  0.60969  0.56593  0.03365  1.0000
  H   H1416     1.0  0.72293  0.61975  0.15464  1.0000
  H   H1417     1.0  0.80859  0.50896  0.40380  1.0000
  H   H1418     1.0  0.65271  0.51068  0.24148  1.0000
  C   C1175     1.0  0.95136  0.52178  0.31994  1.0000
  H   H1419     1.0  0.65244  0.68841  0.24713  1.0000
  H   H1420     1.0  0.61015  0.51347  0.05730  1.0000
  H   H1421     1.0  0.82336  0.65359  0.18461  1.0000
  H   H1422     1.0  0.93959  0.52900  0.33066  1.0000
  C   C1176     1.0  0.96397  0.50460  0.37806  1.0000
  C   C1177     1.0  0.76484  0.63776  0.18492  1.0000
  H   H1423     1.0  0.81955  0.49807  0.36401  1.0000
  C   C1178     1.0  0.71704  0.64159  0.18157  1.0000
  C   C1179     1.0  0.64277  0.50331  0.13681  1.0000
  S   S315      1.0  0.86617  0.49884  0.32990  1.0000
  C   C1180     1.0  0.98644  0.62143  0.37042  1.0000
  N   N78       1.0  0.68775  0.69861  0.25305  1.0000
  C   C1181     1.0  0.93976  0.51049  0.31275  1.0000
  H   H1424     1.0  0.81277  0.56969  0.44096  1.0000
  H   H1425     1.0  0.70874  0.69192  0.21984  1.0000
  H   H1426     1.0  0.82514  0.69824  0.27188  1.0000
  C   C1182     1.0  0.82599  0.70900  0.27315  1.0000
  S   S316      1.0  0.90794  0.52282  0.46297  1.0000
  C   C1183     1.0  0.61692  0.49233  0.99688  1.0000
  H   H1427     1.0  0.50023  0.65453  0.26233  1.0000
  H   H1428     1.0  0.97018  0.61129  0.40584  1.0000
  C   C1184     1.0  0.82292  0.71424  0.29660  1.0000
  C   C1185     1.0  0.65624  0.53213  0.02473  1.0000
  C   C1186     1.0  0.83059  0.71756  0.25137  1.0000
  H   H1429     1.0  0.70927  0.67628  0.28450  1.0000
  H   H1430     1.0  0.96729  0.64699  0.28110  1.0000
  C   C1187     1.0  0.53455  0.50549  0.10140  1.0000
  H   H1431     1.0  0.87820  0.49485  0.46240  1.0000
  H   H1432     1.0  0.95082  0.51327  0.38247  1.0000
  C   C1188     1.0  0.75370  0.70654  0.27894  1.0000
  H   H1433     1.0  0.94625  0.73190  0.34630  1.0000
  C   C1189     1.0  0.55387  0.52670  0.10365  1.0000
  H   H1434     1.0  0.60483  0.52913  0.03781  1.0000
  C   C1190     1.0  0.98725  0.72494  0.35270  1.0000
  C   C1191     1.0  0.82843  0.73714  0.27648  1.0000
  C   C1192     1.0  0.65770  0.50668  0.22284  1.0000
  H   H1435     1.0  0.65744  0.48890  0.18806  1.0000
  H   H1436     1.0  0.98681  0.53262  0.31888  1.0000
  H   H1437     1.0  0.52040  0.62236  0.19460  1.0000
  H   H1438     1.0  0.67155  0.73512  0.15535  1.0000
  H   H1439     1.0  0.99464  0.49631  0.28201  1.0000
  H   H1440     1.0  0.99159  0.67984  0.31921  1.0000
  H   H1441     1.0  0.52209  0.53282  0.02673  1.0000
  S   S317      1.0  0.93276  0.55153  0.47143  1.0000
  C   C1193     1.0  0.64030  0.51684  0.98580  1.0000
  C   C1194     1.0  0.97796  0.52380  0.31337  1.0000
  H   H1442     1.0  0.99162  0.57628  0.42288  1.0000
  H   H1443     1.0  0.69073  0.49325  0.19122  1.0000
  N   N79       1.0  0.94168  0.48894  0.29149  1.0000
  C   C1195     1.0  0.68990  0.48996  0.24271  1.0000
  C   C1196     1.0  0.50912  0.54001  0.03745  1.0000
  H   H1444     1.0  0.98255  0.71457  0.35775  1.0000
  C   C1197     1.0  0.99922  0.56599  0.42101  1.0000
  C   C1198     1.0  0.96674  0.73466  0.34618  1.0000
  H   H1445     1.0  0.50127  0.50542  0.07842  1.0000
  H   H1446     1.0  0.83643  0.73754  0.23561  1.0000
  Fe  Fe159     1.0  0.63170  0.52089  0.87641  1.0000
  S   S318      1.0  0.62055  0.51988  0.83572  1.0000
  S   S319      1.0  0.64137  0.53978  0.89417  1.0000
  Fe  Fe160     1.0  0.65407  0.50337  0.83443  1.0000
  S   S320      1.0  0.68223  0.50220  0.79851  1.0000
  C   C1199     1.0  0.76438  0.50360  0.79446  1.0000
  H   H1447     1.0  0.99463  0.55921  0.49005  1.0000
  S   S321      1.0  0.66638  0.50537  0.87415  1.0000
  H   H1448     1.0  0.70779  0.55773  0.83829  1.0000
  H   H1449     1.0  0.97878  0.52974  0.49609  1.0000
  C   C1200     1.0  0.97077  0.54588  0.64828  1.0000
  H   H1450     1.0  0.99434  0.53502  0.71633  1.0000
  S   S322      1.0  0.91932  0.52707  0.53170  1.0000
  Fe  Fe161     1.0  0.85708  0.50884  0.66876  1.0000
  S   S323      1.0  0.86431  0.51588  0.70696  1.0000
  S   S324      1.0  0.84931  0.52402  0.63475  1.0000
  Fe  Fe162     1.0  0.83506  0.50070  0.72303  1.0000
  C   C1201     1.0  0.98752  0.53835  0.69747  1.0000
  Fe  Fe163     1.0  0.89712  0.49906  0.70876  1.0000
  S   S325      1.0  0.93805  0.50065  0.72566  1.0000
  C   C1202     1.0  0.71792  0.54081  0.80037  1.0000
  H   H1451     1.0  0.89926  0.52258  0.65877  1.0000
  C   C1203     1.0  0.89901  0.52602  0.55980  1.0000
  C   C1204     1.0  0.87423  0.53327  0.56161  1.0000
  C   C1205     1.0  0.85908  0.53241  0.58461  1.0000
  C   C1206     1.0  0.86825  0.52408  0.60579  1.0000
  C   C1207     1.0  0.89281  0.51661  0.60379  1.0000
  C   C1208     1.0  0.90828  0.51775  0.58101  1.0000
  H   H1452     1.0  0.86691  0.53970  0.54544  1.0000
  H   H1453     1.0  0.84014  0.53826  0.58601  1.0000
  H   H1454     1.0  0.90006  0.51011  0.61983  1.0000
  H   H1455     1.0  0.92748  0.51215  0.57974  1.0000
  C   C1209     1.0  0.71676  0.50237  0.78775  1.0000
  C   C1210     1.0  0.72346  0.50120  0.76188  1.0000
  C   C1211     1.0  0.75028  0.50120  0.75237  1.0000
  C   C1212     1.0  0.77108  0.50245  0.76858  1.0000
  H   H1456     1.0  0.57581  0.53846  0.96625  1.0000
  C   C1213     1.0  0.98098  0.50413  0.69024  1.0000
  C   C1214     1.0  0.62845  0.54362  0.92462  1.0000
  C   C1215     1.0  0.64177  0.55229  0.93840  1.0000
  C   C1216     1.0  0.63157  0.55586  0.96227  1.0000
  S   S326      1.0  0.89105  0.49282  0.66994  1.0000
  C   C1217     1.0  0.59435  0.54229  0.95864  1.0000
  C   C1218     1.0  0.60476  0.53855  0.93500  1.0000
  H   H1457     1.0  0.66000  0.55635  0.93049  1.0000
  H   H1458     1.0  0.87000  0.50110  0.55581  1.0000
  C   C1219     1.0  0.96097  0.53725  0.69168  1.0000
  H   H1459     1.0  0.59415  0.53197  0.92457  1.0000
  S   S327      1.0  0.80554  0.50294  0.75773  1.0000
  H   H1460     1.0  0.78466  0.53427  0.76079  1.0000
  H   H1461     1.0  0.92337  0.51971  0.68278  1.0000
  H   H1462     1.0  0.66690  0.54916  0.78538  1.0000
  H   H1463     1.0  0.97006  0.54175  0.51836  1.0000
  H   H1464     1.0  0.52559  0.52509  0.84359  1.0000
  H   H1465     1.0  0.65013  0.54367  0.81453  1.0000
  C   C1220     1.0  0.97214  0.50264  0.71574  1.0000
  C   C1221     1.0  0.98607  0.53414  0.51280  1.0000
  C   C1222     1.0  0.73757  0.50356  0.80398  1.0000
  H   H1466     1.0  0.96704  0.50357  0.67552  1.0000
  H   H1467     1.0  0.75476  0.50040  0.73243  1.0000
  H   H1468     1.0  0.74481  0.54446  0.82984  1.0000
  H   H1469     1.0  0.66731  0.53138  0.79635  1.0000
  C   C1223     1.0  0.74319  0.54205  0.81057  1.0000
  H   H1470     1.0  0.67472  0.53356  0.85018  1.0000
  S   S328      1.0  0.86840  0.54845  0.47933  1.0000
  H   H1471     1.0  0.70773  0.50024  0.74902  1.0000
  H   H1472     1.0  0.74144  0.53199  0.74193  1.0000
  H   H1473     1.0  0.69988  0.53545  0.76594  1.0000
  C   C1224     1.0  0.74180  0.53511  0.76094  1.0000
  S   S329      1.0  0.82553  0.49506  0.68446  1.0000
  C   C1225     1.0  0.51756  0.50433  0.84204  1.0000
  H   H1474     1.0  0.69219  0.56448  0.80949  1.0000
  C   C1226     1.0  0.69142  0.55645  0.82552  1.0000
  H   H1475     1.0  0.71010  0.53341  0.85085  1.0000
  H   H1476     1.0  0.67253  0.55838  0.83688  1.0000
  Fe  Fe164     1.0  0.90610  0.53707  0.49340  1.0000
  H   H1477     1.0  0.64189  0.56265  0.97253  1.0000
  H   H1478     1.0  0.98753  0.52593  0.52852  1.0000
  C   C1227     1.0  0.95170  0.54103  0.66691  1.0000
  C   C1228     1.0  0.76621  0.53640  0.77155  1.0000
  H   H1479     1.0  0.92797  0.53930  0.62015  1.0000
  H   H1480     1.0  0.78011  0.50461  0.80729  1.0000
  H   H1481     1.0  0.98430  0.50231  0.75425  1.0000
  H   H1482     1.0  0.69531  0.52221  0.83192  1.0000
  C   C1229     1.0  0.69339  0.53258  0.83820  1.0000
  H   H1483     1.0  0.73309  0.50441  0.82390  1.0000
  H   H1484     1.0  0.96579  0.54880  0.62886  1.0000
  S   S330      1.0  0.60226  0.50619  0.89199  1.0000
  N   N80       1.0  0.92379  0.53911  0.66098  1.0000
  C   C1230     1.0  0.90488  0.54570  0.67911  1.0000
  C   C1231     1.0  0.91645  0.54469  0.63501  1.0000
  C   C1232     1.0  0.91994  0.52449  0.66328  1.0000
  C   C1233     1.0  0.66839  0.54173  0.80236  1.0000
  S   S331      1.0  0.55159  0.49753  0.84234  1.0000
  Fe  Fe165     1.0  0.63601  0.49059  0.88691  1.0000
  C   C1234     1.0  0.71794  0.53717  0.77507  1.0000
  H   H1485     1.0  0.90644  0.54089  0.69882  1.0000
  H   H1486     1.0  0.93390  0.51911  0.65016  1.0000
  H   H1487     1.0  0.90838  0.55657  0.67928  1.0000
  H   H1488     1.0  0.88370  0.54499  0.67419  1.0000
  Fe  Fe166     1.0  0.59316  0.50381  0.85157  1.0000
  H   H1489     1.0  0.91943  0.55566  0.63181  1.0000
  H   H1490     1.0  0.89503  0.54352  0.63159  1.0000
  N   N81       1.0  0.69313  0.54286  0.81612  1.0000
  C   C1235     1.0  0.76692  0.53986  0.79631  1.0000
  H   H1491     1.0  0.78603  0.54055  0.80463  1.0000
  H   H1492     1.0  0.94805  0.53289  0.70661  1.0000
  C   C1236     1.0  0.99080  0.50337  0.73448  1.0000
  C   C1237     1.0  0.60759  0.55100  0.97237  1.0000
  C   C1238     1.0  0.51028  0.51812  0.84261  1.0000
  C   C1239     1.0  0.63267  0.50964  0.96626  1.0000
  H   H1493     1.0  0.63574  0.51357  0.94662  1.0000
  C   C1240     1.0  0.99738  0.54681  0.65428  1.0000
  C   C1241     1.0  0.62075  0.49752  0.97179  1.0000
  H   H1494     1.0  0.61435  0.49217  0.95654  1.0000
  H   H1495     1.0  0.90414  0.49674  0.49920  1.0000
  H   H1496     1.0  0.90365  0.48929  0.58319  1.0000
  C   C1242     1.0  0.87025  0.49021  0.55977  1.0000
  H   H1497     1.0  0.50015  0.54627  0.94646  1.0000
  Fe  Fe167     1.0  0.63707  0.80866  0.19578  1.0000
  S   S332      1.0  0.63033  0.80848  0.23797  1.0000
  S   S333      1.0  0.62200  0.82721  0.17041  1.0000
  Fe  Fe168     1.0  0.64692  0.77783  0.19959  1.0000
  S   S334      1.0  0.63960  0.77567  0.24182  1.0000
  S   S335      1.0  0.65814  0.76094  0.17450  1.0000
  Fe  Fe169     1.0  0.60488  0.79114  0.23473  1.0000
  S   S336      1.0  0.56307  0.79325  0.25355  1.0000
  Fe  Fe170     1.0  0.66583  0.79316  0.24126  1.0000
  S   S337      1.0  0.69576  0.79186  0.27321  1.0000
  S   S338      1.0  0.61049  0.79181  0.19271  1.0000
  S   S339      1.0  0.67452  0.79469  0.19900  1.0000
  Fe  Fe171     1.0  0.88032  0.77075  0.34101  1.0000
  S   S340      1.0  0.89056  0.78295  0.30447  1.0000
  Fe  Fe172     1.0  0.86021  0.79656  0.36569  1.0000
  S   S341      1.0  0.86859  0.80979  0.33032  1.0000
  S   S342      1.0  0.84575  0.80643  0.40121  1.0000
  Fe  Fe173     1.0  0.85019  0.79387  0.31053  1.0000
  S   S343      1.0  0.82139  0.79809  0.27795  1.0000
  Fe  Fe174     1.0  0.90779  0.79728  0.32862  1.0000
  S   S344      1.0  0.94608  0.80822  0.32920  1.0000
  S   S345      1.0  0.83938  0.78123  0.34621  1.0000
  S   S346      1.0  0.89981  0.78452  0.36475  1.0000
  Fe  Fe175     1.0  0.65621  0.91113  0.03068  1.0000
  S   S347      1.0  0.61360  0.91818  0.03867  1.0000
  H   H1498     1.0  0.54089  0.84945  0.18872  1.0000
  Fe  Fe176     1.0  0.65532  0.88854  0.07478  1.0000
  S   S348      1.0  0.61266  0.89419  0.08551  1.0000
  S   S349      1.0  0.67928  0.87197  0.09839  1.0000
  Fe  Fe177     1.0  0.60699  0.89616  0.04373  1.0000
  S   S350      1.0  0.57268  0.88768  0.02696  1.0000
  Fe  Fe178     1.0  0.62393  0.91563  0.07961  1.0000
  S   S351      1.0  0.60752  0.93032  0.10750  1.0000
  S   S352      1.0  0.64889  0.88908  0.03282  1.0000
  S   S353      1.0  0.66731  0.90998  0.07162  1.0000
  S   S354      1.0  0.93217  0.91702  0.41266  1.0000
  S   S355      1.0  0.91575  0.87957  0.42615  1.0000
  Fe  Fe179     1.0  0.91218  0.90069  0.43724  1.0000
  H   H1499     1.0  0.95545  0.82849  0.36241  1.0000
  H   H1500     1.0  0.71736  0.97328  0.22978  1.0000
  H   H1501     1.0  0.96134  0.84281  0.37904  1.0000
  S   S356      1.0  0.86334  0.97281  0.40765  1.0000
  H   H1502     1.0  0.78520  0.94044  0.35655  1.0000
  C   C1243     1.0  0.81229  0.75968  0.25937  1.0000
  H   H1503     1.0  0.64690  0.86153  0.23310  1.0000
  N   N82       1.0  0.77346  0.81248  0.36042  1.0000
  C   C1244     1.0  0.84860  0.85198  0.40829  1.0000
  C   C1245     1.0  0.91415  0.93283  0.41236  1.0000
  C   C1246     1.0  0.92129  0.94345  0.39476  1.0000
  C   C1247     1.0  0.90630  0.95595  0.39366  1.0000
  C   C1248     1.0  0.88424  0.95784  0.41029  1.0000
  C   C1249     1.0  0.87771  0.94736  0.42843  1.0000
  C   C1250     1.0  0.89256  0.93487  0.42939  1.0000
  H   H1504     1.0  0.93811  0.94196  0.38165  1.0000
  H   H1505     1.0  0.91161  0.96404  0.37974  1.0000
  H   H1506     1.0  0.86078  0.94878  0.44145  1.0000
  H   H1507     1.0  0.88726  0.92683  0.44337  1.0000
  C   C1251     1.0  0.63059  0.94062  0.11870  1.0000
  C   C1252     1.0  0.62265  0.94883  0.13811  1.0000
  C   C1253     1.0  0.64103  0.95669  0.14804  1.0000
  C   C1254     1.0  0.66757  0.95621  0.13886  1.0000
  C   C1255     1.0  0.67548  0.94806  0.11938  1.0000
  C   C1256     1.0  0.65696  0.94043  0.10910  1.0000
  H   H1508     1.0  0.60233  0.94902  0.14571  1.0000
  H   H1509     1.0  0.63478  0.96292  0.16316  1.0000
  H   H1510     1.0  0.69592  0.94774  0.11204  1.0000
  H   H1511     1.0  0.66318  0.93442  0.09378  1.0000
  C   C1257     1.0  0.84744  0.82400  0.40340  1.0000
  C   C1258     1.0  0.84996  0.82874  0.42722  1.0000
  H   H1512     1.0  0.76592  0.82078  0.30851  1.0000
  H   H1513     1.0  0.67839  0.91592  0.18229  1.0000
  C   C1259     1.0  0.84586  0.84724  0.38450  1.0000
  C   C1260     1.0  0.84569  0.83334  0.38199  1.0000
  H   H1514     1.0  0.85120  0.82164  0.44394  1.0000
  H   H1515     1.0  0.64326  0.91811  0.17486  1.0000
  H   H1516     1.0  0.84400  0.85439  0.36790  1.0000
  H   H1517     1.0  0.84387  0.82995  0.36348  1.0000
  C   C1261     1.0  0.63884  0.83904  0.14978  1.0000
  C   C1262     1.0  0.62342  0.84915  0.13563  1.0000
  C   C1263     1.0  0.63558  0.85901  0.11928  1.0000
  C   C1264     1.0  0.66338  0.85893  0.11696  1.0000
  C   C1265     1.0  0.67888  0.84871  0.13091  1.0000
  C   C1266     1.0  0.66668  0.83875  0.14719  1.0000
  H   H1518     1.0  0.60188  0.84943  0.13736  1.0000
  H   H1519     1.0  0.62338  0.86673  0.10864  1.0000
  H   H1520     1.0  0.70042  0.84860  0.12931  1.0000
  H   H1521     1.0  0.67879  0.83101  0.15797  1.0000
  C   C1267     1.0  0.73116  0.79249  0.27319  1.0000
  C   C1268     1.0  0.74468  0.78800  0.29551  1.0000
  C   C1269     1.0  0.77230  0.78938  0.29719  1.0000
  C   C1270     1.0  0.78676  0.79546  0.27662  1.0000
  C   C1271     1.0  0.77340  0.79966  0.25412  1.0000
  C   C1272     1.0  0.74583  0.79816  0.25236  1.0000
  H   H1522     1.0  0.73352  0.78367  0.31180  1.0000
  H   H1523     1.0  0.78225  0.78592  0.31450  1.0000
  H   H1524     1.0  0.78437  0.80429  0.23801  1.0000
  H   H1525     1.0  0.73580  0.80170  0.23509  1.0000
  H   H1526     1.0  0.66844  0.87386  0.15624  1.0000
  C   C1273     1.0  0.51773  0.82608  0.17914  1.0000
  H   H1527     1.0  0.65024  0.90354  0.21055  1.0000
  H   H1528     1.0  0.52255  0.81886  0.23044  1.0000
  C   C1274     1.0  0.54305  0.90717  0.05084  1.0000
  C   C1275     1.0  0.54277  0.89623  0.03624  1.0000
  H   H1529     1.0  0.86476  0.75269  0.25175  1.0000
  H   H1530     1.0  0.56168  0.91017  0.05706  1.0000
  S   S357      1.0  0.66105  0.98159  0.21241  1.0000
  C   C1276     1.0  0.97880  0.80085  0.32385  1.0000
  H   H1531     1.0  0.83167  0.96710  0.34868  1.0000
  H   H1532     1.0  0.66819  0.92273  0.15165  1.0000
  C   C1277     1.0  0.85095  0.84265  0.42964  1.0000
  H   H1533     1.0  0.96744  0.78623  0.29978  1.0000
  C   C1278     1.0  0.83689  0.93320  0.37014  1.0000
  C   C1279     1.0  0.53115  0.78194  0.22066  1.0000
  C   C1280     1.0  0.53227  0.78907  0.24202  1.0000
  H   H1534     1.0  0.95646  0.75545  0.33409  1.0000
  H   H1535     1.0  0.54946  0.77840  0.21118  1.0000
  H   H1536     1.0  0.87313  0.97221  0.46524  1.0000
  H   H1537     1.0  0.65983  0.85602  0.18956  1.0000
  H   H1538     1.0  0.94894  0.83199  0.44898  1.0000
  H   H1539     1.0  0.62172  0.75107  0.21486  1.0000
  H   H1540     1.0  0.79179  0.95685  0.34264  1.0000
  H   H1541     1.0  0.86056  0.76616  0.27185  1.0000
  C   C1281     1.0  0.55542  0.78482  0.14803  1.0000
  C   C1282     1.0  0.78524  0.96939  0.27181  1.0000
  C   C1283     1.0  0.91528  0.81971  0.39227  1.0000
  C   C1284     1.0  0.53038  0.82849  0.22210  1.0000
  H   H1542     1.0  0.79127  0.75699  0.26299  1.0000
  H   H1543     1.0  0.72470  0.82198  0.28634  1.0000
  H   H1544     1.0  0.80012  0.80765  0.32900  1.0000
  H   H1545     1.0  0.57733  0.76566  0.15625  1.0000
  H   H1546     1.0  0.66284  0.94891  0.03110  1.0000
  N   N83       1.0  0.62991  0.79803  0.11405  1.0000
  H   H1547     1.0  0.79686  0.94610  0.39790  1.0000
  H   H1548     1.0  0.90566  0.81464  0.40958  1.0000
  C   C1285     1.0  0.65933  0.98018  0.99744  1.0000
  C   C1286     1.0  0.82315  0.75642  0.30305  1.0000
  H   H1549     1.0  0.57135  0.84103  0.20032  1.0000
  C   C1287     1.0  0.52404  0.93237  0.12026  1.0000
  H   H1550     1.0  0.65526  0.98791  0.05940  1.0000
  H   H1551     1.0  0.77921  0.95641  0.18198  1.0000
  N   N84       1.0  0.82380  0.94694  0.36483  1.0000
  H   H1552     1.0  0.56366  0.83996  0.16832  1.0000
  C   C1288     1.0  0.57810  0.77592  0.14752  1.0000
  H   H1553     1.0  0.93041  0.84191  0.36361  1.0000
  C   C1289     1.0  0.52770  0.98030  0.14634  1.0000
  C   C1290     1.0  0.98388  0.79036  0.30822  1.0000
  H   H1554     1.0  0.66321  0.95906  0.98798  1.0000
  H   H1555     1.0  0.64385  0.77867  0.10124  1.0000
  H   H1556     1.0  0.79793  0.82523  0.33530  1.0000
  H   H1557     1.0  0.79070  0.82138  0.39088  1.0000
  H   H1558     1.0  0.83755  0.75202  0.31749  1.0000
  H   H1559     1.0  0.85047  0.95376  0.33397  1.0000
  C   C1291     1.0  0.72444  0.81930  0.30665  1.0000
  H   H1560     1.0  0.65885  0.96301  0.06723  1.0000
  H   H1561     1.0  0.76107  0.79656  0.38823  1.0000
  H   H1562     1.0  0.73684  0.97849  0.17626  1.0000
  N   N85       1.0  0.75276  0.96645  0.20876  1.0000
  C   C1292     1.0  0.95596  0.82190  0.41386  1.0000
  C   C1293     1.0  0.51854  0.89239  0.02830  1.0000
  H   H1563     1.0  0.97624  0.90340  0.44732  1.0000
  C   C1294     1.0  0.72377  0.81131  0.35851  1.0000
  C   C1295     1.0  0.99409  0.90412  0.45875  1.0000
  H   H1564     1.0  0.55457  0.95058  0.12817  1.0000
  C   C1296     1.0  0.70024  0.81208  0.34515  1.0000
  C   C1297     1.0  0.65889  0.96776  0.04796  1.0000
  C   C1298     1.0  0.50818  0.79347  0.25421  1.0000
  H   H1565     1.0  0.62276  0.81940  0.11731  1.0000
  C   C1299     1.0  0.63914  0.78934  0.09372  1.0000
  C   C1300     1.0  0.51122  0.95543  0.13270  1.0000
  C   C1301     1.0  0.81324  0.95199  0.38898  1.0000
  H   H1566     1.0  0.74549  0.96804  0.26158  1.0000
  C   C1302     1.0  0.96085  0.82452  0.43909  1.0000
  H   H1567     1.0  0.74500  0.95355  0.17983  1.0000
  C   C1303     1.0  0.51906  0.91422  0.05759  1.0000
  H   H1568     1.0  0.77934  0.97047  0.29144  1.0000
  C   C1304     1.0  0.74860  0.81413  0.34610  1.0000
  C   C1305     1.0  0.70065  0.81592  0.31922  1.0000
  S   S358      1.0  0.95890  0.85811  0.47042  1.0000
  C   C1306     1.0  0.66133  0.96588  0.00269  1.0000
  S   S359      1.0  0.88725  0.98386  0.33635  1.0000
  C   C1307     1.0  0.94911  0.92984  0.47372  1.0000
  H   H1569     1.0  0.64227  0.88535  0.24306  1.0000
  H   H1570     1.0  0.54664  0.83037  0.23467  1.0000
  H   H1571     1.0  0.81802  0.75817  0.23935  1.0000
  H   H1572     1.0  0.51934  0.92272  0.06869  1.0000
  C   C1308     1.0  0.51114  0.83508  0.15750  1.0000
  H   H1573     1.0  0.72244  0.80826  0.37859  1.0000
  N   N86       1.0  0.66527  0.90121  0.15909  1.0000
  C   C1309     1.0  0.69210  0.89875  0.14681  1.0000
  C   C1310     1.0  0.64490  0.90096  0.13983  1.0000
  C   C1311     1.0  0.66370  0.91503  0.16755  1.0000
  C   C1312     1.0  0.66065  0.89054  0.17986  1.0000
  C   C1313     1.0  0.65290  0.89338  0.20503  1.0000
  C   C1314     1.0  0.66299  0.87676  0.17496  1.0000
  C   C1315     1.0  0.64813  0.88299  0.22397  1.0000
  C   C1316     1.0  0.65806  0.86647  0.19395  1.0000
  C   C1317     1.0  0.65070  0.86957  0.21844  1.0000
  H   H1574     1.0  0.70801  0.89798  0.16091  1.0000
  H   H1575     1.0  0.69397  0.88933  0.13700  1.0000
  H   H1576     1.0  0.69657  0.90696  0.13181  1.0000
  H   H1577     1.0  0.64634  0.89127  0.13090  1.0000
  H   H1578     1.0  0.64714  0.90910  0.12424  1.0000
  H   H1579     1.0  0.62431  0.90243  0.14820  1.0000
  H   H1580     1.0  0.76958  0.83284  0.37103  1.0000
  C   C1318     1.0  0.77213  0.82227  0.37987  1.0000
  H   H1581     1.0  0.79609  0.79680  0.38308  1.0000
  H   H1582     1.0  0.65375  0.78613  0.14234  1.0000
  C   C1319     1.0  0.85819  0.75519  0.27112  1.0000
  C   C1320     1.0  0.77677  0.79861  0.37330  1.0000
  H   H1583     1.0  0.99687  0.93801  0.44827  1.0000
  C   C1321     1.0  0.79785  0.81467  0.34419  1.0000
  H   H1584     1.0  0.93240  0.84769  0.41763  1.0000
  C   C1322     1.0  0.58055  0.80253  0.12626  1.0000
  C   C1323     1.0  0.65028  0.79668  0.13370  1.0000
  H   H1585     1.0  0.64411  0.80306  0.14930  1.0000
  C   C1324     1.0  0.65691  0.98793  0.01868  1.0000
  C   C1325     1.0  0.64771  0.74467  0.18430  1.0000
  S   S360      1.0  0.69134  0.96534  0.15198  1.0000
  C   C1326     1.0  0.87638  0.91709  0.37120  1.0000
  H   H1586     1.0  0.53178  0.97703  0.21778  1.0000
  H   H1587     1.0  0.87808  0.93769  0.35842  1.0000
  H   H1588     1.0  0.87014  0.89668  0.38602  1.0000
  H   H1589     1.0  0.53679  0.93601  0.10366  1.0000
  C   C1327     1.0  0.80013  0.96848  0.22069  1.0000
  C   C1328     1.0  0.72549  0.96446  0.21974  1.0000
  S   S361      1.0  0.89438  0.74883  0.33690  1.0000
  H   H1590     1.0  0.82651  0.97225  0.27735  1.0000
  H   H1591     1.0  0.66998  0.79986  0.12593  1.0000
  H   H1592     1.0  0.71107  0.96341  0.20478  1.0000
  H   H1593     1.0  0.85872  0.95824  0.36469  1.0000
  C   C1329     1.0  0.94602  0.83590  0.37501  1.0000
  H   H1594     1.0  0.53702  0.92973  0.13674  1.0000
  H   H1595     1.0  0.76354  0.94537  0.20604  1.0000
  H   H1596     1.0  0.81611  0.81286  0.35542  1.0000
  S   S362      1.0  0.67649  0.92454  0.99992  1.0000
  C   C1330     1.0  0.86470  0.93015  0.36565  1.0000
  H   H1597     1.0  0.77630  0.79091  0.35949  1.0000
  H   H1598     1.0  0.81255  0.77075  0.26068  1.0000
  H   H1599     1.0  0.58011  0.81297  0.11869  1.0000
  C   C1331     1.0  0.65681  0.98178  0.04350  1.0000
  H   H1600     1.0  0.50558  0.77377  0.19515  1.0000
  H   H1601     1.0  0.77068  0.98121  0.18197  1.0000
  H   H1602     1.0  0.51637  0.92277  0.11543  1.0000
  H   H1603     1.0  0.82205  0.90133  0.39482  1.0000
  H   H1604     1.0  0.62365  0.78939  0.07933  1.0000
  Fe  Fe180     1.0  0.87298  0.87830  0.43897  1.0000
  H   H1605     1.0  0.80832  0.94219  0.32986  1.0000
  C   C1332     1.0  0.52823  0.98727  0.20931  1.0000
  H   H1606     1.0  0.57688  0.81684  0.20710  1.0000
  C   C1333     1.0  0.74814  0.81845  0.31974  1.0000
  S   S363      1.0  0.84804  0.86959  0.41057  1.0000
  C   C1334     1.0  0.60412  0.79370  0.12544  1.0000
  C   C1335     1.0  0.62852  0.81227  0.10275  1.0000
  H   H1607     1.0  0.53694  0.78145  0.15690  1.0000
  H   H1608     1.0  0.85282  0.84618  0.44811  1.0000
  H   H1609     1.0  0.83987  0.97121  0.23225  1.0000
  C   C1336     1.0  0.83374  0.90942  0.38628  1.0000
  C   C1337     1.0  0.60205  0.78023  0.13631  1.0000
  H   H1610     1.0  0.61918  0.77298  0.13689  1.0000
  H   H1611     1.0  0.82356  0.76757  0.30285  1.0000
  C   C1338     1.0  0.80131  0.94655  0.34775  1.0000
  N   N87       1.0  0.99508  0.91789  0.46674  1.0000
  H   H1612     1.0  0.59960  0.90135  0.98366  1.0000
  H   H1613     1.0  0.89920  0.82486  0.38040  1.0000
  N   N88       1.0  0.83037  0.75181  0.27766  1.0000
  H   H1614     1.0  0.99344  0.84607  0.43288  1.0000
  H   H1615     1.0  0.74441  0.98788  0.20211  1.0000
  H   H1616     1.0  0.64822  0.81524  0.09450  1.0000
  H   H1617     1.0  0.61411  0.81398  0.08724  1.0000
  C   C1339     1.0  0.55659  0.79806  0.13730  1.0000
  H   H1618     1.0  0.53883  0.80493  0.13776  1.0000
  C   C1340     1.0  0.50623  0.77934  0.21161  1.0000
  C   C1341     1.0  0.82183  0.92244  0.38089  1.0000
  C   C1342     1.0  0.81928  0.96995  0.23839  1.0000
  S   S364      1.0  0.86845  0.90018  0.44662  1.0000
  H   H1619     1.0  0.68262  0.81600  0.30866  1.0000
  H   H1620     1.0  0.50880  0.79893  0.27084  1.0000
  C   C1343     1.0  0.84199  0.95686  0.35243  1.0000
  C   C1344     1.0  0.97282  0.81165  0.40327  1.0000
  H   H1621     1.0  0.80080  0.92406  0.38565  1.0000
  C   C1345     1.0  0.86093  0.90675  0.38136  1.0000
  C   C1346     1.0  0.77279  0.96746  0.22806  1.0000
  H   H1622     1.0  0.80266  0.75384  0.30953  1.0000
  H   H1623     1.0  0.52217  0.84379  0.15162  1.0000
  N   N89       1.0  0.93446  0.82930  0.39883  1.0000
  C   C1347     1.0  0.76056  0.95494  0.19358  1.0000
  C   C1348     1.0  0.55444  0.84016  0.18778  1.0000
  C   C1349     1.0  0.53873  0.95793  0.13300  1.0000
  H   H1624     1.0  0.98156  0.92637  0.43004  1.0000
  H   H1625     1.0  0.80543  0.96276  0.38639  1.0000
  H   H1626     1.0  0.68164  0.80944  0.35481  1.0000
  H   H1627     1.0  0.90359  0.84554  0.40031  1.0000
  C   C1350     1.0  0.97256  0.74796  0.33935  1.0000
  H   H1628     1.0  0.65776  0.79275  0.08378  1.0000
  H   H1629     1.0  0.80679  0.96858  0.20104  1.0000
  H   H1630     1.0  0.82918  0.95138  0.40303  1.0000
  H   H1631     1.0  0.99331  0.96255  0.33950  1.0000
  H   H1632     1.0  0.90864  0.83571  0.42974  1.0000
  H   H1633     1.0  0.72516  0.95522  0.23318  1.0000
  H   H1634     1.0  0.55144  0.80639  0.20054  1.0000
  H   H1635     1.0  0.89773  0.91504  0.36828  1.0000
  Fe  Fe181     1.0  0.92423  0.87355  0.46673  1.0000
  H   H1636     1.0  0.87238  0.74954  0.28462  1.0000
  H   H1637     1.0  0.51829  0.88399  0.01685  1.0000
  H   H1638     1.0  0.56878  0.81544  0.17490  1.0000
  C   C1351     1.0  0.81184  0.97042  0.26389  1.0000
  H   H1639     1.0  0.96971  0.80881  0.38449  1.0000
  H   H1640     1.0  0.56776  0.97179  0.14054  1.0000
  H   H1641     1.0  0.92477  0.81166  0.38106  1.0000
  H   H1642     1.0  0.75532  0.82071  0.39390  1.0000
  C   C1352     1.0  0.75118  0.97903  0.19151  1.0000
  C   C1353     1.0  0.76587  0.96802  0.25426  1.0000
  C   C1354     1.0  0.66112  0.95985  0.02760  1.0000
  C   C1355     1.0  0.91924  0.84000  0.41229  1.0000
  C   C1356     1.0  0.54668  0.97018  0.13989  1.0000
  H   H1643     1.0  0.94904  0.93483  0.45476  1.0000
  Fe  Fe182     1.0  0.67319  0.98321  0.17123  1.0000
  H   H1644     1.0  0.56236  0.91461  0.99699  1.0000
  S   S365      1.0  0.92479  0.89485  0.47689  1.0000
  C   C1357     1.0  0.50063  0.97823  0.14599  1.0000
  C   C1358     1.0  0.62949  0.74264  0.20470  1.0000
  N   N90       1.0  0.54023  0.82781  0.19541  1.0000
  Fe  Fe183     1.0  0.87438  0.98828  0.37590  1.0000
  C   C1359     1.0  0.56007  0.81612  0.19439  1.0000
  H   H1645     1.0  0.84696  0.74141  0.36832  1.0000
  H   H1646     1.0  0.51412  0.83660  0.22363  1.0000
  H   H1647     1.0  0.99673  0.81441  0.34625  1.0000
  N   N91       1.0  0.50195  0.94252  0.12600  1.0000
  H   H1648     1.0  0.99823  0.87739  0.37236  1.0000
  H   H1649     1.0  0.97907  0.86880  0.41409  1.0000
  H   H1650     1.0  0.99276  0.89644  0.47526  1.0000
  C   C1360     1.0  0.99347  0.86249  0.40382  1.0000
  C   C1361     1.0  0.99366  0.80471  0.41681  1.0000
  H   H1651     1.0  0.98522  0.81985  0.47159  1.0000
  C   C1362     1.0  0.98180  0.81755  0.45244  1.0000
  C   C1363     1.0  0.99755  0.92736  0.44350  1.0000
  C   C1364     1.0  0.99888  0.75163  0.33927  1.0000
  C   C1365     1.0  0.50161  0.81503  0.18474  1.0000
  H   H1652     1.0  0.50537  0.80780  0.20085  1.0000
  C   C1366     1.0  0.99820  0.80770  0.44133  1.0000
  S   S366      1.0  0.58267  0.98861  0.21289  1.0000
  Fe  Fe184     1.0  0.61643  0.95611  0.82923  1.0000
  S   S367      1.0  0.63209  0.95509  0.86870  1.0000
  S   S368      1.0  0.57125  0.96266  0.82823  1.0000
  Fe  Fe185     1.0  0.67469  0.95060  0.80579  1.0000
  S   S369      1.0  0.69260  0.94895  0.84400  1.0000
  S   S370      1.0  0.70152  0.94902  0.76927  1.0000
  Fe  Fe186     1.0  0.65781  0.93714  0.85767  1.0000
  S   S371      1.0  0.66306  0.91776  0.88321  1.0000
  Fe  Fe187     1.0  0.66521  0.96709  0.85132  1.0000
  S   S372      1.0  0.64088  0.93732  0.81893  1.0000
  S   S373      1.0  0.64857  0.96954  0.81247  1.0000
  Fe  Fe188     1.0  0.91157  0.95117  0.67813  1.0000
  S   S374      1.0  0.90037  0.95084  0.63770  1.0000
  S   S375      1.0  0.95327  0.95900  0.68130  1.0000
  Fe  Fe189     1.0  0.85358  0.94426  0.69799  1.0000
  S   S376      1.0  0.84000  0.94296  0.65833  1.0000
  S   S377      1.0  0.82669  0.94213  0.73489  1.0000
  Fe  Fe190     1.0  0.88013  0.93206  0.65054  1.0000
  S   S378      1.0  0.89267  0.91397  0.62827  1.0000
  Fe  Fe191     1.0  0.86191  0.96175  0.64873  1.0000
  S   S379      1.0  0.89274  0.93175  0.69110  1.0000
  S   S380      1.0  0.87383  0.96369  0.68830  1.0000
  C   C1367     1.0  0.98689  0.95213  0.68553  1.0000
  C   C1368     1.0  0.51052  0.94073  0.80796  1.0000
  H   H1653     1.0  0.64740  0.97052  0.95170  1.0000
  C   C1369     1.0  0.92387  0.92566  0.51327  1.0000
  H   H1654     1.0  0.96525  0.93711  0.58566  1.0000
  H   H1655     1.0  0.98885  0.88396  0.53598  1.0000
  C   C1370     1.0  0.87174  0.97454  0.48488  1.0000
  H   H1656     1.0  0.85394  0.96058  0.54347  1.0000
  S   S381      1.0  0.85987  0.90579  0.51602  1.0000
  H   H1657     1.0  0.80490  0.91248  0.74489  1.0000
  C   C1371     1.0  0.88421  0.91224  0.59660  1.0000
  C   C1372     1.0  0.86536  0.92114  0.58393  1.0000
  C   C1373     1.0  0.85829  0.91904  0.55924  1.0000
  C   C1374     1.0  0.87035  0.90821  0.54672  1.0000
  C   C1375     1.0  0.88984  0.89955  0.55907  1.0000
  C   C1376     1.0  0.89647  0.90147  0.58399  1.0000
  H   H1658     1.0  0.85567  0.92942  0.59341  1.0000
  H   H1659     1.0  0.84313  0.92576  0.54988  1.0000
  H   H1660     1.0  0.89914  0.89113  0.54974  1.0000
  H   H1661     1.0  0.91075  0.89440  0.59373  1.0000
  C   C1377     1.0  0.73655  0.94698  0.76027  1.0000
  C   C1378     1.0  0.74430  0.94761  0.73431  1.0000
  C   C1379     1.0  0.77154  0.94620  0.72613  1.0000
  C   C1380     1.0  0.79171  0.94413  0.74382  1.0000
  C   C1381     1.0  0.78394  0.94340  0.76979  1.0000
  C   C1382     1.0  0.75673  0.94472  0.77796  1.0000
  H   H1662     1.0  0.72910  0.94926  0.72030  1.0000
  H   H1663     1.0  0.77692  0.94673  0.70611  1.0000
  H   H1664     1.0  0.79918  0.94165  0.78373  1.0000
  H   H1665     1.0  0.75154  0.94383  0.79797  1.0000
  C   C1383     1.0  0.66661  0.91972  0.91565  1.0000
  C   C1384     1.0  0.66442  0.90859  0.93375  1.0000
  H   H1666     1.0  0.66523  0.90137  0.97353  1.0000
  H   H1667     1.0  0.96374  0.88743  0.58591  1.0000
  C   C1385     1.0  0.67455  0.93355  0.94951  1.0000
  C   C1386     1.0  0.67147  0.93223  0.92365  1.0000
  H   H1668     1.0  0.66080  0.89887  0.92769  1.0000
  H   H1669     1.0  0.98844  0.94544  0.63584  1.0000
  C   C1387     1.0  0.58772  0.92755  0.89135  1.0000
  H   H1670     1.0  0.67336  0.94085  0.90987  1.0000
  C   C1388     1.0  0.53634  0.94460  0.81241  1.0000
  C   C1389     1.0  0.53937  0.95614  0.82482  1.0000
  H   H1671     1.0  0.56293  0.89250  0.94322  1.0000
  H   H1672     1.0  0.55384  0.93894  0.80539  1.0000
  C   C1390     1.0  0.59851  0.90681  0.96436  1.0000
  H   H1673     1.0  0.53376  0.90139  0.95598  1.0000
  C   C1391     1.0  0.54044  0.93134  0.89990  1.0000
  H   H1674     1.0  0.75821  0.91422  0.73166  1.0000
  C   C1392     1.0  0.96233  0.92332  0.64665  1.0000
  C   C1393     1.0  0.74344  0.98274  0.74863  1.0000
  H   H1675     1.0  0.97619  0.91723  0.65979  1.0000
  C   C1394     1.0  0.99488  0.87831  0.52007  1.0000
  C   C1395     1.0  0.79785  0.97745  0.75704  1.0000
  H   H1676     1.0  0.90944  0.93863  0.48145  1.0000
  C   C1396     1.0  0.54148  0.97369  0.76961  1.0000
  H   H1677     1.0  0.56876  0.92944  0.97644  1.0000
  C   C1397     1.0  0.95665  0.93524  0.60524  1.0000
  C   C1398     1.0  0.51614  0.96333  0.83366  1.0000
  H   H1678     1.0  0.95491  0.87319  0.51400  1.0000
  C   C1399     1.0  0.66376  0.97747  0.95131  1.0000
  S   S382      1.0  0.68450  0.98350  0.86892  1.0000
  H   H1679     1.0  0.56071  0.93843  0.86514  1.0000
  H   H1680     1.0  0.67895  0.94318  0.95546  1.0000
  C   C1400     1.0  0.86691  0.98070  0.53522  1.0000
  H   H1681     1.0  0.81498  0.90809  0.79012  1.0000
  H   H1682     1.0  0.60802  0.89969  0.95117  1.0000
  H   H1683     1.0  0.60502  0.92869  0.87858  1.0000
  C   C1401     1.0  0.98650  0.91506  0.61001  1.0000
  H   H1684     1.0  0.94744  0.90725  0.60724  1.0000
  H   H1685     1.0  0.61060  0.91663  0.91980  1.0000
  C   C1402     1.0  0.78006  0.98004  0.77730  1.0000
  C   C1403     1.0  0.99326  0.93863  0.69421  1.0000
  H   H1686     1.0  0.71469  0.90496  0.85521  1.0000
  C   C1404     1.0  0.97091  0.92102  0.48274  1.0000
  H   H1687     1.0  0.98301  0.90725  0.51542  1.0000
  H   H1688     1.0  0.94509  0.91722  0.64454  1.0000
  C   C1405     1.0  0.56834  0.91877  0.93241  1.0000
  Fe  Fe192     1.0  0.88111  0.89323  0.48636  1.0000
  H   H1689     1.0  0.75511  0.97006  0.82089  1.0000
  H   H1690     1.0  0.72149  0.91167  0.76294  1.0000
  H   H1691     1.0  0.50855  0.93204  0.79763  1.0000
  H   H1692     1.0  0.69765  0.97953  0.78016  1.0000
  H   H1693     1.0  0.61669  0.98813  0.96983  1.0000
  C   C1406     1.0  0.59064  0.92056  0.91530  1.0000
  H   H1694     1.0  0.93789  0.93009  0.60406  1.0000
  H   H1695     1.0  0.53420  0.95579  0.75241  1.0000
  H   H1696     1.0  0.51811  0.97223  0.84338  1.0000
  H   H1697     1.0  0.97742  0.93200  0.69919  1.0000
  C   C1407     1.0  0.99709  0.93629  0.62709  1.0000
  C   C1408     1.0  0.96787  0.91453  0.50763  1.0000
  H   H1698     1.0  0.69273  0.89354  0.82486  1.0000
  C   C1409     1.0  0.55920  0.91969  0.97762  1.0000
  H   H1699     1.0  0.77949  0.90549  0.82234  1.0000
  H   H1700     1.0  0.95417  0.93230  0.65621  1.0000
  C   C1410     1.0  0.94472  0.91689  0.52264  1.0000
  C   C1411     1.0  0.54308  0.92430  0.92388  1.0000
  C   C1412     1.0  0.97564  0.87226  0.50757  1.0000
  H   H1701     1.0  0.72171  0.97458  0.83121  1.0000
  N   N92       1.0  0.97607  0.92728  0.62205  1.0000
  H   H1702     1.0  0.55734  0.89266  0.97683  1.0000
  H   H1703     1.0  0.69477  0.92005  0.79338  1.0000
  H   H1704     1.0  0.52099  0.93549  0.89366  1.0000
  H   H1705     1.0  0.72330  0.88563  0.81238  1.0000
  C   C1413     1.0  0.66682  0.91000  0.95972  1.0000
  C   C1414     1.0  0.67204  0.92248  0.96767  1.0000
  H   H1706     1.0  0.70094  0.89576  0.79168  1.0000
  H   H1707     1.0  0.80233  0.97508  0.71719  1.0000
  N   N93       1.0  0.72395  0.90697  0.81480  1.0000
  C   C1415     1.0  0.73222  0.90556  0.84156  1.0000
  C   C1416     1.0  0.70505  0.91910  0.81167  1.0000
  C   C1417     1.0  0.70962  0.89495  0.81074  1.0000
  C   C1418     1.0  0.74650  0.90826  0.79598  1.0000
  C   C1419     1.0  0.77367  0.90721  0.80290  1.0000
  C   C1420     1.0  0.74158  0.91061  0.76970  1.0000
  C   C1421     1.0  0.79440  0.90859  0.78455  1.0000
  C   C1422     1.0  0.76246  0.91198  0.75156  1.0000
  C   C1423     1.0  0.78880  0.91099  0.75897  1.0000
  H   H1708     1.0  0.74278  0.91443  0.84594  1.0000
  H   H1709     1.0  0.66414  0.98288  0.93193  1.0000
  H   H1710     1.0  0.74525  0.89619  0.84593  1.0000
  H   H1711     1.0  0.71565  0.92843  0.81225  1.0000
  H   H1712     1.0  0.68901  0.91898  0.82685  1.0000
  H   H1713     1.0  0.94255  0.91157  0.54134  1.0000
  C   C1424     1.0  0.73475  0.97300  0.81409  1.0000
  H   H1714     1.0  0.90566  0.92720  0.52467  1.0000
  C   C1425     1.0  0.97780  0.89437  0.59098  1.0000
  C   C1426     1.0  0.78858  0.97760  0.73267  1.0000
  N   N94       1.0  0.57056  0.91119  0.95772  1.0000
  C   C1427     1.0  0.86085  0.96802  0.52885  1.0000
  H   H1715     1.0  0.75429  0.97990  0.70957  1.0000
  H   H1716     1.0  0.72772  0.96427  0.80543  1.0000
  H   H1717     1.0  0.95053  0.94522  0.61223  1.0000
  H   H1718     1.0  0.81885  0.97484  0.76027  1.0000
  C   C1428     1.0  0.55548  0.89894  0.95842  1.0000
  H   H1719     1.0  0.85836  0.95513  0.49884  1.0000
  C   C1429     1.0  0.53011  0.98527  0.77960  1.0000
  C   C1430     1.0  0.70549  0.98816  0.78875  1.0000
  H   H1720     1.0  0.90021  0.98106  0.63490  1.0000
  C   C1431     1.0  0.76148  0.98027  0.72846  1.0000
  C   C1432     1.0  0.86331  0.96494  0.50374  1.0000
  H   H1721     1.0  0.72265  0.98424  0.74407  1.0000
  C   C1433     1.0  0.98322  0.86494  0.48692  1.0000
  H   H1722     1.0  0.52515  0.92312  0.93561  1.0000
  S   S383      1.0  0.84437  0.97972  0.62454  1.0000
  N   N95       1.0  0.65950  0.98697  0.97133  1.0000
  C   C1434     1.0  0.56275  0.93298  0.88372  1.0000
  C   C1435     1.0  0.92606  0.93211  0.48890  1.0000
  H   H1723     1.0  0.61089  0.91561  0.96436  1.0000
  C   C1436     1.0  0.96866  0.90575  0.60316  1.0000
  H   H1724     1.0  0.68316  0.97137  0.95320  1.0000
  S   S384      1.0  0.88146  0.87107  0.47953  1.0000
  H   H1725     1.0  0.78823  0.97957  0.79589  1.0000
  H   H1726     1.0  0.86410  0.98267  0.55493  1.0000
  C   C1437     1.0  0.87801  0.98724  0.49105  1.0000
  H   H1727     1.0  0.56273  0.97106  0.77104  1.0000
  C   C1438     1.0  0.75225  0.98274  0.77376  1.0000
  C   C1439     1.0  0.52535  0.96509  0.75914  1.0000
  N   N96       1.0  0.73378  0.98515  0.79570  1.0000
  H   H1728     1.0  0.53729  0.92189  0.97640  1.0000
  C   C1440     1.0  0.50257  0.98843  0.77878  1.0000
