data_image0
_chemical_formula_structural       SFeSHFeS2HFeS4FeS2FeS2FeSFeS3C3SH2C6H4C6H2CHC2H2SHC2HNHCHC7H4CH5NH3CHCHNHC5H3CHCHFeH2C2H2C2NC2H2C2H3CHC2H3CH5C2H3C2H2C2HCH3CHC3H3C4H4C2FeC3FeH6CHSFeS2FeS2FeSFeS4FeS2FeS2FeSHS2C3H4C3HC6H4C7H3C6H4C3HNH4CH4CHCH4NH2CHCSHCH4C3H3CH2C2H4CHNC6HC3H2CH9C2H3C3NCHCH2C2HNHC5H6C2HC5H3CH3FeH3CH2CH2CHC4HCH3CHC2H2SHC2HCH3C2HNH2CH2CH2C2SFeS2FeS2FeSFeS3FeS2FeS2FeSHS3C3H2C3HCH2C6H4C6H4C6H4CH4NC4H4CH5C2NHCNC6HCH13C2H2C4H2CHNH3FeH2CHC2H2C3H3C2H4C3H7C2H3C2HNH2CHC2H2CSHC3H2C3HCHCH2FeSFeS2FeSFeS4FeS2FeS2FeSFeS4C6H4C6H4C2NHC2NHC2H2C7H4C5HCH3CH3CHC3H4CNC6NH10CH6CH3C2HC4H4CH3C2HC2H2CH3CHCHNC2HC3SH2C2H2C2H5C2NHC4H2C3H3C3H2CHCHCH5C3H4CH6CH3SFeS2FeSFeCS2HCFeS4FeS2FeSFeSFeS4C6H4C6H2CHCHC6SH3C6H4CHC3HSCHCHCH3CHFeHNC2H2CH2CHCFeC3HCHC2HCNC6HC2H2SH8C2NH4C2NH4NHCH6CHFeCHCH4FeHC2H5CH2CHCHSH2CH2CHCHCHCHC2NH2CH2SHFeHCHCHS2H3CH3C2H2SFeSFeS2FeSFeS5Fe2S2CFeS2FeS2FeSHS2HC6H6C7H4C6H4C6H6CH2CHCH2C3H2CNH2C7HCHCH3CH6NC6H2CH10CHCHNH4CH3CH11CH2C2H3C5HC2SHCHCHC2H3NFeHSC5H2CHSHC2H7NHFeH3C5HCHCHCH2SCH3CHC2NSHCH2FeS2FeS2FeSFeS2FeS2FeS2FeSFeS2CHFeS2HS2C2HC6HCH2C6H5CH3C6H4C6H4CH2CNFeCHCH5C2HNCHCH3CH3FeHSNC3H2CHC2H5C2NC3HCSCH4CHCH2CH2NH6C2HSCSH5C2H3CH2C6NC4HCH2CH3SH3CH2C2H2C6H2C2H6CH3CHCHCHC2FeHC3H2C2HCH5CHCHCH3SCH2C3SNHSFeS2FeS2Fe2S3FeSFeS2FeSFeS3FeS4HSH3CHCHC2HC7H5C6H4C6H4C6H4C2HNC3H2NSFeCH2C2H3C2H5SCFeH2C2H2CH2CH3FeSH3SH6NH2C2H2CSCNH2CH4CNC9H14CHC2H5CH2CH3CHCH3CHCHC2FeHSFeS2HCS3FeS2FeS2FeSFeS3FeS2HFeSNHS2HC5SHC4NH3CHC3HFeHCH6C6H4C3HC7H5CH3CH3CFeHNC5H16C3FeCH2C2H6CHNCH3CH7NHC2HC2H5CH2C6H2C2H2SH2NC3H2C2H2CH3C2HC2H2SFeS2FeS2FeSFeS3FeS2FeCHFeHS2H3CHFeS2CHSCFeSHSC6H3CHCSCH4CHCHCHC2HC6H4C2HC6H4C4FeH2C2HNHCH4CHCH2NC3SH5CH5CHCSH3CHCHCNC9H3FeHCH2CH8CH3C2H2CHC5HC2HC3HCHC3H3FeS2FeHFeS3H3CSCSCSFeSFeHSCFeS2FeS2FeSFeS4C6H4C4H2C7H4C2HCHCHC3H3CHCHC6H3C3HCNCH3C2HCHCH2CH3SH5NHCHCNHC2H6C2HCHSC2H3CHCH2C2HCH3C2H3FeHC2HFeHNHC5HNHCH2CH3CH4C2H7CNC2H3CHC3FeCFeHC3HFeS2FeSCHS2CFeS2FeS2FeSFeS4CS3FeHFeSFeSH3C8H4C6H6C2H4CH2FeCH3CHNHCHCH4C2H3C2SH5C2NC6H2NH12CHCH3CH2CHC3NHC3FeHC2H3C3H5CHCHCH3SC
_chemical_formula_sum              "S256 Fe128 H1152 C960 N64"
_cell_length_a       50.5681
_cell_length_b       50.5033
_cell_length_c       27.6868
_cell_angle_alpha    89.6756
_cell_angle_beta     89.4057
_cell_angle_gamma    88.5297

_space_group_name_H-M_alt    "P 1"
_space_group_IT_number       1

loop_
  _space_group_symop_operation_xyz
  'x, y, z'

loop_
  _atom_site_type_symbol
  _atom_site_label
  _atom_site_symmetry_multiplicity
  _atom_site_fract_x
  _atom_site_fract_y
  _atom_site_fract_z
  _atom_site_occupancy
  S   S1        1.0  0.05280  0.38424  0.31312  1.0000
  Fe  Fe1       1.0  0.12990  0.05451  0.40186  1.0000
  S   S2        1.0  0.11100  0.06590  0.47327  1.0000
  H   H1        1.0  0.01030  0.15412  0.43459  1.0000
  Fe  Fe2       1.0  0.14950  0.11006  0.38519  1.0000
  S   S3        1.0  0.13257  0.12562  0.45469  1.0000
  S   S4        1.0  0.16601  0.13880  0.33083  1.0000
  H   H2        1.0  0.22118  0.31921  0.11523  1.0000
  Fe  Fe3       1.0  0.09693  0.10278  0.43545  1.0000
  S   S5        1.0  0.05925  0.12610  0.44959  1.0000
  S   S6        1.0  0.16852  0.07361  0.41910  1.0000
  S   S7        1.0  0.11244  0.08986  0.36313  1.0000
  S   S8        1.0  0.15087  0.41755  0.09195  1.0000
  Fe  Fe4       1.0  0.20249  0.32077  0.30333  1.0000
  S   S9        1.0  0.20874  0.35571  0.35185  1.0000
  S   S10       1.0  0.19330  0.32122  0.22248  1.0000
  Fe  Fe5       1.0  0.20949  0.28076  0.38648  1.0000
  S   S11       1.0  0.21503  0.31277  0.44067  1.0000
  S   S12       1.0  0.21391  0.24099  0.42351  1.0000
  Fe  Fe6       1.0  0.18188  0.33433  0.40329  1.0000
  S   S13       1.0  0.14918  0.35321  0.44845  1.0000
  Fe  Fe7       1.0  0.24160  0.33075  0.38555  1.0000
  S   S14       1.0  0.28122  0.34635  0.40958  1.0000
  S   S15       1.0  0.17372  0.30066  0.35367  1.0000
  S   S16       1.0  0.23791  0.29762  0.33240  1.0000
  C   C1        1.0  0.08615  0.41254  0.12220  1.0000
  C   C2        1.0  0.05417  0.01777  0.25337  1.0000
  C   C3        1.0  0.02964  0.36112  0.06384  1.0000
  S   S17       1.0  0.12471  0.01208  0.37644  1.0000
  H   H3        1.0  0.07393  0.01343  0.26641  1.0000
  H   H4        1.0  0.26302  0.36977  0.00124  1.0000
  C   C4        1.0  0.16063  0.39042  0.12952  1.0000
  C   C5        1.0  0.15849  0.36417  0.11453  1.0000
  C   C6        1.0  0.16775  0.34320  0.14421  1.0000
  C   C7        1.0  0.17901  0.34815  0.18943  1.0000
  C   C8        1.0  0.18018  0.37435  0.20527  1.0000
  C   C9        1.0  0.17106  0.39535  0.17541  1.0000
  H   H5        1.0  0.14999  0.36000  0.07985  1.0000
  H   H6        1.0  0.16647  0.32298  0.13187  1.0000
  H   H7        1.0  0.18878  0.37849  0.23996  1.0000
  H   H8        1.0  0.17262  0.41556  0.18760  1.0000
  C   C10       1.0  0.17946  0.16719  0.35640  1.0000
  C   C11       1.0  0.18240  0.19014  0.32823  1.0000
  C   C12       1.0  0.19244  0.21319  0.34867  1.0000
  C   C13       1.0  0.20021  0.21304  0.39700  1.0000
  C   C14       1.0  0.19762  0.18998  0.42487  1.0000
  C   C15       1.0  0.18698  0.16720  0.40482  1.0000
  H   H9        1.0  0.17683  0.19012  0.29061  1.0000
  H   H10       1.0  0.19458  0.23089  0.32691  1.0000
  C   C16       1.0  0.28610  0.18593  0.26187  1.0000
  H   H11       1.0  0.18515  0.14947  0.42657  1.0000
  C   C17       1.0  0.32110  0.27026  0.32044  1.0000
  C   C18       1.0  0.04842  0.37753  0.08393  1.0000
  H   H12       1.0  0.19195  0.33338  0.04984  1.0000
  H   H13       1.0  0.21619  0.36208  0.10646  1.0000
  S   S18       1.0  0.33401  0.20940  0.08498  1.0000
  H   H14       1.0  0.04164  0.42912  0.16916  1.0000
  C   C19       1.0  0.22801  0.36953  0.07549  1.0000
  C   C20       1.0  0.03016  0.11658  0.42114  1.0000
  H   H15       1.0  0.07350  0.42571  0.09923  1.0000
  N   N1        1.0  0.07024  0.39740  0.15767  1.0000
  H   H16       1.0  0.28730  0.22874  0.20100  1.0000
  C   C21       1.0  0.08839  0.15365  0.32630  1.0000
  H   H17       1.0  0.04454  0.07745  0.40256  1.0000
  C   C22       1.0  0.30557  0.21629  0.20593  1.0000
  C   C23       1.0  0.07912  0.37574  0.35186  1.0000
  C   C24       1.0  0.10391  0.36915  0.33161  1.0000
  C   C25       1.0  0.12532  0.36219  0.36126  1.0000
  C   C26       1.0  0.12220  0.36210  0.41147  1.0000
  C   C27       1.0  0.09747  0.36896  0.43198  1.0000
  C   C28       1.0  0.07586  0.37559  0.40216  1.0000
  H   H18       1.0  0.10662  0.36923  0.29284  1.0000
  H   H19       1.0  0.14431  0.35702  0.34509  1.0000
  H   H20       1.0  0.04720  0.04703  0.30893  1.0000
  H   H21       1.0  0.05668  0.38037  0.41788  1.0000
  C   C29       1.0  0.06513  0.44191  0.46782  1.0000
  H   H22       1.0  0.21790  0.38853  0.06477  1.0000
  H   H23       1.0  0.07817  0.14219  0.35508  1.0000
  H   H24       1.0  0.14902  0.03929  0.29437  1.0000
  H   H25       1.0  0.10788  0.14330  0.32054  1.0000
  H   H26       1.0  0.11652  0.21341  0.31449  1.0000
  N   N2        1.0  0.22985  0.35050  0.03472  1.0000
  H   H27       1.0  0.32278  0.22847  0.19574  1.0000
  H   H28       1.0  0.09917  0.36558  0.16464  1.0000
  H   H29       1.0  0.10447  0.39320  0.20353  1.0000
  C   C30       1.0  0.23730  0.31222  0.09224  1.0000
  H   H30       1.0  0.07053  0.43053  0.20666  1.0000
  C   C31       1.0  0.25051  0.28881  0.10631  1.0000
  H   H31       1.0  0.27359  0.30027  0.47247  1.0000
  N   N3        1.0  0.30723  0.20566  0.25600  1.0000
  H   H32       1.0  0.08381  0.23560  0.35080  1.0000
  C   C32       1.0  0.26522  0.31433  0.02072  1.0000
  C   C33       1.0  0.04117  0.18425  0.34539  1.0000
  C   C34       1.0  0.30518  0.22766  0.29121  1.0000
  C   C35       1.0  0.28604  0.22858  0.32930  1.0000
  C   C36       1.0  0.29654  0.21029  0.01308  1.0000
  H   H33       1.0  0.02832  0.35944  0.02482  1.0000
  H   H34       1.0  0.06092  0.38782  0.05850  1.0000
  H   H35       1.0  0.07878  0.37081  0.21751  1.0000
  C   C37       1.0  0.01783  0.22653  0.35264  1.0000
  H   H36       1.0  0.28252  0.21459  0.04189  1.0000
  C   C38       1.0  0.32073  0.34695  0.47720  1.0000
  H   H37       1.0  0.08520  0.43227  0.46779  1.0000
  Fe  Fe8       1.0  0.13904  0.41364  0.01298  1.0000
  H   H38       1.0  0.05377  0.43193  0.43916  1.0000
  H   H39       1.0  0.33828  0.24945  0.26082  1.0000
  C   C39       1.0  0.30192  0.27072  0.35691  1.0000
  C   C40       1.0  0.03903  0.03706  0.27801  1.0000
  H   H40       1.0  0.07720  0.02299  0.43858  1.0000
  H   H41       1.0  0.03425  0.36567  0.20317  1.0000
  C   C41       1.0  0.15223  0.01023  0.23730  1.0000
  C   C42       1.0  0.01461  0.34872  0.14359  1.0000
  N   N4        1.0  0.09155  0.18176  0.34020  1.0000
  C   C43       1.0  0.10905  0.19393  0.30319  1.0000
  C   C44       1.0  0.10496  0.18214  0.38747  1.0000
  H   H42       1.0  0.26959  0.25028  0.38993  1.0000
  H   H43       1.0  0.16120  0.02379  0.21191  1.0000
  C   C45       1.0  0.28465  0.24978  0.36164  1.0000
  C   C46       1.0  0.05641  0.41692  0.18960  1.0000
  H   H44       1.0  0.28709  0.17584  0.29769  1.0000
  H   H45       1.0  0.33559  0.17481  0.23564  1.0000
  H   H46       1.0  0.10913  0.20262  0.39922  1.0000
  C   C47       1.0  0.06607  0.19678  0.34421  1.0000
  H   H47       1.0  0.12717  0.18143  0.29615  1.0000
  C   C48       1.0  0.02793  0.09134  0.40139  1.0000
  C   C49       1.0  0.06569  0.22477  0.34924  1.0000
  H   H48       1.0  0.12429  0.17108  0.38607  1.0000
  H   H49       1.0  0.28112  0.25988  0.08863  1.0000
  H   H50       1.0  0.10053  0.42546  0.14035  1.0000
  C   C50       1.0  0.08889  0.38102  0.18706  1.0000
  H   H51       1.0  0.01383  0.44564  0.48292  1.0000
  H   H52       1.0  0.04575  0.40735  0.22003  1.0000
  H   H53       1.0  0.09259  0.17286  0.41620  1.0000
  H   H54       1.0  0.24796  0.37413  0.08921  1.0000
  H   H55       1.0  0.32733  0.36439  0.45814  1.0000
  C   C51       1.0  0.05678  0.01871  0.43108  1.0000
  C   C52       1.0  0.04187  0.23937  0.35293  1.0000
  H   H56       1.0  0.09861  0.19660  0.26824  1.0000
  H   H57       1.0  0.33527  0.18309  0.29877  1.0000
  H   H58       1.0  0.03939  0.16301  0.34382  1.0000
  C   C53       1.0  0.27818  0.29078  0.03503  1.0000
  C   C54       1.0  0.29860  0.33359  0.46041  1.0000
  H   H59       1.0  0.09815  0.39907  0.09841  1.0000
  H   H60       1.0  0.30540  0.20016  0.17856  1.0000
  C   C55       1.0  0.01273  0.34681  0.09355  1.0000
  C   C56       1.0  0.14529  0.01910  0.28403  1.0000
  H   H61       1.0  0.06669  0.46291  0.45595  1.0000
  C   C57       1.0  0.05073  0.38013  0.13492  1.0000
  H   H62       1.0  0.09494  0.36866  0.47079  1.0000
  H   H63       1.0  0.26607  0.19533  0.25767  1.0000
  H   H64       1.0  0.07720  0.15203  0.29210  1.0000
  C   C58       1.0  0.32349  0.20621  0.02403  1.0000
  H   H65       1.0  0.24464  0.27887  0.13944  1.0000
  C   C59       1.0  0.27096  0.27813  0.07782  1.0000
  C   C60       1.0  0.01023  0.02294  0.45137  1.0000
  C   C61       1.0  0.03656  0.02878  0.46069  1.0000
  H   H66       1.0  0.05236  0.50676  0.02649  1.0000
  H   H67       1.0  0.08056  0.01544  0.14401  1.0000
  H   H68       1.0  0.30023  0.28747  0.38126  1.0000
  C   C62       1.0  0.32292  0.24899  0.28828  1.0000
  C   C63       1.0  0.01748  0.19904  0.34931  1.0000
  C   C64       1.0  0.33304  0.19146  0.26169  1.0000
  C   C65       1.0  0.24450  0.32599  0.04935  1.0000
  H   H69       1.0  0.28791  0.16997  0.23430  1.0000
  H   H70       1.0  0.20394  0.18963  0.46206  1.0000
  H   H71       1.0  0.27163  0.21339  0.33480  1.0000
  H   H72       1.0  0.15795  0.29562  0.48539  1.0000
  C   C66       1.0  0.03336  0.36503  0.16411  1.0000
  C   C67       1.0  0.01810  0.01200  0.19772  1.0000
  Fe  Fe9       1.0  0.14817  0.08796  0.48748  1.0000
  C   C68       1.0  0.29040  0.31095  0.48522  1.0000
  C   C69       1.0  0.01365  0.04397  0.26244  1.0000
  C   C70       1.0  0.20278  0.34358  0.02033  1.0000
  Fe  Fe10      1.0  0.01233  0.39121  0.34617  1.0000
  H   H73       1.0  0.19082  0.36156  0.01018  1.0000
  H   H74       1.0  0.33448  0.28662  0.31689  1.0000
  H   H75       1.0  0.04201  0.26076  0.35629  1.0000
  H   H76       1.0  0.29384  0.28210  0.01266  1.0000
  H   H77       1.0  0.23893  0.37638  0.49210  1.0000
  H   H78       1.0  0.14270  0.00952  0.47406  1.0000
  C   C71       1.0  0.00863  0.13456  0.41933  1.0000
  H   H79       1.0  0.04128  0.04124  0.49100  1.0000
  S   S19       1.0  0.04805  0.16428  0.81261  1.0000
  Fe  Fe11      1.0  0.19878  0.17823  0.82806  1.0000
  S   S20       1.0  0.18993  0.19624  0.75595  1.0000
  S   S21       1.0  0.16868  0.15453  0.86973  1.0000
  Fe  Fe12      1.0  0.25425  0.20042  0.83174  1.0000
  S   S22       1.0  0.24936  0.22044  0.75887  1.0000
  S   S23       1.0  0.29539  0.20178  0.86572  1.0000
  Fe  Fe13      1.0  0.20877  0.23224  0.78516  1.0000
  S   S24       1.0  0.18604  0.26915  0.76283  1.0000
  Fe  Fe14      1.0  0.23071  0.18293  0.73465  1.0000
  S   S25       1.0  0.23794  0.17010  0.65718  1.0000
  S   S26       1.0  0.21462  0.21555  0.85987  1.0000
  S   S27       1.0  0.23875  0.16167  0.80480  1.0000
  S   S28       1.0  0.16123  0.08635  0.56565  1.0000
  Fe  Fe15      1.0  0.12707  0.44346  0.91638  1.0000
  S   S29       1.0  0.10154  0.42997  0.97924  1.0000
  S   S30       1.0  0.11895  0.48554  0.88697  1.0000
  Fe  Fe16      1.0  0.15957  0.39166  0.91776  1.0000
  S   S31       1.0  0.13599  0.37417  0.97814  1.0000
  S   S32       1.0  0.19671  0.36841  0.89816  1.0000
  Fe  Fe17      1.0  0.10071  0.39139  0.93951  1.0000
  S   S33       1.0  0.06577  0.36448  0.93649  1.0000
  H   H80       1.0  0.04843  0.12237  0.73783  1.0000
  S   S34       1.0  0.12406  0.40533  0.87487  1.0000
  S   S35       1.0  0.16461  0.43075  0.95435  1.0000
  C   C72       1.0  0.16161  0.29138  0.52331  1.0000
  C   C73       1.0  0.30364  0.30242  0.52727  1.0000
  C   C74       1.0  0.32533  0.31623  0.54480  1.0000
  H   H81       1.0  0.01356  0.45032  0.54627  1.0000
  H   H82       1.0  0.29680  0.28522  0.54674  1.0000
  H   H83       1.0  0.06418  0.45912  0.67897  1.0000
  H   H84       1.0  0.03206  0.22866  0.75954  1.0000
  C   C75       1.0  0.30534  0.20311  0.92729  1.0000
  C   C76       1.0  0.09157  0.09599  0.64940  1.0000
  C   C77       1.0  0.01305  0.22866  0.74177  1.0000
  H   H85       1.0  0.22138  0.20643  0.57326  1.0000
  C   C78       1.0  0.18851  0.29604  0.80214  1.0000
  C   C79       1.0  0.16939  0.31661  0.80052  1.0000
  C   C80       1.0  0.17124  0.33852  0.83117  1.0000
  C   C81       1.0  0.19271  0.34028  0.86229  1.0000
  C   C82       1.0  0.21183  0.31969  0.86383  1.0000
  C   C83       1.0  0.20953  0.29739  0.83430  1.0000
  H   H86       1.0  0.15308  0.31560  0.77567  1.0000
  H   H87       1.0  0.15649  0.35442  0.82976  1.0000
  H   H88       1.0  0.22852  0.32103  0.88772  1.0000
  H   H89       1.0  0.22440  0.28161  0.83551  1.0000
  C   C84       1.0  0.18123  0.11120  0.58993  1.0000
  C   C85       1.0  0.19724  0.12686  0.56046  1.0000
  C   C86       1.0  0.21450  0.14493  0.58138  1.0000
  C   C87       1.0  0.21537  0.14797  0.63177  1.0000
  C   C88       1.0  0.19866  0.13300  0.66109  1.0000
  C   C89       1.0  0.18194  0.11444  0.64027  1.0000
  C   C90       1.0  0.04793  0.07756  0.65648  1.0000
  H   H90       1.0  0.22744  0.15629  0.55838  1.0000
  H   H91       1.0  0.19920  0.13511  0.69995  1.0000
  H   H92       1.0  0.16972  0.10235  0.66334  1.0000
  C   C91       1.0  0.08150  0.15907  0.82705  1.0000
  C   C92       1.0  0.08929  0.14482  0.86814  1.0000
  C   C93       1.0  0.11623  0.14289  0.88027  1.0000
  C   C94       1.0  0.13542  0.15502  0.85123  1.0000
  C   C95       1.0  0.12755  0.16836  0.80923  1.0000
  C   C96       1.0  0.10070  0.17052  0.79734  1.0000
  H   H93       1.0  0.07456  0.13597  0.89135  1.0000
  H   H94       1.0  0.12218  0.13247  0.91283  1.0000
  H   H95       1.0  0.14204  0.17738  0.78621  1.0000
  H   H96       1.0  0.09476  0.18136  0.76524  1.0000
  C   C97       1.0  0.19923  0.35785  0.54187  1.0000
  C   C98       1.0  0.03103  0.40495  0.90947  1.0000
  C   C99       1.0  0.03489  0.37783  0.91829  1.0000
  H   H97       1.0  0.30277  0.13939  0.69895  1.0000
  N   N5        1.0  0.05200  0.43972  0.51594  1.0000
  H   H98       1.0  0.04731  0.41823  0.91343  1.0000
  H   H99       1.0  0.09808  0.47028  0.51166  1.0000
  H   H100      1.0  0.03034  0.09249  0.74737  1.0000
  H   H101      1.0  0.19521  0.36944  0.50819  1.0000
  C   C100      1.0  0.13481  0.48290  0.79035  1.0000
  H   H102      1.0  0.12235  0.22541  0.94210  1.0000
  H   H103      1.0  0.14124  0.46269  0.79771  1.0000
  H   H104      1.0  0.28298  0.30711  0.64926  1.0000
  H   H105      1.0  0.19178  0.20329  0.64089  1.0000
  C   C101      1.0  0.06573  0.08861  0.57765  1.0000
  H   H106      1.0  0.07938  0.48950  0.95840  1.0000
  C   C102      1.0  0.04538  0.07874  0.60626  1.0000
  H   H107      1.0  0.23124  0.38333  0.98428  1.0000
  H   H108      1.0  0.19844  0.33654  0.53224  1.0000
  H   H109      1.0  0.01178  0.18612  0.74065  1.0000
  H   H110      1.0  0.09861  0.11926  0.74046  1.0000
  N   N6        1.0  0.19809  0.23957  0.60128  1.0000
  H   H111      1.0  0.01644  0.33981  0.91990  1.0000
  H   H112      1.0  0.05107  0.10425  0.79351  1.0000
  C   C103      1.0  0.05813  0.44924  0.60420  1.0000
  H   H113      1.0  0.33091  0.21080  0.78545  1.0000
  C   C104      1.0  0.22374  0.39125  0.58285  1.0000
  S   S36       1.0  0.33980  0.30582  0.60003  1.0000
  H   H114      1.0  0.23335  0.23031  0.64207  1.0000
  C   C105      1.0  0.15522  0.30266  0.60716  1.0000
  H   H115      1.0  0.20320  0.33022  0.98842  1.0000
  H   H116      1.0  0.17389  0.23131  0.66433  1.0000
  H   H117      1.0  0.10475  0.10448  0.57665  1.0000
  H   H118      1.0  0.19339  0.34881  0.63944  1.0000
  C   C106      1.0  0.33184  0.24494  0.74131  1.0000
  C   C107      1.0  0.09363  0.47613  0.63277  1.0000
  C   C108      1.0  0.18236  0.26324  0.58582  1.0000
  H   H119      1.0  0.14863  0.48235  0.71632  1.0000
  H   H120      1.0  0.26461  0.37089  0.53439  1.0000
  H   H121      1.0  0.22260  0.23584  0.53705  1.0000
  C   C109      1.0  0.33409  0.33831  0.51914  1.0000
  H   H122      1.0  0.18499  0.25731  0.50721  1.0000
  H   H123      1.0  0.27348  0.33718  0.58325  1.0000
  C   C110      1.0  0.20934  0.22383  0.56038  1.0000
  C   C111      1.0  0.10286  0.47905  0.58555  1.0000
  H   H124      1.0  0.17541  0.01684  0.56536  1.0000
  H   H125      1.0  0.26670  0.21171  0.95735  1.0000
  H   H126      1.0  0.23310  0.26204  0.61200  1.0000
  H   H127      1.0  0.33202  0.24730  0.61894  1.0000
  C   C112      1.0  0.08887  0.09692  0.59913  1.0000
  H   H128      1.0  0.05752  0.02274  0.58787  1.0000
  N   N7        1.0  0.12426  0.24581  0.87365  1.0000
  C   C113      1.0  0.21288  0.33956  0.63950  1.0000
  C   C114      1.0  0.13161  0.23940  0.82303  1.0000
  C   C115      1.0  0.14275  0.26611  0.89064  1.0000
  C   C116      1.0  0.09605  0.25454  0.87578  1.0000
  C   C117      1.0  0.08774  0.28087  0.88779  1.0000
  C   C118      1.0  0.07585  0.23665  0.86410  1.0000
  H   H129      1.0  0.03523  0.40748  0.55748  1.0000
  C   C119      1.0  0.04912  0.24445  0.86506  1.0000
  C   C120      1.0  0.12860  0.22176  0.90401  1.0000
  C   C121      1.0  0.17087  0.28066  0.62075  1.0000
  H   H130      1.0  0.11488  0.08682  0.74025  1.0000
  H   H131      1.0  0.02736  0.07225  0.58950  1.0000
  C   C122      1.0  0.07102  0.05894  0.75161  1.0000
  H   H132      1.0  0.15250  0.23201  0.81999  1.0000
  H   H133      1.0  0.14189  0.28424  0.86761  1.0000
  H   H134      1.0  0.05835  0.47851  0.88122  1.0000
  H   H135      1.0  0.16374  0.25881  0.88888  1.0000
  H   H136      1.0  0.33223  0.25803  0.77220  1.0000
  H   H137      1.0  0.24788  0.34322  0.50859  1.0000
  H   H138      1.0  0.08053  0.21642  0.85387  1.0000
  H   H139      1.0  0.21383  0.25693  0.66610  1.0000
  H   H140      1.0  0.03419  0.23021  0.85644  1.0000
  C   C123      1.0  0.15055  0.30796  0.55849  1.0000
  C   C124      1.0  0.24505  0.36355  0.52314  1.0000
  H   H141      1.0  0.14573  0.03426  0.54997  1.0000
  H   H142      1.0  0.14646  0.31547  0.63460  1.0000
  H   H143      1.0  0.30272  0.16549  0.65521  1.0000
  C   C125      1.0  0.22051  0.24766  0.63160  1.0000
  C   C126      1.0  0.24396  0.31034  0.68097  1.0000
  C   C127      1.0  0.33100  0.16178  0.76578  1.0000
  N   N8        1.0  0.22522  0.36405  0.56319  1.0000
  C   C128      1.0  0.18101  0.22190  0.63020  1.0000
  H   H144      1.0  0.06353  0.09006  0.53875  1.0000
  C   C129      1.0  0.05818  0.49210  0.95445  1.0000
  H   H145      1.0  0.10507  0.02806  0.58379  1.0000
  H   H146      1.0  0.10999  0.10298  0.66338  1.0000
  C   C130      1.0  0.07137  0.46118  0.64213  1.0000
  C   C131      1.0  0.23182  0.34523  0.60285  1.0000
  H   H147      1.0  0.02088  0.27645  0.87743  1.0000
  N   N9        1.0  0.07231  0.08653  0.73323  1.0000
  H   H148      1.0  0.24296  0.39667  0.59899  1.0000
  C   C132      1.0  0.09684  0.09821  0.75206  1.0000
  C   C133      1.0  0.04956  0.10203  0.75364  1.0000
  C   C134      1.0  0.07086  0.08667  0.67977  1.0000
  C   C135      1.0  0.08993  0.46698  0.54732  1.0000
  C   C136      1.0  0.12296  0.49805  0.82717  1.0000
  H   H149      1.0  0.17366  0.27716  0.65897  1.0000
  H   H150      1.0  0.12956  0.25719  0.79924  1.0000
  H   H151      1.0  0.04052  0.43847  0.61316  1.0000
  H   H152      1.0  0.08735  0.04633  0.73623  1.0000
  H   H153      1.0  0.19698  0.12443  0.52166  1.0000
  H   H154      1.0  0.09708  0.09834  0.79235  1.0000
  C   C137      1.0  0.33231  0.19921  0.93825  1.0000
  C   C138      1.0  0.28747  0.20862  0.96510  1.0000
  H   H155      1.0  0.11759  0.20450  0.89100  1.0000
  C   C139      1.0  0.13899  0.49414  0.74421  1.0000
  C   C140      1.0  0.06708  0.45162  0.55558  1.0000
  C   C141      1.0  0.21888  0.32223  0.67769  1.0000
  C   C142      1.0  0.33165  0.23883  0.65505  1.0000
  C   C143      1.0  0.06093  0.28852  0.88827  1.0000
  H   H156      1.0  0.10148  0.29606  0.89686  1.0000
  H   H157      1.0  0.05511  0.30875  0.89747  1.0000
  H   H158      1.0  0.05199  0.04957  0.74269  1.0000
  C   C144      1.0  0.33115  0.21754  0.74838  1.0000
  H   H159      1.0  0.03160  0.06983  0.67714  1.0000
  H   H160      1.0  0.11910  0.22383  0.80782  1.0000
  H   H161      1.0  0.20836  0.39336  0.61170  1.0000
  Fe  Fe18      1.0  0.01678  0.13918  0.84753  1.0000
  H   H162      1.0  0.27166  0.32289  0.98693  1.0000
  H   H163      1.0  0.16338  0.21611  0.60934  1.0000
  H   H164      1.0  0.07241  0.05812  0.79177  1.0000
  C   C145      1.0  0.25741  0.33323  0.60797  1.0000
  H   H165      1.0  0.13846  0.27182  0.92875  1.0000
  H   H166      1.0  0.14980  0.21504  0.90406  1.0000
  C   C146      1.0  0.15345  0.01594  0.56798  1.0000
  H   H167      1.0  0.10364  0.48573  0.66209  1.0000
  H   H168      1.0  0.20415  0.31825  0.70542  1.0000
  C   C147      1.0  0.01876  0.48901  0.90614  1.0000
  H   H169      1.0  0.19354  0.21571  0.53745  1.0000
  C   C148      1.0  0.30467  0.16118  0.69445  1.0000
  C   C149      1.0  0.34132  0.20052  0.98628  1.0000
  C   C150      1.0  0.17728  0.26933  0.53649  1.0000
  C   C151      1.0  0.26321  0.31590  0.64624  1.0000
  H   H170      1.0  0.28727  0.17084  0.71283  1.0000
  C   C152      1.0  0.04164  0.27037  0.87699  1.0000
  H   H171      1.0  0.12003  0.49107  0.57867  1.0000
  H   H172      1.0  0.24858  0.29715  0.71097  1.0000
  H   H173      1.0  0.21888  0.40613  0.55420  1.0000
  C   C153      1.0  0.09740  0.01014  0.56875  1.0000
  H   H174      1.0  0.13834  0.32493  0.54772  1.0000
  C   C154      1.0  0.02573  0.45333  0.51305  1.0000
  C   C155      1.0  0.33070  0.19984  0.70860  1.0000
  H   H175      1.0  0.00950  0.27045  0.74098  1.0000
  H   H176      1.0  0.06739  0.40040  0.53113  1.0000
  S   S37       1.0  0.02013  0.10065  0.88776  1.0000
  H   H177      1.0  0.18224  0.36254  0.56629  1.0000
  C   C156      1.0  0.33212  0.25555  0.69481  1.0000
  C   C157      1.0  0.33081  0.21138  0.66167  1.0000
  H   H178      1.0  0.33278  0.27681  0.68959  1.0000
  C   C158      1.0  0.04814  0.41109  0.52551  1.0000
  H   H179      1.0  0.33070  0.13981  0.76914  1.0000
  H   H180      1.0  0.14821  0.01681  0.60707  1.0000
  H   H181      1.0  0.31364  0.16944  0.78709  1.0000
  C   C159      1.0  0.04620  0.48594  0.91101  1.0000
  C   C160      1.0  0.01367  0.36079  0.91299  1.0000
  H   H182      1.0  0.24193  0.35269  0.95961  1.0000
  N   N10       1.0  0.32976  0.17070  0.71457  1.0000
  H   H183      1.0  0.02765  0.47504  0.50746  1.0000
  H   H184      1.0  0.33023  0.19923  0.62973  1.0000
  C   C161      1.0  0.04292  0.50171  0.99289  1.0000
  H   H185      1.0  0.33769  0.25653  0.97225  1.0000
  H   H186      1.0  0.34009  0.29261  0.91179  1.0000
  C   C162      1.0  0.01551  0.50471  0.98850  1.0000
  H   H187      1.0  0.01037  0.48402  0.87175  1.0000
  H   H188      1.0  0.03797  0.40139  0.49502  1.0000
  C   C163      1.0  0.24227  0.36457  0.99334  1.0000
  C   C164      1.0  0.21771  0.71971  0.40741  1.0000
  S   S38       1.0  0.13103  0.60025  0.46816  1.0000
  Fe  Fe19      1.0  0.22328  0.66459  0.13953  1.0000
  S   S39       1.0  0.20700  0.69947  0.18189  1.0000
  S   S40       1.0  0.26642  0.66683  0.11375  1.0000
  Fe  Fe20      1.0  0.17034  0.63689  0.14542  1.0000
  S   S41       1.0  0.15020  0.66987  0.18654  1.0000
  S   S42       1.0  0.14541  0.60211  0.12628  1.0000
  Fe  Fe21      1.0  0.17149  0.69618  0.13484  1.0000
  S   S43       1.0  0.15093  0.72913  0.09392  1.0000
  Fe  Fe22      1.0  0.18705  0.66984  0.23085  1.0000
  S   S44       1.0  0.18234  0.67781  0.31195  1.0000
  S   S45       1.0  0.18875  0.66323  0.08960  1.0000
  S   S46       1.0  0.20640  0.63493  0.19277  1.0000
  Fe  Fe23      1.0  0.14958  0.87628  0.12526  1.0000
  S   S47       1.0  0.11738  0.87078  0.07094  1.0000
  S   S48       1.0  0.17360  0.84486  0.16414  1.0000
  Fe  Fe24      1.0  0.14264  0.93630  0.12805  1.0000
  S   S49       1.0  0.11081  0.93600  0.07203  1.0000
  S   S50       1.0  0.15582  0.97428  0.16329  1.0000
  Fe  Fe25      1.0  0.09475  0.90169  0.11409  1.0000
  S   S51       1.0  0.05434  0.90237  0.14997  1.0000
  H   H189      1.0  0.01157  0.60370  0.20156  1.0000
  S   S52       1.0  0.12539  0.90383  0.17177  1.0000
  S   S53       1.0  0.16977  0.90896  0.08538  1.0000
  S   S54       1.0  0.03223  0.64469  0.06204  1.0000
  C   C165      1.0  0.14746  0.98414  0.22305  1.0000
  C   C166      1.0  0.13590  0.96682  0.25627  1.0000
  C   C167      1.0  0.12911  0.97563  0.30315  1.0000
  H   H190      1.0  0.13219  0.94666  0.24595  1.0000
  H   H191      1.0  0.12022  0.96209  0.32862  1.0000
  C   C168      1.0  0.02667  0.88654  0.12657  1.0000
  C   C169      1.0  0.03150  0.78245  0.11773  1.0000
  C   C170      1.0  0.09022  0.60198  0.31123  1.0000
  H   H192      1.0  0.25727  0.71704  0.47252  1.0000
  C   C171      1.0  0.22086  0.77237  0.06619  1.0000
  H   H193      1.0  0.04286  0.88069  0.05510  1.0000
  H   H194      1.0  0.10423  0.80260  0.14579  1.0000
  C   C172      1.0  0.15665  0.76109  0.11474  1.0000
  C   C173      1.0  0.14974  0.78280  0.08546  1.0000
  C   C174      1.0  0.15519  0.80855  0.10028  1.0000
  C   C175      1.0  0.16713  0.81270  0.14479  1.0000
  C   C176      1.0  0.17406  0.79097  0.17412  1.0000
  C   C177      1.0  0.16873  0.76516  0.15919  1.0000
  H   H195      1.0  0.14049  0.77968  0.05094  1.0000
  H   H196      1.0  0.15045  0.82511  0.07691  1.0000
  H   H197      1.0  0.18329  0.79411  0.20864  1.0000
  H   H198      1.0  0.17380  0.74847  0.18220  1.0000
  C   C178      1.0  0.11429  0.61312  0.10496  1.0000
  C   C179      1.0  0.10977  0.63994  0.09455  1.0000
  C   C180      1.0  0.08454  0.64920  0.08112  1.0000
  C   C181      1.0  0.06359  0.63173  0.07785  1.0000
  C   C182      1.0  0.06808  0.60473  0.08731  1.0000
  C   C183      1.0  0.09349  0.59542  0.10069  1.0000
  H   H199      1.0  0.12573  0.65369  0.09675  1.0000
  H   H200      1.0  0.08126  0.67005  0.07344  1.0000
  H   H201      1.0  0.05198  0.59113  0.08477  1.0000
  H   H202      1.0  0.09693  0.57463  0.10850  1.0000
  C   C184      1.0  0.14477  0.62243  0.42516  1.0000
  C   C185      1.0  0.14583  0.64970  0.43330  1.0000
  C   C186      1.0  0.15656  0.66653  0.39765  1.0000
  C   C187      1.0  0.16653  0.65631  0.35369  1.0000
  C   C188      1.0  0.16518  0.62910  0.34536  1.0000
  C   C189      1.0  0.15435  0.61230  0.38088  1.0000
  H   H203      1.0  0.13846  0.65780  0.46707  1.0000
  H   H204      1.0  0.15741  0.68753  0.40449  1.0000
  H   H205      1.0  0.17324  0.62094  0.31214  1.0000
  H   H206      1.0  0.15376  0.59122  0.37435  1.0000
  C   C190      1.0  0.31703  0.85002  0.45429  1.0000
  H   H207      1.0  0.12985  0.58089  0.21890  1.0000
  H   H208      1.0  0.02331  0.82497  0.12458  1.0000
  H   H209      1.0  0.01046  0.77894  0.02949  1.0000
  H   H210      1.0  0.27722  0.84350  0.43071  1.0000
  N   N11       1.0  0.06110  0.98524  0.18539  1.0000
  C   C191      1.0  0.30689  0.67253  0.04742  1.0000
  C   C192      1.0  0.27980  0.66762  0.05397  1.0000
  C   C193      1.0  0.08417  0.79704  0.13789  1.0000
  C   C194      1.0  0.05610  0.55323  0.18467  1.0000
  H   H211      1.0  0.08783  0.64108  0.24604  1.0000
  H   H212      1.0  0.04252  0.98921  0.11564  1.0000
  H   H213      1.0  0.31902  0.67578  0.07869  1.0000
  H   H214      1.0  0.10894  0.62570  0.20152  1.0000
  C   C195      1.0  0.12282  0.58325  0.25698  1.0000
  H   H215      1.0  0.04850  0.62189  0.24522  1.0000
  H   H216      1.0  0.12174  0.63471  0.25923  1.0000
  H   H217      1.0  0.12027  0.56332  0.27345  1.0000
  H   H218      1.0  0.09845  0.98425  0.14655  1.0000
  H   H219      1.0  0.02134  0.98492  0.35069  1.0000
  C   C196      1.0  0.03002  0.59240  0.20397  1.0000
  C   C197      1.0  0.10429  0.62640  0.24086  1.0000
  N   N12       1.0  0.23537  0.74916  0.04504  1.0000
  H   H220      1.0  0.05783  0.53409  0.16722  1.0000
  C   C198      1.0  0.05139  0.60270  0.22870  1.0000
  N   N13       1.0  0.21337  0.90378  0.24249  1.0000
  C   C199      1.0  0.22182  0.89183  0.19569  1.0000
  C   C200      1.0  0.18853  0.89104  0.25783  1.0000
  C   C201      1.0  0.20767  0.93238  0.23351  1.0000
  C   C202      1.0  0.23331  0.90041  0.28106  1.0000
  C   C203      1.0  0.25734  0.88542  0.27470  1.0000
  C   C204      1.0  0.22867  0.91178  0.32729  1.0000
  H   H221      1.0  0.04989  0.74256  0.11186  1.0000
  C   C205      1.0  0.24695  0.90851  0.36462  1.0000
  H   H222      1.0  0.25164  0.74111  0.11585  1.0000
  H   H223      1.0  0.20654  0.89496  0.16739  1.0000
  H   H224      1.0  0.24031  0.90070  0.18162  1.0000
  H   H225      1.0  0.22467  0.86994  0.19877  1.0000
  H   H226      1.0  0.19199  0.86952  0.26530  1.0000
  H   H227      1.0  0.17326  0.89254  0.22922  1.0000
  H   H228      1.0  0.17963  0.90020  0.29076  1.0000
  H   H229      1.0  0.22610  0.94309  0.22476  1.0000
  H   H230      1.0  0.19392  0.93556  0.20265  1.0000
  H   H231      1.0  0.19792  0.94243  0.26480  1.0000
  H   H232      1.0  0.26265  0.87582  0.24112  1.0000
  H   H233      1.0  0.21075  0.92317  0.33499  1.0000
  H   H234      1.0  0.03013  0.96258  0.15344  1.0000
  C   C206      1.0  0.02450  0.99722  0.38175  1.0000
  C   C207      1.0  0.21734  0.72651  0.04547  1.0000
  H   H235      1.0  0.28549  0.60768  0.11377  1.0000
  H   H236      1.0  0.01570  0.55971  0.16298  1.0000
  C   C208      1.0  0.05268  0.76332  0.11885  1.0000
  C   C209      1.0  0.28868  0.60182  0.03704  1.0000
  C   C210      1.0  0.23963  0.72985  0.48126  1.0000
  C   C211      1.0  0.03809  0.80920  0.12620  1.0000
  H   H237      1.0  0.06675  0.99541  0.36878  1.0000
  H   H238      1.0  0.21583  0.66955  0.41222  1.0000
  C   C212      1.0  0.07768  0.56338  0.20915  1.0000
  H   H239      1.0  0.08163  0.94799  0.19894  1.0000
  N   N14       1.0  0.09804  0.59967  0.25961  1.0000
  H   H240      1.0  0.20957  0.72248  0.08244  1.0000
  H   H241      1.0  0.26745  0.60311  0.03199  1.0000
  H   H242      1.0  0.20164  0.77634  0.04799  1.0000
  Fe  Fe26      1.0  0.13640  0.90526  0.03286  1.0000
  H   H243      1.0  0.26756  0.72315  0.06933  1.0000
  H   H244      1.0  0.21988  0.74031  0.39366  1.0000
  C   C213      1.0  0.26437  0.66341  0.01317  1.0000
  H   H245      1.0  0.07995  0.96951  0.24972  1.0000
  C   C214      1.0  0.08543  0.99815  0.16771  1.0000
  C   C215      1.0  0.07858  0.77065  0.12886  1.0000
  H   H246      1.0  0.17336  0.72699  0.46441  1.0000
  H   H247      1.0  0.20801  0.62642  0.44678  1.0000
  C   C216      1.0  0.06874  0.96295  0.21791  1.0000
  C   C217      1.0  0.28970  0.84658  0.46157  1.0000
  C   C218      1.0  0.04802  0.97374  0.14278  1.0000
  H   H248      1.0  0.09456  0.75582  0.12926  1.0000
  H   H249      1.0  0.06129  0.95915  0.12373  1.0000
  H   H250      1.0  0.28449  0.89122  0.38604  1.0000
  C   C219      1.0  0.25801  0.74271  0.07730  1.0000
  C   C220      1.0  0.29882  0.60438  0.08329  1.0000
  H   H251      1.0  0.14637  0.97422  0.47363  1.0000
  H   H252      1.0  0.09557  0.55125  0.20909  1.0000
  H   H253      1.0  0.19983  0.71182  0.38984  1.0000
  H   H254      1.0  0.24357  0.65941  0.01753  1.0000
  C   C221      1.0  0.06398  0.81629  0.13634  1.0000
  C   C222      1.0  0.21264  0.66867  0.45085  1.0000
  C   C223      1.0  0.13373  0.00181  0.31723  1.0000
  H   H255      1.0  0.10637  0.61011  0.33335  1.0000
  H   H256      1.0  0.07273  0.61545  0.31662  1.0000
  H   H257      1.0  0.23536  0.70821  0.39409  1.0000
  H   H258      1.0  0.22739  0.70795  0.03273  1.0000
  H   H259      1.0  0.24330  0.75008  0.46678  1.0000
  H   H260      1.0  0.23285  0.79052  0.06436  1.0000
  H   H261      1.0  0.05101  0.95241  0.23132  1.0000
  C   C224      1.0  0.07595  0.58855  0.23205  1.0000
  C   C225      1.0  0.19231  0.73601  0.47498  1.0000
  H   H262      1.0  0.08523  0.58233  0.32681  1.0000
  H   H263      1.0  0.13923  0.59247  0.27678  1.0000
  H   H264      1.0  0.29370  0.87076  0.30708  1.0000
  C   C226      1.0  0.03233  0.56767  0.18213  1.0000
  C   C227      1.0  0.02594  0.87797  0.07868  1.0000
  H   H265      1.0  0.01106  0.73688  0.07473  1.0000
  N   N15       1.0  0.21530  0.71872  0.46097  1.0000
  H   H266      1.0  0.06843  0.83692  0.14268  1.0000
  H   H267      1.0  0.19314  0.75594  0.45769  1.0000
  C   C228      1.0  0.27030  0.89382  0.35711  1.0000
  H   H268      1.0  0.21566  0.76904  0.10489  1.0000
  C   C229      1.0  0.27546  0.88229  0.31234  1.0000
  C   C230      1.0  0.21176  0.69163  0.48044  1.0000
  H   H269      1.0  0.24301  0.91732  0.39968  1.0000
  H   H270      1.0  0.27337  0.75804  0.07464  1.0000
  C   C231      1.0  0.20828  0.64352  0.47032  1.0000
  S   S55       1.0  0.33005  0.84956  0.39408  1.0000
  H   H271      1.0  0.19988  0.73040  0.02201  1.0000
  C   C232      1.0  0.05078  0.00307  0.39166  1.0000
  C   C233      1.0  0.15188  0.99230  0.49348  1.0000
  C   C234      1.0  0.31847  0.67330  0.00083  1.0000
  H   H272      1.0  0.09775  0.00542  0.19758  1.0000
  H   H273      1.0  0.17373  0.99394  0.48973  1.0000
  C   C235      1.0  0.04426  0.00479  0.21208  1.0000
  C   C236      1.0  0.32606  0.60366  0.09007  1.0000
  C   C237      1.0  0.33366  0.59800  0.00282  1.0000
  H   H274      1.0  0.33380  0.60616  0.12610  1.0000
  C   C238      1.0  0.30571  0.59887  0.99717  1.0000
  H   H275      1.0  0.33924  0.67745  0.99658  1.0000
  C   C239      1.0  0.24459  0.75381  0.99477  1.0000
  H   H276      1.0  0.00879  0.00328  0.16691  1.0000
  H   H277      1.0  0.06142  0.88226  0.85825  1.0000
  Fe  Fe27      1.0  0.12323  0.60684  0.54892  1.0000
  S   S56       1.0  0.15588  0.59864  0.60216  1.0000
  Fe  Fe28      1.0  0.08240  0.61623  0.62966  1.0000
  S   S57       1.0  0.11223  0.60934  0.68800  1.0000
  S   S58       1.0  0.04163  0.62304  0.66195  1.0000
  Fe  Fe29      1.0  0.13866  0.63398  0.64138  1.0000
  S   S59       1.0  0.16436  0.66296  0.67997  1.0000
  Fe  Fe30      1.0  0.12658  0.57461  0.64462  1.0000
  S   S60       1.0  0.13782  0.53375  0.67556  1.0000
  S   S61       1.0  0.10763  0.64388  0.58608  1.0000
  S   S62       1.0  0.09510  0.57981  0.58838  1.0000
  S   S63       1.0  0.14354  0.90887  0.95117  1.0000
  Fe  Fe31      1.0  0.23770  0.84698  0.63288  1.0000
  S   S64       1.0  0.22675  0.81045  0.67517  1.0000
  S   S65       1.0  0.28082  0.85206  0.60878  1.0000
  Fe  Fe32      1.0  0.18230  0.87203  0.64774  1.0000
  S   S66       1.0  0.16736  0.83740  0.69017  1.0000
  S   S67       1.0  0.15506  0.90780  0.63732  1.0000
  Fe  Fe33      1.0  0.20639  0.83844  0.72795  1.0000
  S   S68       1.0  0.20968  0.83230  0.80939  1.0000
  Fe  Fe34      1.0  0.18869  0.81273  0.63398  1.0000
  S   S69       1.0  0.16845  0.77966  0.59467  1.0000
  S   S70       1.0  0.22009  0.87475  0.68914  1.0000
  S   S71       1.0  0.20081  0.84754  0.58821  1.0000
  S   S72       1.0  0.04068  0.86945  0.58728  1.0000
  C   C240      1.0  0.12344  0.89818  0.61986  1.0000
  C   C241      1.0  0.10205  0.91647  0.61984  1.0000
  C   C242      1.0  0.07647  0.90819  0.60842  1.0000
  C   C243      1.0  0.07242  0.88163  0.59699  1.0000
  C   C244      1.0  0.09399  0.86372  0.59571  1.0000
  C   C245      1.0  0.11937  0.87189  0.60726  1.0000
  H   H278      1.0  0.10512  0.93688  0.62949  1.0000
  H   H279      1.0  0.05988  0.92214  0.60952  1.0000
  H   H280      1.0  0.09115  0.84347  0.58531  1.0000
  H   H281      1.0  0.13585  0.85783  0.60597  1.0000
  C   C246      1.0  0.16461  0.88797  0.91530  1.0000
  C   C247      1.0  0.17391  0.89750  0.87055  1.0000
  C   C248      1.0  0.18755  0.88064  0.83782  1.0000
  C   C249      1.0  0.19272  0.85412  0.85002  1.0000
  C   C250      1.0  0.18461  0.84484  0.89572  1.0000
  C   C251      1.0  0.17041  0.86160  0.92807  1.0000
  H   H282      1.0  0.17040  0.91807  0.86097  1.0000
  H   H283      1.0  0.19421  0.88825  0.80329  1.0000
  H   H284      1.0  0.18868  0.82442  0.90571  1.0000
  H   H285      1.0  0.16343  0.85395  0.96236  1.0000
  C   C252      1.0  0.17332  0.56163  0.90629  1.0000
  C   C253      1.0  0.11874  0.53552  0.77052  1.0000
  N   N16       1.0  0.07979  0.77747  0.62916  1.0000
  H   H286      1.0  0.11270  0.55583  0.76335  1.0000
  C   C254      1.0  0.09607  0.73291  0.65984  1.0000
  C   C255      1.0  0.01923  0.64492  0.63292  1.0000
  N   N17       1.0  0.14323  0.99185  0.54483  1.0000
  H   H287      1.0  0.25729  0.84447  0.51320  1.0000
  C   C256      1.0  0.02522  0.65656  0.58827  1.0000
  C   C257      1.0  0.29106  0.84428  0.89433  1.0000
  H   H288      1.0  0.05661  0.54657  0.85029  1.0000
  H   H289      1.0  0.04395  0.65201  0.57060  1.0000
  C   C258      1.0  0.09301  0.77671  0.58119  1.0000
  C   C259      1.0  0.16593  0.69527  0.65573  1.0000
  C   C260      1.0  0.17844  0.71509  0.68174  1.0000
  C   C261      1.0  0.17958  0.74108  0.66331  1.0000
  C   C262      1.0  0.16832  0.74727  0.61862  1.0000
  C   C263      1.0  0.15605  0.72737  0.59245  1.0000
  C   C264      1.0  0.15483  0.70149  0.61094  1.0000
  H   H290      1.0  0.18713  0.71040  0.71640  1.0000
  H   H291      1.0  0.18906  0.75630  0.68377  1.0000
  H   H292      1.0  0.14727  0.73195  0.55784  1.0000
  H   H293      1.0  0.14543  0.68635  0.59031  1.0000
  C   C265      1.0  0.05269  0.56385  0.87234  1.0000
  C   C266      1.0  0.29413  0.85109  0.54876  1.0000
  C   C267      1.0  0.20299  0.66234  0.54972  1.0000
  C   C268      1.0  0.06681  0.69615  0.67091  1.0000
  C   C269      1.0  0.30309  0.66895  0.96004  1.0000
  H   H294      1.0  0.17036  0.56601  0.94433  1.0000
  C   C270      1.0  0.27599  0.66402  0.96657  1.0000
  H   H295      1.0  0.26386  0.66071  0.93532  1.0000
  H   H296      1.0  0.09732  0.79694  0.56752  1.0000
  H   H297      1.0  0.19908  0.65982  0.58808  1.0000
  C   C271      1.0  0.09204  0.70649  0.67268  1.0000
  H   H298      1.0  0.07591  0.54719  0.93055  1.0000
  H   H299      1.0  0.26548  0.84427  0.83387  1.0000
  H   H300      1.0  0.13500  0.86640  0.83148  1.0000
  C   C272      1.0  0.07394  0.96548  0.53048  1.0000
  H   H301      1.0  0.11267  0.95182  0.51138  1.0000
  C   C273      1.0  0.07483  0.74991  0.64494  1.0000
  C   C274      1.0  0.15572  0.96849  0.56917  1.0000
  C   C275      1.0  0.26128  0.76054  0.89721  1.0000
  H   H302      1.0  0.19824  0.62585  0.83143  1.0000
  H   H303      1.0  0.21831  0.60547  0.79191  1.0000
  H   H304      1.0  0.09645  0.90942  0.86539  1.0000
  H   H305      1.0  0.32082  0.84550  0.94928  1.0000
  C   C276      1.0  0.12165  0.89355  0.75495  1.0000
  N   N18       1.0  0.17656  0.59911  0.78665  1.0000
  C   C277      1.0  0.19911  0.61666  0.79505  1.0000
  C   C278      1.0  0.17825  0.59023  0.73558  1.0000
  C   C279      1.0  0.15154  0.61486  0.79239  1.0000
  C   C280      1.0  0.17715  0.57701  0.82209  1.0000
  C   C281      1.0  0.17413  0.58220  0.87228  1.0000
  C   C282      1.0  0.18036  0.54999  0.80836  1.0000
  N   N19       1.0  0.02582  0.58514  0.80584  1.0000
  H   H306      1.0  0.19945  0.63330  0.76831  1.0000
  H   H307      1.0  0.19718  0.57932  0.72771  1.0000
  H   H308      1.0  0.17731  0.60726  0.70981  1.0000
  H   H309      1.0  0.16156  0.57724  0.72650  1.0000
  H   H310      1.0  0.04243  0.78742  0.59498  1.0000
  H   H311      1.0  0.14974  0.63081  0.76451  1.0000
  H   H312      1.0  0.13409  0.60199  0.78917  1.0000
  H   H313      1.0  0.17202  0.60222  0.88561  1.0000
  H   H314      1.0  0.18262  0.54389  0.77117  1.0000
  H   H315      1.0  0.11611  0.73970  0.66092  1.0000
  C   C283      1.0  0.33249  0.85201  0.82856  1.0000
  H   H316      1.0  0.15000  0.62503  0.82779  1.0000
  H   H317      1.0  0.10865  0.69383  0.68345  1.0000
  H   H318      1.0  0.09906  0.81237  0.65533  1.0000
  H   H319      1.0  0.32655  0.57529  0.91286  1.0000
  H   H320      1.0  0.28488  0.72493  0.90805  1.0000
  H   H321      1.0  0.06378  0.67558  0.68039  1.0000
  C   C284      1.0  0.04038  0.88262  0.72422  1.0000
  H   H322      1.0  0.26685  0.82506  0.76051  1.0000
  H   H323      1.0  0.27844  0.87692  0.70977  1.0000
  H   H324      1.0  0.14857  0.96662  0.60721  1.0000
  C   C285      1.0  0.20732  0.68759  0.53067  1.0000
  C   C286      1.0  0.28261  0.87444  0.74906  1.0000
  H   H325      1.0  0.05925  0.81509  0.61656  1.0000
  C   C287      1.0  0.02959  0.87941  0.80901  1.0000
  C   C288      1.0  0.30644  0.84956  0.81037  1.0000
  C   C289      1.0  0.17593  0.53538  0.89148  1.0000
  C   C290      1.0  0.05512  0.79401  0.62499  1.0000
  H   H326      1.0  0.08044  0.88780  0.70490  1.0000
  H   H327      1.0  0.29859  0.80874  0.75232  1.0000
  H   H328      1.0  0.33394  0.85762  0.57236  1.0000
  H   H329      1.0  0.04344  0.79389  0.65928  1.0000
  C   C291      1.0  0.04936  0.73860  0.64303  1.0000
  H   H330      1.0  0.09617  0.93055  0.81276  1.0000
  H   H331      1.0  0.17460  0.51937  0.91766  1.0000
  H   H332      1.0  0.06231  0.59632  0.77150  1.0000
  C   C292      1.0  0.05825  0.98524  0.55203  1.0000
  C   C293      1.0  0.27831  0.84709  0.50839  1.0000
  H   H333      1.0  0.12655  0.91741  0.83674  1.0000
  C   C294      1.0  0.01159  0.61014  0.79204  1.0000
  C   C295      1.0  0.11404  0.99011  0.54750  1.0000
  H   H334      1.0  0.06484  0.94812  0.51570  1.0000
  H   H335      1.0  0.26312  0.87275  0.76772  1.0000
  C   C296      1.0  0.31682  0.84657  0.91092  1.0000
  H   H336      1.0  0.10343  0.86249  0.85862  1.0000
  H   H337      1.0  0.08062  0.76679  0.55401  1.0000
  H   H338      1.0  0.12211  0.87631  0.73004  1.0000
  C   C297      1.0  0.04313  0.60664  0.93400  1.0000
  H   H339      1.0  0.02596  0.70393  0.65447  1.0000
  C   C298      1.0  0.06993  0.00749  0.57111  1.0000
  H   H340      1.0  0.11228  0.76562  0.58244  1.0000
  N   N20       1.0  0.10377  0.88929  0.79714  1.0000
  C   C299      1.0  0.10570  0.91261  0.82925  1.0000
  C   C300      1.0  0.11361  0.86531  0.82323  1.0000
  H   H341      1.0  0.17767  0.96970  0.57004  1.0000
  C   C301      1.0  0.07578  0.88581  0.78388  1.0000
  C   C302      1.0  0.05622  0.88246  0.82044  1.0000
  C   C303      1.0  0.06708  0.88561  0.73521  1.0000
  S   S73       1.0  0.31646  0.66984  0.90023  1.0000
  H   H342      1.0  0.10619  0.53641  0.84537  1.0000
  H   H343      1.0  0.26754  0.76299  0.85992  1.0000
  C   C304      1.0  0.02169  0.87955  0.76096  1.0000
  C   C305      1.0  0.28668  0.82687  0.74318  1.0000
  H   H344      1.0  0.33819  0.83668  0.73134  1.0000
  H   H345      1.0  0.11102  0.84715  0.80136  1.0000
  C   C306      1.0  0.03691  0.58555  0.85518  1.0000
  C   C307      1.0  0.32148  0.85445  0.54154  1.0000
  H   H346      1.0  0.29165  0.89301  0.76171  1.0000
  H   H347      1.0  0.11580  0.91164  0.73407  1.0000
  H   H348      1.0  0.20686  0.70399  0.55563  1.0000
  H   H349      1.0  0.03916  0.62302  0.95855  1.0000
  H   H350      1.0  0.03962  0.58083  0.73203  1.0000
  C   C308      1.0  0.04553  0.71218  0.65625  1.0000
  C   C309      1.0  0.33745  0.85049  0.87812  1.0000
  N   N21       1.0  0.30032  0.85114  0.75821  1.0000
  H   H351      1.0  0.03412  0.88276  0.68686  1.0000
  C   C310      1.0  0.06370  0.56389  0.91848  1.0000
  C   C311      1.0  0.17984  0.52963  0.84279  1.0000
  C   C312      1.0  0.27103  0.73918  0.92433  1.0000
  C   C313      1.0  0.28586  0.84583  0.84488  1.0000
  H   H352      1.0  0.06747  0.58533  0.98504  1.0000
  H   H353      1.0  0.19931  0.62090  0.53409  1.0000
  C   C314      1.0  0.04733  0.58059  0.76962  1.0000
  C   C315      1.0  0.26274  0.73575  0.97223  1.0000
  C   C316      1.0  0.11489  0.52438  0.81691  1.0000
  H   H354      1.0  0.15148  0.94951  0.55099  1.0000
  H   H355      1.0  0.14252  0.89623  0.76615  1.0000
  H   H356      1.0  0.28320  0.82672  0.70350  1.0000
  C   C317      1.0  0.24310  0.77846  0.91783  1.0000
  C   C318      1.0  0.23471  0.77520  0.96581  1.0000
  C   C319      1.0  0.05903  0.58531  0.94917  1.0000
  H   H357      1.0  0.03696  0.98336  0.55386  1.0000
  H   H358      1.0  0.27495  0.84150  0.91989  1.0000
  C   C320      1.0  0.03204  0.60683  0.88787  1.0000
  H   H359      1.0  0.23515  0.79478  0.89620  1.0000
  C   C321      1.0  0.33923  0.59295  0.91404  1.0000
  H   H360      1.0  0.03204  0.74960  0.63104  1.0000
  C   C322      1.0  0.13107  0.52048  0.73398  1.0000
  H   H361      1.0  0.05776  0.56113  0.77407  1.0000
  H   H362      1.0  0.11806  0.78292  0.66233  1.0000
  H   H363      1.0  0.08979  0.78898  0.70140  1.0000
  H   H364      1.0  0.01950  0.62375  0.87900  1.0000
  H   H365      1.0  0.22024  0.78954  0.97914  1.0000
  C   C323      1.0  0.09733  0.79088  0.66368  1.0000
  C   C324      1.0  0.10139  0.96779  0.52823  1.0000
  C   C325      1.0  0.32411  0.85378  0.72672  1.0000
  H   H366      1.0  0.01500  0.87701  0.83760  1.0000
  H   H367      1.0  0.32698  0.61104  0.90551  1.0000
  H   H368      1.0  0.02475  0.62744  0.79380  1.0000
  H   H369      1.0  0.27043  0.71854  0.99117  1.0000
  C   C326      1.0  0.20323  0.64039  0.51951  1.0000
  H   H370      1.0  0.31882  0.85449  0.68768  1.0000
  H   H371      1.0  0.23846  0.73170  0.52127  1.0000
  H   H372      1.0  0.29644  0.59795  0.96232  1.0000
  H   H373      1.0  0.01641  0.54365  0.80894  1.0000
  H   H374      1.0  0.19134  0.73979  0.51449  1.0000
  H   H375      1.0  0.33455  0.87247  0.73400  1.0000
  C   C327      1.0  0.33288  0.85391  0.49468  1.0000
  H   H376      1.0  0.01140  0.68293  0.53172  1.0000
  H   H377      1.0  0.18159  0.50911  0.83147  1.0000
  H   H378      1.0  0.57315  0.20404  0.11337  1.0000
  S   S74       1.0  0.44679  0.44352  0.04262  1.0000
  Fe  Fe35      1.0  0.51043  0.40531  0.08215  1.0000
  S   S75       1.0  0.48085  0.42076  0.13701  1.0000
  S   S76       1.0  0.54368  0.37605  0.09670  1.0000
  Fe  Fe36      1.0  0.45060  0.40579  0.08575  1.0000
  S   S77       1.0  0.41543  0.38244  0.11002  1.0000
  Fe  Fe37      1.0  0.47926  0.45771  0.09112  1.0000
  C   C328      1.0  0.44266  0.03969  0.37940  1.0000
  S   S78       1.0  0.48013  0.38722  0.03514  1.0000
  S   S79       1.0  0.51159  0.44327  0.03996  1.0000
  H   H379      1.0  0.42368  0.19664  0.39708  1.0000
  C   C329      1.0  0.51802  0.02548  0.34698  1.0000
  Fe  Fe38      1.0  0.60542  0.12322  0.12247  1.0000
  S   S80       1.0  0.63954  0.10784  0.16675  1.0000
  S   S81       1.0  0.56994  0.13799  0.16572  1.0000
  S   S82       1.0  0.60581  0.08892  0.07153  1.0000
  S   S83       1.0  0.63039  0.14828  0.07402  1.0000
  Fe  Fe39      1.0  0.42919  0.17125  0.11176  1.0000
  S   S84       1.0  0.44422  0.19244  0.17632  1.0000
  S   S85       1.0  0.45630  0.14202  0.07256  1.0000
  Fe  Fe40      1.0  0.37585  0.20109  0.11340  1.0000
  S   S86       1.0  0.38717  0.22434  0.17935  1.0000
  Fe  Fe41      1.0  0.42629  0.22880  0.14178  1.0000
  S   S87       1.0  0.45371  0.26331  0.13988  1.0000
  Fe  Fe42      1.0  0.40422  0.18577  0.20846  1.0000
  S   S88       1.0  0.39789  0.17392  0.28735  1.0000
  S   S89       1.0  0.41423  0.20825  0.07414  1.0000
  S   S90       1.0  0.38977  0.16205  0.14580  1.0000
  S   S91       1.0  0.47930  0.09954  0.40383  1.0000
  C   C330      1.0  0.42061  0.15263  0.31831  1.0000
  C   C331      1.0  0.44421  0.14331  0.29678  1.0000
  C   C332      1.0  0.46200  0.12698  0.32320  1.0000
  C   C333      1.0  0.45660  0.12021  0.37159  1.0000
  C   C334      1.0  0.43298  0.12947  0.39303  1.0000
  C   C335      1.0  0.41496  0.14528  0.36627  1.0000
  H   H380      1.0  0.44874  0.14864  0.25977  1.0000
  H   H381      1.0  0.48010  0.11980  0.30613  1.0000
  H   H382      1.0  0.42834  0.12398  0.42993  1.0000
  H   H383      1.0  0.39645  0.15180  0.38268  1.0000
  C   C336      1.0  0.53855  0.13634  0.13944  1.0000
  C   C337      1.0  0.51610  0.14050  0.16875  1.0000
  C   C338      1.0  0.49083  0.14154  0.14848  1.0000
  C   C339      1.0  0.48780  0.13864  0.09869  1.0000
  C   C340      1.0  0.51019  0.13335  0.06957  1.0000
  C   C341      1.0  0.53558  0.13220  0.08992  1.0000
  H   H384      1.0  0.51819  0.14315  0.20726  1.0000
  H   H385      1.0  0.47362  0.14433  0.17149  1.0000
  C   C342      1.0  0.38174  0.22495  0.43446  1.0000
  H   H386      1.0  0.55283  0.12887  0.06708  1.0000
  C   C343      1.0  0.41273  0.49396  0.23832  1.0000
  H   H387      1.0  0.64011  0.05605  0.22956  1.0000
  C   C344      1.0  0.57686  0.38542  0.09328  1.0000
  C   C345      1.0  0.59664  0.36551  0.09411  1.0000
  C   C346      1.0  0.62338  0.37200  0.09436  1.0000
  C   C347      1.0  0.63056  0.39851  0.09283  1.0000
  C   C348      1.0  0.61085  0.41854  0.09011  1.0000
  C   C349      1.0  0.58395  0.41201  0.09071  1.0000
  S   S92       1.0  0.63681  0.41193  0.44756  1.0000
  H   H388      1.0  0.63845  0.35643  0.09578  1.0000
  H   H389      1.0  0.61640  0.43908  0.08920  1.0000
  H   H390      1.0  0.56875  0.42747  0.09047  1.0000
  C   C350      1.0  0.42533  0.34940  0.12197  1.0000
  C   C351      1.0  0.40660  0.32939  0.12520  1.0000
  C   C352      1.0  0.41488  0.30275  0.13171  1.0000
  C   C353      1.0  0.44188  0.29625  0.13527  1.0000
  C   C354      1.0  0.46040  0.31637  0.13306  1.0000
  C   C355      1.0  0.45219  0.34281  0.12640  1.0000
  H   H391      1.0  0.38578  0.33439  0.12178  1.0000
  H   H392      1.0  0.40047  0.28729  0.13335  1.0000
  H   H393      1.0  0.48128  0.31152  0.13587  1.0000
  H   H394      1.0  0.46678  0.35808  0.12471  1.0000
  C   C356      1.0  0.58817  0.27802  0.16188  1.0000
  H   H395      1.0  0.58678  0.11325  0.48389  1.0000
  C   C357      1.0  0.41636  0.45438  0.16528  1.0000
  C   C358      1.0  0.63729  0.02435  0.28228  1.0000
  C   C359      1.0  0.56441  0.02541  0.29134  1.0000
  H   H396      1.0  0.48270  0.47492  0.21348  1.0000
  S   S93       1.0  0.47694  0.50054  0.11834  1.0000
  C   C360      1.0  0.35952  0.26490  0.46338  1.0000
  H   H397      1.0  0.67087  0.07565  0.49219  1.0000
  C   C361      1.0  0.41089  0.18045  0.48680  1.0000
  H   H398      1.0  0.41600  0.50042  0.20154  1.0000
  C   C362      1.0  0.39663  0.28213  0.00418  1.0000
  H   H399      1.0  0.56481  0.09485  0.31320  1.0000
  H   H400      1.0  0.40073  0.46840  0.15193  1.0000
  H   H401      1.0  0.41714  0.43761  0.13933  1.0000
  C   C363      1.0  0.63954  0.03487  0.23511  1.0000
  H   H402      1.0  0.43585  0.46414  0.16270  1.0000
  Fe  Fe43      1.0  0.63435  0.11262  0.02610  1.0000
  H   H403      1.0  0.53202  0.31562  0.15037  1.0000
  N   N22       1.0  0.55152  0.07046  0.25524  1.0000
  C   C364      1.0  0.53083  0.07170  0.21767  1.0000
  C   C365      1.0  0.55042  0.09555  0.28302  1.0000
  H   H404      1.0  0.59414  0.06821  0.25656  1.0000
  H   H405      1.0  0.39707  0.17355  0.45896  1.0000
  C   C366      1.0  0.54668  0.04768  0.28787  1.0000
  H   H406      1.0  0.58254  0.02381  0.27054  1.0000
  H   H407      1.0  0.35005  0.20457  0.25540  1.0000
  C   C367      1.0  0.43681  0.20312  0.42641  1.0000
  H   H408      1.0  0.55523  0.11291  0.25972  1.0000
  C   C368      1.0  0.60412  0.04544  0.42507  1.0000
  Fe  Fe44      1.0  0.66475  0.13003  0.11359  1.0000
  C   C369      1.0  0.62310  0.05680  0.45567  1.0000
  C   C370      1.0  0.67106  0.38114  0.32556  1.0000
  C   C371      1.0  0.66515  0.19859  0.14312  1.0000
  H   H409      1.0  0.40368  0.47618  0.37385  1.0000
  C   C372      1.0  0.64410  0.01511  0.48108  1.0000
  H   H410      1.0  0.43284  0.03393  0.30489  1.0000
  C   C373      1.0  0.52325  0.04700  0.31660  1.0000
  C   C374      1.0  0.61642  0.08208  0.47541  1.0000
  H   H411      1.0  0.50797  0.13090  0.03105  1.0000
  C   C375      1.0  0.65298  0.39282  0.35877  1.0000
  N   N23       1.0  0.53928  0.22239  0.14980  1.0000
  C   C376      1.0  0.51014  0.22204  0.14354  1.0000
  C   C377      1.0  0.55160  0.20793  0.10846  1.0000
  C   C378      1.0  0.54554  0.20781  0.19511  1.0000
  C   C379      1.0  0.54996  0.24939  0.15229  1.0000
  C   C380      1.0  0.57752  0.25282  0.15837  1.0000
  C   C381      1.0  0.53374  0.27278  0.14935  1.0000
  H   H412      1.0  0.60933  0.28019  0.16652  1.0000
  C   C382      1.0  0.54462  0.29792  0.15283  1.0000
  C   C383      1.0  0.57169  0.30050  0.15955  1.0000
  H   H413      1.0  0.50389  0.23220  0.10955  1.0000
  H   H414      1.0  0.50275  0.20147  0.14141  1.0000
  S   S94       1.0  0.66813  0.27812  0.13173  1.0000
  H   H415      1.0  0.54883  0.21922  0.07416  1.0000
  H   H416      1.0  0.54277  0.18818  0.10358  1.0000
  H   H417      1.0  0.58096  0.08649  0.20664  1.0000
  H   H418      1.0  0.53791  0.21888  0.22724  1.0000
  H   H419      1.0  0.53661  0.18795  0.19582  1.0000
  H   H420      1.0  0.56714  0.20416  0.19976  1.0000
  H   H421      1.0  0.59103  0.23597  0.16085  1.0000
  H   H422      1.0  0.51258  0.27226  0.14461  1.0000
  C   C384      1.0  0.65868  0.22575  0.14412  1.0000
  C   C385      1.0  0.66474  0.04216  0.42006  1.0000
  N   N24       1.0  0.42283  0.20602  0.47363  1.0000
  H   H423      1.0  0.65492  0.03115  0.39094  1.0000
  H   H424      1.0  0.58885  0.44280  0.00100  1.0000
  H   H425      1.0  0.45313  0.18787  0.42807  1.0000
  H   H426      1.0  0.50864  0.06305  0.31569  1.0000
  C   C386      1.0  0.57946  0.05783  0.41719  1.0000
  C   C387      1.0  0.47956  0.49597  0.21872  1.0000
  N   N25       1.0  0.41069  0.44518  0.21533  1.0000
  H   H427      1.0  0.38187  0.20880  0.40895  1.0000
  H   H428      1.0  0.66289  0.33645  0.41346  1.0000
  H   H429      1.0  0.42752  0.41515  0.26315  1.0000
  H   H430      1.0  0.57989  0.32002  0.16303  1.0000
  N   N26       1.0  0.64868  0.04280  0.46511  1.0000
  H   H431      1.0  0.44541  0.22220  0.41461  1.0000
  C   C388      1.0  0.43826  0.02442  0.33869  1.0000
  H   H432      1.0  0.59127  0.34495  0.09480  1.0000
  H   H433      1.0  0.53456  0.08771  0.19081  1.0000
  H   H434      1.0  0.63314  0.39808  0.34720  1.0000
  H   H435      1.0  0.64980  0.18427  0.14784  1.0000
  H   H436      1.0  0.66257  0.47070  0.41354  1.0000
  H   H437      1.0  0.66505  0.37740  0.28888  1.0000
  C   C389      1.0  0.40602  0.46110  0.30107  1.0000
  H   H438      1.0  0.57956  0.05139  0.20603  1.0000
  Fe  Fe45      1.0  0.64137  0.07444  0.11357  1.0000
  C   C390      1.0  0.36115  0.24386  0.43109  1.0000
  H   H439      1.0  0.63565  0.03772  0.31253  1.0000
  C   C391      1.0  0.40984  0.46685  0.25123  1.0000
  H   H440      1.0  0.49942  0.23165  0.17440  1.0000
  H   H441      1.0  0.63829  0.23220  0.14860  1.0000
  H   H442      1.0  0.43349  0.40926  0.20086  1.0000
  H   H443      1.0  0.53050  0.10003  0.29873  1.0000
  Fe  Fe46      1.0  0.47925  0.42581  0.99576  1.0000
  H   H444      1.0  0.37333  0.24993  0.03164  1.0000
  C   C392      1.0  0.43161  0.42531  0.22830  1.0000
  C   C393      1.0  0.38487  0.43192  0.21492  1.0000
  H   H445      1.0  0.45120  0.43473  0.23124  1.0000
  H   H446      1.0  0.38009  0.42251  0.25024  1.0000
  H   H447      1.0  0.38467  0.41582  0.18744  1.0000
  H   H448      1.0  0.36848  0.44628  0.20636  1.0000
  H   H449      1.0  0.53021  0.05274  0.19743  1.0000
  C   C394      1.0  0.65734  0.22912  0.01923  1.0000
  H   H450      1.0  0.44072  0.06111  0.37706  1.0000
  H   H451      1.0  0.60816  0.02679  0.40709  1.0000
  C   C395      1.0  0.40603  0.48108  0.33588  1.0000
  H   H452      1.0  0.43730  0.31341  0.03849  1.0000
  C   C396      1.0  0.57313  0.08207  0.43869  1.0000
  H   H453      1.0  0.40328  0.44105  0.31362  1.0000
  S   S95       1.0  0.64309  0.03042  0.13494  1.0000
  H   H454      1.0  0.55382  0.09143  0.43322  1.0000
  H   H455      1.0  0.48071  0.49335  0.29661  1.0000
  C   C397      1.0  0.64119  0.01799  0.19525  1.0000
  H   H456      1.0  0.51077  0.07579  0.23316  1.0000
  H   H457      1.0  0.43864  0.03489  0.04940  1.0000
  C   C398      1.0  0.59169  0.09429  0.46728  1.0000
  H   H458      1.0  0.66824  0.06253  0.40623  1.0000
  C   C399      1.0  0.40154  0.22665  0.47032  1.0000
  H   H459      1.0  0.44881  0.08146  0.05734  1.0000
  C   C400      1.0  0.57767  0.06891  0.23023  1.0000
  H   H460      1.0  0.64323  0.24486  0.00649  1.0000
  C   C401      1.0  0.44955  0.02754  0.42317  1.0000
  H   H461      1.0  0.34630  0.24209  0.40345  1.0000
  C   C402      1.0  0.44841  0.04417  0.01915  1.0000
  C   C403      1.0  0.45419  0.07097  0.02436  1.0000
  N   N27       1.0  0.66719  0.49196  0.48043  1.0000
  H   H462      1.0  0.64729  0.21869  0.04948  1.0000
  H   H463      1.0  0.49998  0.02548  0.36846  1.0000
  C   C404      1.0  0.47856  0.50652  0.26585  1.0000
  H   H464      1.0  0.34357  0.27960  0.46070  1.0000
  H   H465      1.0  0.66624  0.30215  0.39672  1.0000
  S   S96       1.0  0.67381  0.34617  0.18570  1.0000
  H   H466      1.0  0.55482  0.41188  0.99814  1.0000
  Fe  Fe47      1.0  0.47651  0.09848  0.48601  1.0000
  H   H467      1.0  0.56511  0.04845  0.39466  1.0000
  C   C405      1.0  0.66026  0.39739  0.40683  1.0000
  H   H468      1.0  0.62627  0.48229  0.47234  1.0000
  C   C406      1.0  0.44354  0.31263  0.00000  1.0000
  H   H469      1.0  0.41151  0.27809  0.03117  1.0000
  S   S97       1.0  0.67006  0.09523  0.06343  1.0000
  S   S98       1.0  0.66412  0.40653  0.09460  1.0000
  H   H470      1.0  0.40375  0.34767  0.01939  1.0000
  H   H471      1.0  0.42613  0.16438  0.49180  1.0000
  H   H472      1.0  0.64380  0.29313  0.47877  1.0000
  C   C407      1.0  0.37470  0.26574  0.00504  1.0000
  H   H473      1.0  0.45314  0.04031  0.45346  1.0000
  H   H474      1.0  0.64370  0.32824  0.48814  1.0000
  H   H475      1.0  0.46062  0.32608  0.99683  1.0000
  C   C408      1.0  0.40939  0.50734  0.32208  1.0000
  C   C409      1.0  0.65574  0.30960  0.49264  1.0000
  H   H476      1.0  0.67483  0.23863  0.03524  1.0000
  H   H477      1.0  0.63013  0.18819  0.99577  1.0000
  S   S99       1.0  0.48445  0.42225  0.91441  1.0000
  Fe  Fe48      1.0  0.37909  0.31841  0.63207  1.0000
  S   S100      1.0  0.38827  0.30031  0.70504  1.0000
  Fe  Fe49      1.0  0.43372  0.34281  0.62541  1.0000
  S   S101      1.0  0.44691  0.32607  0.69652  1.0000
  S   S102      1.0  0.46210  0.36454  0.57661  1.0000
  Fe  Fe50      1.0  0.42754  0.28909  0.67243  1.0000
  S   S103      1.0  0.45126  0.25133  0.68293  1.0000
  Fe  Fe51      1.0  0.40677  0.33911  0.72325  1.0000
  S   S104      1.0  0.39986  0.35702  0.79792  1.0000
  S   S105      1.0  0.41770  0.30448  0.59878  1.0000
  S   S106      1.0  0.39421  0.35844  0.65300  1.0000
  S   S107      1.0  0.61249  0.43152  0.57835  1.0000
  S   S108      1.0  0.63299  0.36963  0.56908  1.0000
  Fe  Fe52      1.0  0.63980  0.40777  0.52912  1.0000
  Fe  Fe53      1.0  0.60957  0.39445  0.62240  1.0000
  S   S109      1.0  0.57390  0.38437  0.66762  1.0000
  S   S110      1.0  0.64427  0.40318  0.66919  1.0000
  C   C410      1.0  0.47627  0.01726  0.75186  1.0000
  Fe  Fe54      1.0  0.44712  0.11803  0.57622  1.0000
  S   S111      1.0  0.47677  0.13648  0.52683  1.0000
  S   S112      1.0  0.41166  0.14375  0.59704  1.0000
  Fe  Fe55      1.0  0.47724  0.06512  0.57996  1.0000
  S   S113      1.0  0.50937  0.07954  0.52966  1.0000
  S   S114      1.0  0.47863  0.02176  0.60422  1.0000
  Fe  Fe56      1.0  0.50699  0.11648  0.57412  1.0000
  S   S115      1.0  0.53992  0.14303  0.59528  1.0000
  H   H478      1.0  0.45101  0.29220  0.99180  1.0000
  S   S116      1.0  0.47733  0.10104  0.62765  1.0000
  S   S117      1.0  0.44442  0.08094  0.53202  1.0000
  H   H479      1.0  0.62616  0.14248  0.85001  1.0000
  C   C411      1.0  0.62656  0.11506  0.59592  1.0000
  C   C412      1.0  0.60663  0.09637  0.59176  1.0000
  C   C413      1.0  0.57986  0.10466  0.59038  1.0000
  C   C414      1.0  0.57302  0.13160  0.59426  1.0000
  C   C415      1.0  0.59297  0.15012  0.59881  1.0000
  C   C416      1.0  0.61962  0.14193  0.59892  1.0000
  H   H480      1.0  0.59013  0.49794  0.73709  1.0000
  H   H481      1.0  0.56452  0.09023  0.58733  1.0000
  H   H482      1.0  0.58785  0.17095  0.60232  1.0000
  H   H483      1.0  0.63479  0.15654  0.60147  1.0000
  H   H484      1.0  0.52582  0.44638  0.65045  1.0000
  H   H485      1.0  0.58284  0.43809  0.71641  1.0000
  C   C417      1.0  0.55370  0.49397  0.67068  1.0000
  C   C418      1.0  0.43931  0.22179  0.65938  1.0000
  C   C419      1.0  0.45675  0.19990  0.65547  1.0000
  C   C420      1.0  0.44825  0.17606  0.63615  1.0000
  C   C421      1.0  0.42203  0.17368  0.62179  1.0000
  C   C422      1.0  0.40439  0.19550  0.62598  1.0000
  C   C423      1.0  0.41309  0.21968  0.64433  1.0000
  H   H486      1.0  0.47695  0.20133  0.66751  1.0000
  H   H487      1.0  0.46199  0.15939  0.63311  1.0000
  H   H488      1.0  0.59391  0.04250  0.75744  1.0000
  H   H489      1.0  0.39951  0.23652  0.64741  1.0000
  C   C424      1.0  0.49270  0.37232  0.60197  1.0000
  C   C425      1.0  0.49609  0.37187  0.65199  1.0000
  C   C426      1.0  0.52102  0.37629  0.67164  1.0000
  C   C427      1.0  0.54271  0.38134  0.64140  1.0000
  C   C428      1.0  0.53929  0.38264  0.59139  1.0000
  C   C429      1.0  0.51426  0.37814  0.57172  1.0000
  H   H490      1.0  0.47945  0.36847  0.67569  1.0000
  H   H491      1.0  0.52349  0.37556  0.71040  1.0000
  H   H492      1.0  0.55597  0.38655  0.56785  1.0000
  H   H493      1.0  0.51169  0.37868  0.53296  1.0000
  C   C430      1.0  0.46118  0.40345  0.88273  1.0000
  C   C431      1.0  0.43537  0.40077  0.90031  1.0000
  C   C432      1.0  0.41677  0.38698  0.87331  1.0000
  C   C433      1.0  0.42385  0.37526  0.82897  1.0000
  C   C434      1.0  0.44980  0.37760  0.81164  1.0000
  C   C435      1.0  0.46835  0.39173  0.83838  1.0000
  H   H494      1.0  0.42951  0.40996  0.93410  1.0000
  H   H495      1.0  0.39666  0.38559  0.88660  1.0000
  H   H496      1.0  0.45556  0.36858  0.77767  1.0000
  H   H497      1.0  0.48833  0.39350  0.82463  1.0000
  H   H498      1.0  0.53477  0.46928  0.80076  1.0000
  H   H499      1.0  0.37158  0.16586  0.70029  1.0000
  C   C436      1.0  0.47657  0.02734  0.70424  1.0000
  H   H500      1.0  0.39696  0.35604  0.95765  1.0000
  H   H501      1.0  0.47564  0.04849  0.69795  1.0000
  C   C437      1.0  0.56462  0.23327  0.55994  1.0000
  H   H502      1.0  0.54937  0.46030  0.96637  1.0000
  C   C438      1.0  0.57208  0.48754  0.74933  1.0000
  H   H503      1.0  0.35077  0.34911  0.53219  1.0000
  H   H504      1.0  0.34636  0.19505  0.90940  1.0000
  C   C439      1.0  0.65435  0.12959  0.90362  1.0000
  C   C440      1.0  0.66327  0.31278  0.63232  1.0000
  C   C441      1.0  0.35587  0.28980  0.93772  1.0000
  H   H505      1.0  0.63395  0.28262  0.63065  1.0000
  H   H506      1.0  0.66013  0.15655  0.79025  1.0000
  C   C442      1.0  0.55475  0.45214  0.93024  1.0000
  N   N28       1.0  0.57289  0.42868  0.93405  1.0000
  H   H507      1.0  0.57179  0.50500  0.66059  1.0000
  H   H508      1.0  0.39944  0.18212  0.52126  1.0000
  C   C443      1.0  0.62598  0.08357  0.79681  1.0000
  C   C444      1.0  0.58076  0.41983  0.88494  1.0000
  C   C445      1.0  0.56132  0.41134  0.85209  1.0000
  C   C446      1.0  0.60747  0.41939  0.86817  1.0000
  C   C447      1.0  0.56831  0.40233  0.80588  1.0000
  C   C448      1.0  0.61420  0.41035  0.82188  1.0000
  C   C449      1.0  0.59473  0.40154  0.79111  1.0000
  H   H509      1.0  0.67357  0.26520  0.52385  1.0000
  C   C450      1.0  0.44315  0.21178  0.51029  1.0000
  H   H510      1.0  0.55443  0.19266  0.54866  1.0000
  C   C451      1.0  0.53964  0.07337  0.71127  1.0000
  H   H511      1.0  0.57105  0.44384  0.65673  1.0000
  H   H512      1.0  0.63029  0.01461  0.51264  1.0000
  H   H513      1.0  0.34940  0.16829  0.78344  1.0000
  C   C452      1.0  0.58213  0.05855  0.74220  1.0000
  H   H514      1.0  0.54326  0.31280  0.57251  1.0000
  H   H515      1.0  0.54056  0.41137  0.86216  1.0000
  H   H516      1.0  0.62361  0.42579  0.89013  1.0000
  H   H517      1.0  0.55322  0.39569  0.78141  1.0000
  H   H518      1.0  0.63469  0.41000  0.80978  1.0000
  H   H519      1.0  0.60018  0.39408  0.75565  1.0000
  N   N29       1.0  0.52165  0.28731  0.62081  1.0000
  C   C453      1.0  0.51836  0.28443  0.67385  1.0000
  C   C454      1.0  0.54013  0.30923  0.61185  1.0000
  C   C455      1.0  0.49575  0.29546  0.59982  1.0000
  C   C456      1.0  0.53094  0.26169  0.60011  1.0000
  C   C457      1.0  0.51467  0.23922  0.60283  1.0000
  C   C458      1.0  0.55638  0.25793  0.57829  1.0000
  H   H520      1.0  0.43886  0.30205  0.90473  1.0000
  H   H521      1.0  0.37739  0.32223  0.91012  1.0000
  C   C459      1.0  0.63846  0.07007  0.71595  1.0000
  H   H522      1.0  0.53732  0.27819  0.69109  1.0000
  H   H523      1.0  0.51131  0.30332  0.69084  1.0000
  H   H524      1.0  0.50357  0.26936  0.68369  1.0000
  H   H525      1.0  0.55956  0.30556  0.62954  1.0000
  H   H526      1.0  0.53223  0.32814  0.62709  1.0000
  H   H527      1.0  0.63485  0.49242  0.53249  1.0000
  H   H528      1.0  0.47974  0.28169  0.60950  1.0000
  H   H529      1.0  0.48878  0.31520  0.61323  1.0000
  H   H530      1.0  0.49698  0.29682  0.55974  1.0000
  H   H531      1.0  0.49545  0.24033  0.62015  1.0000
  C   C460      1.0  0.50046  0.44863  0.78276  1.0000
  H   H532      1.0  0.61249  0.09617  0.81963  1.0000
  C   C461      1.0  0.37753  0.30647  0.93676  1.0000
  H   H533      1.0  0.44013  0.01762  0.51962  1.0000
  N   N30       1.0  0.55923  0.47383  0.70877  1.0000
  H   H534      1.0  0.59758  0.46292  0.67880  1.0000
  H   H535      1.0  0.61824  0.13074  0.75520  1.0000
  H   H536      1.0  0.58424  0.23065  0.54417  1.0000
  H   H537      1.0  0.61183  0.07551  0.58971  1.0000
  C   C462      1.0  0.48575  0.43676  0.74695  1.0000
  H   H538      1.0  0.64267  0.45283  0.73681  1.0000
  H   H539      1.0  0.64518  0.18032  0.93969  1.0000
  H   H540      1.0  0.37668  0.28319  0.52496  1.0000
  C   C463      1.0  0.53442  0.46069  0.72291  1.0000
  H   H541      1.0  0.38417  0.19389  0.61433  1.0000
  H   H542      1.0  0.41260  0.25083  0.53260  1.0000
  H   H543      1.0  0.45910  0.19615  0.51128  1.0000
  H   H544      1.0  0.53576  0.44741  0.91270  1.0000
  H   H545      1.0  0.47342  0.03560  0.90481  1.0000
  H   H546      1.0  0.64461  0.46041  0.51117  1.0000
  H   H547      1.0  0.56401  0.46829  0.90892  1.0000
  H   H548      1.0  0.60634  0.45317  0.94832  1.0000
  H   H549      1.0  0.57043  0.27360  0.57539  1.0000
  H   H550      1.0  0.54660  0.48504  0.63676  1.0000
  H   H551      1.0  0.53704  0.11378  0.68691  1.0000
  C   C464      1.0  0.65488  0.28658  0.63011  1.0000
  H   H552      1.0  0.35332  0.13599  0.69449  1.0000
  H   H553      1.0  0.60960  0.41921  0.97031  1.0000
  C   C465      1.0  0.51922  0.44777  0.68764  1.0000
  C   C466      1.0  0.55579  0.05350  0.73117  1.0000
  H   H554      1.0  0.57125  0.38834  0.95963  1.0000
  H   H555      1.0  0.63551  0.04897  0.72554  1.0000
  H   H556      1.0  0.66194  0.46992  0.97117  1.0000
  C   C467      1.0  0.64087  0.19705  0.96462  1.0000
  C   C468      1.0  0.55905  0.40702  0.95964  1.0000
  C   C469      1.0  0.39885  0.30288  0.96943  1.0000
  C   C470      1.0  0.57848  0.45388  0.68933  1.0000
  C   C471      1.0  0.64693  0.14001  0.85839  1.0000
  H   H557      1.0  0.53962  0.40268  0.94336  1.0000
  C   C472      1.0  0.52449  0.46043  0.77122  1.0000
  C   C473      1.0  0.46786  0.04484  0.93875  1.0000
  S   S118      1.0  0.65277  0.48166  0.64642  1.0000
  H   H558      1.0  0.48318  0.08236  0.91549  1.0000
  C   C474      1.0  0.59311  0.08379  0.73348  1.0000
  H   H559      1.0  0.48377  0.42675  0.67183  1.0000
  C   C475      1.0  0.62958  0.11576  0.73346  1.0000
  H   H560      1.0  0.64665  0.08816  0.80700  1.0000
  C   C476      1.0  0.54966  0.09839  0.70271  1.0000
  C   C477      1.0  0.35239  0.15781  0.68841  1.0000
  H   H561      1.0  0.58239  0.12342  0.70501  1.0000
  H   H562      1.0  0.41849  0.33056  0.89123  1.0000
  H   H563      1.0  0.46704  0.42782  0.75598  1.0000
  N   N31       1.0  0.42157  0.32087  0.96758  1.0000
  Fe  Fe57      1.0  0.64858  0.43904  0.62218  1.0000
  H   H564      1.0  0.49303  0.44877  0.81970  1.0000
  S   S119      1.0  0.62921  0.12009  0.94508  1.0000
  C   C478      1.0  0.64687  0.49197  0.70696  1.0000
  C   C479      1.0  0.59554  0.43625  0.96441  1.0000
  C   C480      1.0  0.54794  0.21178  0.56264  1.0000
  C   C481      1.0  0.52309  0.21469  0.58430  1.0000
  C   C482      1.0  0.39901  0.24813  0.50329  1.0000
  H   H565      1.0  0.51932  0.06938  0.70226  1.0000
  H   H566      1.0  0.47535  0.03086  0.78191  1.0000
  C   C483      1.0  0.49515  0.43627  0.69955  1.0000
  H   H567      1.0  0.63348  0.46871  0.82035  1.0000
  S   S120      1.0  0.65998  0.10472  0.59959  1.0000
  H   H568      1.0  0.64882  0.32881  0.63548  1.0000
  C   C484      1.0  0.64221  0.47382  0.74434  1.0000
  C   C485      1.0  0.63704  0.48286  0.79172  1.0000
  H   H569      1.0  0.65092  0.11835  0.74118  1.0000
  H   H570      1.0  0.51053  0.19763  0.58765  1.0000
  H   H571      1.0  0.63460  0.07246  0.67660  1.0000
  H   H572      1.0  0.65985  0.07391  0.72131  1.0000
  H   H573      1.0  0.62294  0.06265  0.80755  1.0000
  H   H574      1.0  0.47073  0.10549  0.99130  1.0000
  H   H575      1.0  0.35132  0.16061  0.64864  1.0000
  N   N32       1.0  0.62121  0.08841  0.74464  1.0000
  H   H576      1.0  0.43456  0.21233  0.54737  1.0000
  Fe  Fe58      1.0  0.66805  0.38124  0.61254  1.0000
  H   H577      1.0  0.62722  0.12061  0.69452  1.0000
  H   H578      1.0  0.45023  0.33505  0.91554  1.0000
  H   H579      1.0  0.42887  0.36201  0.98203  1.0000
  C   C486      1.0  0.43273  0.32211  0.91778  1.0000
  C   C487      1.0  0.66614  0.14776  0.82422  1.0000
  C   C488      1.0  0.57596  0.10367  0.71349  1.0000
  C   C489      1.0  0.41238  0.34779  0.98217  1.0000
  C   C490      1.0  0.64211  0.48148  0.49998  1.0000
  H   H580      1.0  0.57860  0.47334  0.77803  1.0000
  C   C491      1.0  0.35448  0.26946  0.97171  1.0000
  H   H581      1.0  0.62697  0.21106  0.94600  1.0000
  C   C492      1.0  0.67337  0.26552  0.62694  1.0000
  H   H582      1.0  0.65830  0.30700  0.53225  1.0000
  C   C493      1.0  0.46662  0.08464  0.98708  1.0000
  H   H583      1.0  0.65321  0.05721  0.53775  1.0000
  H   H584      1.0  0.55874  0.50303  0.76558  1.0000
  S   S121      1.0  0.66168  0.23336  0.61915  1.0000
  C   C494      1.0  0.47354  0.07159  0.94443  1.0000
  H   H585      1.0  0.36210  0.19740  0.99395  1.0000
  H   H586      1.0  0.54777  0.03408  0.73790  1.0000
  H   H587      1.0  0.62983  0.09279  0.49776  1.0000
  C   C495      1.0  0.37830  0.26694  0.49949  1.0000
  H   H588      1.0  0.45275  0.23097  0.50279  1.0000
  C   C496      1.0  0.66452  0.05550  0.50312  1.0000
  C   C497      1.0  0.47779  0.01005  0.66496  1.0000
  N   N33       1.0  0.66515  0.21055  0.97988  1.0000
  S   S122      1.0  0.67059  0.16602  0.68004  1.0000
  H   H589      1.0  0.41297  0.01301  0.93038  1.0000
  C   C498      1.0  0.45500  0.03031  0.97586  1.0000
  H   H590      1.0  0.48644  0.01703  0.49472  1.0000
  H   H591      1.0  0.53834  0.50870  0.68305  1.0000
  Fe  Fe59      1.0  0.46764  0.58872  0.36036  1.0000
  S   S123      1.0  0.49914  0.60418  0.40923  1.0000
  S   S124      1.0  0.47292  0.54594  0.33391  1.0000
  Fe  Fe60      1.0  0.43708  0.64148  0.36296  1.0000
  S   S125      1.0  0.46643  0.66066  0.41072  1.0000
  S   S126      1.0  0.40274  0.66751  0.33891  1.0000
  Fe  Fe61      1.0  0.49677  0.64071  0.36318  1.0000
  S   S127      1.0  0.52912  0.66419  0.32823  1.0000
  Fe  Fe62      1.0  0.46575  0.62287  0.45331  1.0000
  S   S128      1.0  0.46748  0.62433  0.31162  1.0000
  S   S129      1.0  0.43425  0.60445  0.40840  1.0000
  Fe  Fe63      1.0  0.42145  0.81997  0.33149  1.0000
  S   S130      1.0  0.41154  0.84310  0.39884  1.0000
  S   S131      1.0  0.44726  0.78301  0.32719  1.0000
  Fe  Fe64      1.0  0.39891  0.86214  0.26309  1.0000
  S   S132      1.0  0.38663  0.88901  0.32449  1.0000
  S   S133      1.0  0.39147  0.86701  0.18246  1.0000
  Fe  Fe65      1.0  0.42646  0.87778  0.35584  1.0000
  S   S134      1.0  0.45513  0.90777  0.38355  1.0000
  Fe  Fe66      1.0  0.37232  0.85239  0.36319  1.0000
  S   S135      1.0  0.43940  0.85390  0.29166  1.0000
  S   S136      1.0  0.38157  0.82629  0.29874  1.0000
  C   C499      1.0  0.56956  0.94076  0.04403  1.0000
  H   H592      1.0  0.61763  0.57538  0.17793  1.0000
  Fe  Fe67      1.0  0.60920  0.89064  0.39969  1.0000
  S   S137      1.0  0.63330  0.90431  0.33575  1.0000
  S   S138      1.0  0.57398  0.86413  0.39324  1.0000
  H   H593      1.0  0.37548  0.71880  0.33592  1.0000
  S   S139      1.0  0.61128  0.92899  0.43995  1.0000
  S   S140      1.0  0.64382  0.87184  0.43838  1.0000
  C   C500      1.0  0.62193  0.59539  0.29431  1.0000
  C   C501      1.0  0.65378  0.57231  0.42971  1.0000
  H   H594      1.0  0.43937  0.82942  0.17897  1.0000
  C   C502      1.0  0.41353  0.88253  0.14153  1.0000
  C   C503      1.0  0.40840  0.88156  0.09175  1.0000
  C   C504      1.0  0.42563  0.89315  0.05786  1.0000
  C   C505      1.0  0.44781  0.90654  0.07355  1.0000
  C   C506      1.0  0.45285  0.90773  0.12335  1.0000
  C   C507      1.0  0.43598  0.89550  0.15719  1.0000
  H   H595      1.0  0.39099  0.87174  0.07931  1.0000
  C   C508      1.0  0.44742  0.98457  0.38530  1.0000
  H   H596      1.0  0.46991  0.91809  0.13586  1.0000
  H   H597      1.0  0.44013  0.89646  0.19540  1.0000
  C   C509      1.0  0.48827  0.89588  0.38565  1.0000
  C   C510      1.0  0.50912  0.91374  0.38754  1.0000
  C   C511      1.0  0.53558  0.90437  0.38997  1.0000
  C   C512      1.0  0.54124  0.87709  0.39087  1.0000
  C   C513      1.0  0.52036  0.85936  0.38948  1.0000
  C   C514      1.0  0.49402  0.86867  0.38643  1.0000
  H   H598      1.0  0.50488  0.93480  0.38627  1.0000
  H   H599      1.0  0.55157  0.91817  0.39087  1.0000
  H   H600      1.0  0.52456  0.83831  0.39115  1.0000
  H   H601      1.0  0.47812  0.85476  0.38535  1.0000
  H   H602      1.0  0.41527  0.53426  0.26304  1.0000
  C   C515      1.0  0.47160  0.55063  0.23345  1.0000
  H   H603      1.0  0.43729  0.98499  0.30992  1.0000
  H   H604      1.0  0.46827  0.57167  0.23870  1.0000
  H   H605      1.0  0.47015  0.55320  0.15560  1.0000
  C   C516      1.0  0.56208  0.66069  0.34711  1.0000
  C   C517      1.0  0.56940  0.64391  0.38531  1.0000
  C   C518      1.0  0.59615  0.64134  0.39850  1.0000
  C   C519      1.0  0.61556  0.65555  0.37360  1.0000
  C   C520      1.0  0.60803  0.67271  0.33614  1.0000
  C   C521      1.0  0.58142  0.67515  0.32278  1.0000
  H   H606      1.0  0.55448  0.63305  0.40478  1.0000
  H   H607      1.0  0.60183  0.62829  0.42795  1.0000
  H   H608      1.0  0.62266  0.68412  0.31737  1.0000
  H   H609      1.0  0.57581  0.68830  0.29341  1.0000
  C   C522      1.0  0.41401  0.69980  0.32951  1.0000
  C   C523      1.0  0.44106  0.70374  0.32366  1.0000
  C   C524      1.0  0.45078  0.72938  0.32210  1.0000
  C   C525      1.0  0.43355  0.75140  0.32611  1.0000
  C   C526      1.0  0.40627  0.74768  0.32998  1.0000
  C   C527      1.0  0.39649  0.72179  0.33161  1.0000
  H   H610      1.0  0.45467  0.68697  0.32068  1.0000
  H   H611      1.0  0.47182  0.73194  0.31846  1.0000
  H   H612      1.0  0.39281  0.76462  0.33272  1.0000
  H   H613      1.0  0.64493  0.81084  0.25164  1.0000
  C   C528      1.0  0.63904  0.97988  0.25060  1.0000
  H   H614      1.0  0.53049  0.55835  0.36349  1.0000
  H   H615      1.0  0.50046  0.98970  0.46081  1.0000
  C   C529      1.0  0.42784  0.79215  0.01305  1.0000
  N   N34       1.0  0.61919  0.94013  0.02572  1.0000
  Fe  Fe68      1.0  0.64795  0.91105  0.47425  1.0000
  C   C530      1.0  0.56581  0.63287  0.17391  1.0000
  H   H616      1.0  0.60520  0.81499  0.39351  1.0000
  C   C531      1.0  0.56519  0.62095  0.12850  1.0000
  H   H617      1.0  0.54724  0.64126  0.02099  1.0000
  H   H618      1.0  0.65743  0.85187  0.29386  1.0000
  H   H619      1.0  0.50333  0.76304  0.32722  1.0000
  H   H620      1.0  0.56563  0.55314  0.36771  1.0000
  H   H621      1.0  0.45012  0.74929  0.09825  1.0000
  C   C532      1.0  0.51814  0.63518  0.17621  1.0000
  C   C533      1.0  0.54996  0.56615  0.35152  1.0000
  H   H622      1.0  0.52734  0.93864  0.05677  1.0000
  N   N35       1.0  0.41322  0.71787  0.48997  1.0000
  C   C534      1.0  0.39270  0.73657  0.47071  1.0000
  H   H623      1.0  0.56295  0.52578  0.28732  1.0000
  C   C535      1.0  0.51729  0.62323  0.13073  1.0000
  H   H624      1.0  0.61328  0.80939  0.33059  1.0000
  H   H625      1.0  0.51205  0.58107  0.29192  1.0000
  H   H626      1.0  0.61904  0.76244  0.30074  1.0000
  C   C536      1.0  0.56140  0.79336  0.34678  1.0000
  H   H627      1.0  0.59258  0.59247  0.34863  1.0000
  H   H628      1.0  0.63725  0.80258  0.37602  1.0000
  H   H629      1.0  0.61894  0.73557  0.34344  1.0000
  Fe  Fe69      1.0  0.63782  0.94185  0.37823  1.0000
  H   H630      1.0  0.53607  0.60666  0.29237  1.0000
  S   S141      1.0  0.46888  0.92299  0.03216  1.0000
  N   N36       1.0  0.43448  0.78726  0.16855  1.0000
  C   C537      1.0  0.44795  0.76271  0.18666  1.0000
  C   C538      1.0  0.44985  0.81007  0.18534  1.0000
  C   C539      1.0  0.58675  0.57156  0.23190  1.0000
  H   H631      1.0  0.50213  0.58696  0.05980  1.0000
  H   H632      1.0  0.43912  0.95014  0.46355  1.0000
  C   C540      1.0  0.42040  0.81087  0.09247  1.0000
  H   H633      1.0  0.53092  0.72359  0.34969  1.0000
  C   C541      1.0  0.66644  0.52662  0.41291  1.0000
  C   C542      1.0  0.64938  0.56571  0.47800  1.0000
  H   H634      1.0  0.46846  0.76060  0.17198  1.0000
  H   H635      1.0  0.44972  0.76279  0.22676  1.0000
  H   H636      1.0  0.43667  0.74476  0.17778  1.0000
  H   H637      1.0  0.46938  0.81085  0.16659  1.0000
  H   H638      1.0  0.45349  0.80900  0.22496  1.0000
  C   C543      1.0  0.66981  0.83416  0.29674  1.0000
  C   C544      1.0  0.67011  0.63419  0.16728  1.0000
  N   N37       1.0  0.54100  0.60381  0.05656  1.0000
  C   C545      1.0  0.47264  0.54008  0.18633  1.0000
  C   C546      1.0  0.66280  0.81098  0.27279  1.0000
  C   C547      1.0  0.59709  0.58789  0.31142  1.0000
  H   H639      1.0  0.35387  0.85669  0.48977  1.0000
  C   C548      1.0  0.47438  0.53386  0.27358  1.0000
  S   S142      1.0  0.63340  0.98475  0.35073  1.0000
  C   C549      1.0  0.40779  0.78882  0.19127  1.0000
  H   H640      1.0  0.41270  0.82728  0.11361  1.0000
  H   H641      1.0  0.39507  0.77280  0.17798  1.0000
  H   H642      1.0  0.58460  0.63670  0.19077  1.0000
  H   H643      1.0  0.60628  0.74354  0.42770  1.0000
  C   C550      1.0  0.55424  0.57727  0.05860  1.0000
  H   H644      1.0  0.42143  0.89220  0.01968  1.0000
  C   C551      1.0  0.54212  0.90540  0.01611  1.0000
  H   H645      1.0  0.62946  0.91662  0.08812  1.0000
  H   H646      1.0  0.63163  0.76722  0.43330  1.0000
  C   C552      1.0  0.53230  0.58621  0.27953  1.0000
  H   H647      1.0  0.40992  0.83054  0.02576  1.0000
  H   H648      1.0  0.57355  0.56328  0.20590  1.0000
  N   N38       1.0  0.55244  0.56702  0.29798  1.0000
  H   H649      1.0  0.40885  0.78694  0.23136  1.0000
  H   H650      1.0  0.67301  0.51256  0.38581  1.0000
  H   H651      1.0  0.39734  0.80807  0.18385  1.0000
  H   H652      1.0  0.50330  0.61971  0.03227  1.0000
  H   H653      1.0  0.64030  0.90241  0.03173  1.0000
  H   H654      1.0  0.42273  0.67609  0.48194  1.0000
  C   C553      1.0  0.47644  0.51270  0.17862  1.0000
  C   C554      1.0  0.66217  0.55279  0.39723  1.0000
  H   H655      1.0  0.41278  0.69263  0.42801  1.0000
  S   S143      1.0  0.62970  0.59790  0.06192  1.0000
  C   C555      1.0  0.40911  0.69173  0.46759  1.0000
  S   S144      1.0  0.64909  0.65121  0.38919  1.0000
  H   H656      1.0  0.36426  0.60025  0.05769  1.0000
  H   H657      1.0  0.44883  0.96322  0.38484  1.0000
  H   H658      1.0  0.37233  0.72995  0.47937  1.0000
  H   H659      1.0  0.61279  0.96376  0.09000  1.0000
  H   H660      1.0  0.47396  0.94944  0.44888  1.0000
  C   C556      1.0  0.43514  0.98968  0.01024  1.0000
  C   C557      1.0  0.48855  0.71737  0.48672  1.0000
  H   H661      1.0  0.54293  0.64979  0.23237  1.0000
  H   H662      1.0  0.63539  0.60536  0.31811  1.0000
  H   H663      1.0  0.47688  0.77257  0.41895  1.0000
  C   C558      1.0  0.41854  0.81282  0.04220  1.0000
  H   H664      1.0  0.54435  0.56420  0.08541  1.0000
  H   H665      1.0  0.55088  0.58623  0.36763  1.0000
  C   C559      1.0  0.59257  0.92861  0.02283  1.0000
  C   C560      1.0  0.64100  0.99044  0.20334  1.0000
  C   C561      1.0  0.45871  0.95774  0.47418  1.0000
  C   C562      1.0  0.61182  0.57871  0.21536  1.0000
  C   C563      1.0  0.63709  0.99680  0.29042  1.0000
  C   C564      1.0  0.54638  0.54014  0.28000  1.0000
  N   N39       1.0  0.60622  0.77383  0.37208  1.0000
  C   C565      1.0  0.61577  0.80137  0.36786  1.0000
  C   C566      1.0  0.61065  0.76484  0.42249  1.0000
  C   C567      1.0  0.62271  0.75704  0.33922  1.0000
  C   C568      1.0  0.57792  0.77131  0.35993  1.0000
  H   H666      1.0  0.51491  0.59122  0.00014  1.0000
  C   C569      1.0  0.55572  0.62070  0.02200  1.0000
  H   H667      1.0  0.57731  0.72836  0.37064  1.0000
  H   H668      1.0  0.56843  0.81338  0.34525  1.0000
  C   C570      1.0  0.51410  0.60035  0.03671  1.0000
  H   H669      1.0  0.41005  0.52277  0.34915  1.0000
  H   H670      1.0  0.52260  0.80722  0.32485  1.0000
  H   H671      1.0  0.59792  0.77649  0.44815  1.0000
  S   S145      1.0  0.66900  0.75880  0.24852  1.0000
  H   H672      1.0  0.63889  0.95866  0.25617  1.0000
  H   H673      1.0  0.55399  0.56719  0.02292  1.0000
  H   H674      1.0  0.64423  0.75932  0.34578  1.0000
  C   C571      1.0  0.53947  0.74312  0.34917  1.0000
  H   H675      1.0  0.43083  0.96848  0.00327  1.0000
  H   H676      1.0  0.66586  0.72486  0.13776  1.0000
  C   C572      1.0  0.66247  0.51929  0.46214  1.0000
  C   C573      1.0  0.45177  0.99954  0.42772  1.0000
  H   H677      1.0  0.58394  0.61589  0.11147  1.0000
  H   H678      1.0  0.57303  0.98739  0.32423  1.0000
  C   C574      1.0  0.56606  0.74608  0.36097  1.0000
  C   C575      1.0  0.44121  0.76739  0.08445  1.0000
  C   C576      1.0  0.43900  0.76943  0.03412  1.0000
  C   C577      1.0  0.64990  0.62351  0.13956  1.0000
  C   C578      1.0  0.62944  0.59040  0.24666  1.0000
  C   C579      1.0  0.54094  0.61596  0.10519  1.0000
  H   H679      1.0  0.43158  0.76153  0.43563  1.0000
  H   H680      1.0  0.49994  0.64083  0.19507  1.0000
  C   C580      1.0  0.54234  0.64018  0.19750  1.0000
  C   C581      1.0  0.43209  0.78829  0.11523  1.0000
  H   H681      1.0  0.63015  0.62249  0.15454  1.0000
  H   H682      1.0  0.60675  0.98119  0.03359  1.0000
  H   H683      1.0  0.53206  0.58678  0.23939  1.0000
  H   H684      1.0  0.52832  0.53215  0.29757  1.0000
  H   H685      1.0  0.39388  0.73801  0.43060  1.0000
  H   H686      1.0  0.57545  0.57830  0.06859  1.0000
  C   C582      1.0  0.57891  0.57515  0.28091  1.0000
  H   H687      1.0  0.49787  0.62010  0.11627  1.0000
  H   H688      1.0  0.54214  0.53990  0.24071  1.0000
  H   H689      1.0  0.64243  0.97715  0.17289  1.0000
  C   C583      1.0  0.48546  0.99530  0.48886  1.0000
  H   H690      1.0  0.57706  0.62190  0.03089  1.0000
  C   C584      1.0  0.44667  0.74882  0.45161  1.0000
  H   H691      1.0  0.44777  0.98955  0.04297  1.0000
  C   C585      1.0  0.44076  0.99693  0.34159  1.0000
  H   H692      1.0  0.53174  0.98728  0.37294  1.0000
  C   C586      1.0  0.65515  0.61384  0.09298  1.0000
  C   C587      1.0  0.53484  0.79016  0.33505  1.0000
  Fe  Fe70      1.0  0.66818  0.88883  0.37833  1.0000
  H   H693      1.0  0.64889  0.59588  0.23383  1.0000
  C   C588      1.0  0.52392  0.76517  0.33632  1.0000
  C   C589      1.0  0.47285  0.75545  0.44152  1.0000
  C   C590      1.0  0.58910  0.90431  0.99835  1.0000
  H   H694      1.0  0.66585  0.64075  0.20356  1.0000
  H   H695      1.0  0.63573  0.00274  0.45214  1.0000
  C   C591      1.0  0.55906  0.00408  0.32204  1.0000
  C   C592      1.0  0.61943  0.96584  0.05170  1.0000
  H   H696      1.0  0.41583  0.99976  0.01862  1.0000
  C   C593      1.0  0.63731  0.92141  0.05143  1.0000
  H   H697      1.0  0.63967  0.97409  0.05313  1.0000
  H   H698      1.0  0.65734  0.92975  0.05581  1.0000
  H   H699      1.0  0.52283  0.89660  0.01341  1.0000
  H   H700      1.0  0.66566  0.55808  0.35970  1.0000
  H   H701      1.0  0.57011  0.95916  0.06359  1.0000
  C   C594      1.0  0.54476  0.92920  0.04050  1.0000
  H   H702      1.0  0.39450  0.75676  0.48606  1.0000
  C   C595      1.0  0.49373  0.73975  0.45889  1.0000
  H   H703      1.0  0.51395  0.74469  0.45000  1.0000
  C   C596      1.0  0.44066  0.72609  0.47988  1.0000
  H   H704      1.0  0.66730  0.71227  0.04826  1.0000
  H   H705      1.0  0.38861  0.68473  0.47331  1.0000
  H   H706      1.0  0.65087  0.59267  0.41756  1.0000
  S   S146      1.0  0.67053  0.68358  0.26621  1.0000
  C   C597      1.0  0.41235  0.51378  0.27342  1.0000
  H   H707      1.0  0.66282  0.00458  0.49162  1.0000
  H   H708      1.0  0.44603  0.75335  0.01109  1.0000
  C   C598      1.0  0.53587  0.00404  0.34964  1.0000
  C   C599      1.0  0.34329  0.60039  0.05059  1.0000
  C   C600      1.0  0.56424  0.89297  0.99513  1.0000
  S   S147      1.0  0.67471  0.92730  0.41640  1.0000
  N   N40       1.0  0.45866  0.98717  0.47475  1.0000
  H   H709      1.0  0.38235  0.57269  0.00058  1.0000
  S   S148      1.0  0.46930  0.62525  0.53547  1.0000
  Fe  Fe71      1.0  0.41005  0.70375  0.85777  1.0000
  S   S149      1.0  0.39623  0.67592  0.91583  1.0000
  S   S150      1.0  0.43797  0.73660  0.87361  1.0000
  Fe  Fe72      1.0  0.39063  0.67011  0.77496  1.0000
  S   S151      1.0  0.37499  0.63919  0.82607  1.0000
  S   S152      1.0  0.38696  0.67090  0.69269  1.0000
  Fe  Fe73      1.0  0.35916  0.67298  0.87200  1.0000
  Fe  Fe74      1.0  0.41276  0.64422  0.86685  1.0000
  S   S153      1.0  0.43733  0.61004  0.89655  1.0000
  S   S154      1.0  0.37175  0.70384  0.81735  1.0000
  S   S155      1.0  0.42950  0.67210  0.81220  1.0000
  Fe  Fe75      1.0  0.46948  0.91179  0.95274  1.0000
  S   S156      1.0  0.43960  0.92497  0.89758  1.0000
  Fe  Fe76      1.0  0.50462  0.88456  0.87641  1.0000
  S   S157      1.0  0.47779  0.89603  0.81501  1.0000
  S   S158      1.0  0.53943  0.85623  0.86648  1.0000
  Fe  Fe77      1.0  0.47454  0.93597  0.85090  1.0000
  S   S159      1.0  0.47658  0.97836  0.82180  1.0000
  Fe  Fe78      1.0  0.44539  0.88407  0.86644  1.0000
  S   S160      1.0  0.41155  0.85869  0.84264  1.0000
  S   S161      1.0  0.50428  0.92516  0.90834  1.0000
  S   S162      1.0  0.47246  0.87021  0.92572  1.0000
  Fe  Fe79      1.0  0.59288  0.61359  0.89997  1.0000
  S   S163      1.0  0.62096  0.60046  0.84078  1.0000
  S   S164      1.0  0.55775  0.64157  0.89081  1.0000
  S   S165      1.0  0.62372  0.63426  0.94167  1.0000
  S   S166      1.0  0.59742  0.57598  0.94274  1.0000
  H   H710      1.0  0.47306  0.63288  0.63769  1.0000
  S   S167      1.0  0.65734  0.89363  0.87515  1.0000
  H   H711      1.0  0.66650  0.85881  0.53921  1.0000
  H   H712      1.0  0.48763  0.98850  0.98873  1.0000
  H   H713      1.0  0.64292  0.58101  0.50318  1.0000
  C   C601      1.0  0.44557  0.80564  0.65190  1.0000
  H   H714      1.0  0.60937  0.93405  0.67577  1.0000
  C   C602      1.0  0.58985  0.90528  0.72234  1.0000
  H   H715      1.0  0.41875  0.99153  0.50195  1.0000
  C   C603      1.0  0.47786  0.97246  0.72161  1.0000
  C   C604      1.0  0.64107  0.52822  0.76495  1.0000
  H   H716      1.0  0.47824  0.95130  0.72793  1.0000
  C   C605      1.0  0.44888  0.75882  0.67642  1.0000
  C   C606      1.0  0.57155  0.86770  0.87455  1.0000
  C   C607      1.0  0.57721  0.89462  0.87072  1.0000
  C   C608      1.0  0.60361  0.90269  0.87221  1.0000
  C   C609      1.0  0.62426  0.88389  0.87801  1.0000
  C   C610      1.0  0.61839  0.85722  0.88430  1.0000
  C   C611      1.0  0.59214  0.84913  0.88223  1.0000
  H   H717      1.0  0.56138  0.90907  0.86500  1.0000
  H   H718      1.0  0.60804  0.92339  0.86750  1.0000
  H   H719      1.0  0.63410  0.84272  0.89055  1.0000
  H   H720      1.0  0.58786  0.82836  0.88632  1.0000
  H   H721      1.0  0.56285  0.88379  0.77066  1.0000
  C   C612      1.0  0.42968  0.77012  0.86337  1.0000
  C   C613      1.0  0.44960  0.78860  0.86816  1.0000
  C   C614      1.0  0.44423  0.81560  0.86031  1.0000
  C   C615      1.0  0.41866  0.82450  0.84892  1.0000
  C   C616      1.0  0.39869  0.80596  0.84323  1.0000
  C   C617      1.0  0.40420  0.77873  0.85034  1.0000
  H   H722      1.0  0.46928  0.78203  0.87828  1.0000
  H   H723      1.0  0.45996  0.82950  0.86309  1.0000
  H   H724      1.0  0.37890  0.81264  0.83405  1.0000
  H   H725      1.0  0.38870  0.76453  0.84663  1.0000
  C   C618      1.0  0.47098  0.61826  0.89763  1.0000
  C   C619      1.0  0.47802  0.64481  0.89540  1.0000
  C   C620      1.0  0.50472  0.65150  0.89386  1.0000
  C   C621      1.0  0.52466  0.63175  0.89476  1.0000
  C   C622      1.0  0.51779  0.60513  0.89842  1.0000
  C   C623      1.0  0.49090  0.59840  0.90003  1.0000
  H   H726      1.0  0.46287  0.66029  0.89491  1.0000
  H   H727      1.0  0.50986  0.67212  0.89162  1.0000
  H   H728      1.0  0.53310  0.58978  0.89895  1.0000
  H   H729      1.0  0.48552  0.57782  0.90176  1.0000
  C   C624      1.0  0.44542  0.63622  0.57909  1.0000
  C   C625      1.0  0.41934  0.64301  0.56680  1.0000
  C   C626      1.0  0.40155  0.65311  0.60218  1.0000
  C   C627      1.0  0.40935  0.65582  0.65050  1.0000
  C   C628      1.0  0.43511  0.64800  0.66319  1.0000
  C   C629      1.0  0.45308  0.63854  0.62758  1.0000
  H   H730      1.0  0.41278  0.64014  0.53023  1.0000
  H   H731      1.0  0.38151  0.65859  0.59216  1.0000
  H   H732      1.0  0.44131  0.64947  0.70032  1.0000
  H   H733      1.0  0.62339  0.89487  0.64586  1.0000
  C   C630      1.0  0.47337  0.98656  0.95869  1.0000
  C   C631      1.0  0.47849  0.98256  0.67395  1.0000
  H   H734      1.0  0.38371  0.56856  0.93696  1.0000
  N   N41       1.0  0.35240  0.59528  0.96154  1.0000
  C   C632      1.0  0.43934  0.99603  0.51244  1.0000
  C   C633      1.0  0.36920  0.61885  0.95897  1.0000
  C   C634      1.0  0.56641  0.90167  0.75027  1.0000
  H   H735      1.0  0.48696  0.74523  0.73831  1.0000
  H   H736      1.0  0.46329  0.94905  0.51028  1.0000
  N   N42       1.0  0.44723  0.73842  0.71491  1.0000
  S   S168      1.0  0.65696  0.91570  0.55454  1.0000
  Fe  Fe80      1.0  0.65233  0.61863  0.88626  1.0000
  C   C635      1.0  0.46654  0.74395  0.75335  1.0000
  H   H737      1.0  0.35784  0.55324  0.97175  1.0000
  H   H738      1.0  0.35752  0.85247  0.89107  1.0000
  C   C636      1.0  0.42024  0.73894  0.73650  1.0000
  C   C637      1.0  0.44414  0.78597  0.68751  1.0000
  H   H739      1.0  0.64068  0.54922  0.77252  1.0000
  H   H740      1.0  0.43820  0.70510  0.66996  1.0000
  H   H741      1.0  0.64360  0.91268  0.71809  1.0000
  C   C638      1.0  0.45184  0.79893  0.60432  1.0000
  C   C639      1.0  0.45282  0.71106  0.69744  1.0000
  H   H742      1.0  0.43931  0.79222  0.72398  1.0000
  H   H743      1.0  0.45955  0.69252  0.51760  1.0000
  H   H744      1.0  0.65224  0.88071  0.74178  1.0000
  H   H745      1.0  0.38821  0.70936  0.55159  1.0000
  H   H746      1.0  0.49167  0.98584  0.52357  1.0000
  S   S169      1.0  0.67324  0.76666  0.90797  1.0000
  C   C640      1.0  0.67350  0.86381  0.57469  1.0000
  Fe  Fe81      1.0  0.62815  0.56389  0.88647  1.0000
  H   H747      1.0  0.63238  0.90322  0.77728  1.0000
  H   H748      1.0  0.56201  0.87448  0.97598  1.0000
  C   C641      1.0  0.36974  0.57140  0.96811  1.0000
  C   C642      1.0  0.62983  0.94467  0.97626  1.0000
  H   H749      1.0  0.46941  0.96513  0.95500  1.0000
  H   H750      1.0  0.47939  0.96898  0.64388  1.0000
  C   C643      1.0  0.54666  0.92154  0.75315  1.0000
  H   H751      1.0  0.53398  0.96060  0.73053  1.0000
  H   H752      1.0  0.60560  0.89386  0.98125  1.0000
  C   C644      1.0  0.63594  0.89592  0.73982  1.0000
  H   H753      1.0  0.41478  0.75834  0.75303  1.0000
  H   H754      1.0  0.52909  0.91849  0.77509  1.0000
  H   H755      1.0  0.66187  0.67248  0.93681  1.0000
  Fe  Fe82      1.0  0.63071  0.59593  0.98022  1.0000
  S   S170      1.0  0.66194  0.58112  0.92785  1.0000
  H   H756      1.0  0.35686  0.63724  0.95457  1.0000
  H   H757      1.0  0.57406  0.96793  0.68064  1.0000
  H   H758      1.0  0.45941  0.73262  0.61550  1.0000
  S   S171      1.0  0.62876  0.52054  0.86211  1.0000
  H   H759      1.0  0.65003  0.53340  0.68912  1.0000
  H   H760      1.0  0.59850  0.87042  0.65081  1.0000
  H   H761      1.0  0.61591  0.95719  0.95452  1.0000
  H   H762      1.0  0.44333  0.98626  0.54794  1.0000
  H   H763      1.0  0.38329  0.61766  0.92789  1.0000
  H   H764      1.0  0.63345  0.92589  0.95613  1.0000
  N   N43       1.0  0.44865  0.00217  0.96827  1.0000
  H   H765      1.0  0.42200  0.70041  0.55986  1.0000
  H   H766      1.0  0.41185  0.73477  0.56111  1.0000
  C   C645      1.0  0.47681  0.98979  0.76088  1.0000
  C   C646      1.0  0.43101  0.00011  0.92599  1.0000
  H   H767      1.0  0.35391  0.59080  0.88389  1.0000
  H   H768      1.0  0.44092  0.00588  0.89157  1.0000
  C   C647      1.0  0.59206  0.92984  0.69751  1.0000
  S   S172      1.0  0.66945  0.82553  0.81379  1.0000
  C   C648      1.0  0.54942  0.94533  0.72817  1.0000
  N   N44       1.0  0.61154  0.88504  0.71926  1.0000
  H   H769      1.0  0.46674  0.72822  0.78181  1.0000
  H   H770      1.0  0.47318  0.70874  0.68217  1.0000
  C   C649      1.0  0.57204  0.94944  0.70026  1.0000
  H   H771      1.0  0.62244  0.84531  0.74244  1.0000
  H   H772      1.0  0.40502  0.73435  0.70917  1.0000
  H   H773      1.0  0.41854  0.72411  0.76609  1.0000
  H   H774      1.0  0.46178  0.76276  0.77261  1.0000
  C   C650      1.0  0.45529  0.75263  0.62747  1.0000
  N   N45       1.0  0.59468  0.71439  0.84438  1.0000
  C   C651      1.0  0.58814  0.69286  0.81052  1.0000
  C   C652      1.0  0.62046  0.72505  0.82836  1.0000
  C   C653      1.0  0.59837  0.70281  0.89324  1.0000
  C   C654      1.0  0.57293  0.73462  0.84607  1.0000
  C   C655      1.0  0.57708  0.76208  0.83790  1.0000
  C   C656      1.0  0.54668  0.72720  0.85772  1.0000
  C   C657      1.0  0.55612  0.78067  0.84068  1.0000
  C   C658      1.0  0.52588  0.74599  0.86040  1.0000
  C   C659      1.0  0.53064  0.77269  0.85192  1.0000
  H   H775      1.0  0.58432  0.70080  0.77363  1.0000
  H   H776      1.0  0.60447  0.67764  0.80785  1.0000
  H   H777      1.0  0.57046  0.68182  0.82225  1.0000
  H   H778      1.0  0.61922  0.73409  0.79171  1.0000
  H   H779      1.0  0.63620  0.70920  0.82653  1.0000
  H   H780      1.0  0.62773  0.74007  0.85402  1.0000
  H   H781      1.0  0.58032  0.69300  0.90690  1.0000
  H   H782      1.0  0.61447  0.68736  0.89335  1.0000
  H   H783      1.0  0.60360  0.71827  0.91977  1.0000
  H   H784      1.0  0.59637  0.76982  0.82995  1.0000
  H   H785      1.0  0.54215  0.70679  0.86563  1.0000
  H   H786      1.0  0.55963  0.80157  0.83479  1.0000
  H   H787      1.0  0.50601  0.73987  0.86981  1.0000
  H   H788      1.0  0.51470  0.78740  0.85470  1.0000
  C   C660      1.0  0.61664  0.87786  0.66802  1.0000
  H   H789      1.0  0.48341  0.99256  0.92458  1.0000
  C   C661      1.0  0.66781  0.71396  0.92421  1.0000
  C   C662      1.0  0.60586  0.86018  0.74591  1.0000
  H   H790      1.0  0.63251  0.86224  0.66447  1.0000
  H   H791      1.0  0.45136  0.69623  0.72713  1.0000
  H   H792      1.0  0.64993  0.53551  0.53195  1.0000
  H   H793      1.0  0.45299  0.81428  0.57685  1.0000
  H   H794      1.0  0.42638  0.79371  0.97402  1.0000
  C   C663      1.0  0.67174  0.89011  0.59032  1.0000
  H   H795      1.0  0.65755  0.72003  0.95693  1.0000
  H   H796      1.0  0.58779  0.85074  0.73219  1.0000
  C   C664      1.0  0.40872  0.71556  0.54288  1.0000
  H   H797      1.0  0.60329  0.86388  0.78521  1.0000
  H   H798      1.0  0.55505  0.61291  0.98452  1.0000
  H   H799      1.0  0.44186  0.82625  0.66135  1.0000
  C   C665      1.0  0.64635  0.51917  0.71763  1.0000
  H   H800      1.0  0.64922  0.95465  0.97679  1.0000
  C   C666      1.0  0.45674  0.77251  0.59216  1.0000
  H   H801      1.0  0.38149  0.62120  0.99158  1.0000
  H   H802      1.0  0.46185  0.76745  0.55511  1.0000
  H   H803      1.0  0.42448  0.97948  0.92061  1.0000
  C   C667      1.0  0.66977  0.68702  0.91241  1.0000
  H   H804      1.0  0.34950  0.85523  0.80551  1.0000
  C   C668      1.0  0.63634  0.51011  0.80227  1.0000
  H   H805      1.0  0.50480  0.70470  0.49910  1.0000
  C   C669      1.0  0.46247  0.71061  0.49724  1.0000
  C   C670      1.0  0.65355  0.53963  0.49409  1.0000
  Fe  Fe83      1.0  0.96583  0.43065  0.33858  1.0000
  H   H806      1.0  0.77725  0.43696  0.99667  1.0000
  S   S173      1.0  0.94915  0.46932  0.30636  1.0000
  Fe  Fe84      1.0  0.95637  0.37120  0.34636  1.0000
  S   S174      1.0  0.99100  0.36313  0.39511  1.0000
  S   S175      1.0  0.92832  0.34203  0.31444  1.0000
  H   H807      1.0  0.93799  0.02076  0.39040  1.0000
  C   C671      1.0  0.83021  0.26832  0.45635  1.0000
  S   S176      1.0  0.94042  0.40618  0.38842  1.0000
  S   S177      1.0  0.97903  0.39605  0.29366  1.0000
  S   S178      1.0  0.98792  0.11524  0.01734  1.0000
  Fe  Fe85      1.0  0.92336  0.18796  0.33662  1.0000
  S   S179      1.0  0.90845  0.15739  0.38881  1.0000
  S   S180      1.0  0.94445  0.22123  0.37269  1.0000
  Fe  Fe86      1.0  0.90514  0.15777  0.24778  1.0000
  S   S181      1.0  0.88836  0.12532  0.29389  1.0000
  S   S182      1.0  0.89887  0.15669  0.16616  1.0000
  Fe  Fe87      1.0  0.87214  0.15762  0.34287  1.0000
  S   S183      1.0  0.82872  0.16195  0.36694  1.0000
  Fe  Fe88      1.0  0.92613  0.12821  0.33570  1.0000
  S   S184      1.0  0.95208  0.09249  0.35430  1.0000
  S   S185      1.0  0.88613  0.19011  0.29340  1.0000
  S   S186      1.0  0.94381  0.15878  0.28689  1.0000
  Fe  Fe89      1.0  0.74295  0.34644  0.12114  1.0000
  S   S187      1.0  0.73306  0.31725  0.18072  1.0000
  S   S188      1.0  0.78442  0.35277  0.08937  1.0000
  H   H808      1.0  0.74936  0.13861  0.08673  1.0000
  Fe  Fe90      1.0  0.71328  0.35183  0.21965  1.0000
  S   S189      1.0  0.71982  0.35799  0.30050  1.0000
  N   N46       1.0  0.73864  0.42129  0.01124  1.0000
  H   H809      1.0  0.90358  0.21055  0.44761  1.0000
  S   S190      1.0  0.72633  0.38113  0.16333  1.0000
  S   S191      1.0  0.70538  0.33997  0.08052  1.0000
  H   H810      1.0  0.86671  0.33282  0.20455  1.0000
  C   C672      1.0  0.67720  0.47314  0.44293  1.0000
  C   C673      1.0  0.98107  0.48465  0.17276  1.0000
  C   C674      1.0  0.89866  0.23079  0.01067  1.0000
  C   C675      1.0  0.78850  0.16721  0.43472  1.0000
  C   C676      1.0  0.73648  0.25931  0.44345  1.0000
  S   S192      1.0  0.69935  0.15594  0.13079  1.0000
  H   H811      1.0  0.82961  0.34901  0.15376  1.0000
  C   C677      1.0  0.70473  0.23618  0.13250  1.0000
  C   C678      1.0  0.71125  0.20886  0.13157  1.0000
  C   C679      1.0  0.69137  0.19002  0.13607  1.0000
  C   C680      1.0  0.82209  0.14466  0.12759  1.0000
  N   N47       1.0  0.94277  0.20754  0.99781  1.0000
  H   H812      1.0  0.71997  0.25063  0.12758  1.0000
  H   H813      1.0  0.73161  0.20233  0.12625  1.0000
  H   H814      1.0  0.75421  0.25715  0.42127  1.0000
  C   C681      1.0  0.70418  0.37923  0.38783  1.0000
  H   H815      1.0  0.85825  0.25208  0.37425  1.0000
  C   C682      1.0  0.77517  0.14562  0.14649  1.0000
  C   C683      1.0  0.81571  0.16193  0.42708  1.0000
  C   C684      1.0  0.72107  0.28271  0.44134  1.0000
  H   H816      1.0  0.72410  0.37417  0.39918  1.0000
  Fe  Fe91      1.0  0.69408  0.31355  0.14293  1.0000
  H   H817      1.0  0.69217  0.39486  0.45756  1.0000
  C   C685      1.0  0.81637  0.13941  0.07930  1.0000
  H   H818      1.0  0.71766  0.43066  0.07811  1.0000
  H   H819      1.0  0.77585  0.17088  0.40401  1.0000
  H   H820      1.0  0.74466  0.45189  0.06361  1.0000
  H   H821      1.0  0.96843  0.14148  0.39642  1.0000
  H   H822      1.0  0.72788  0.29835  0.41786  1.0000
  H   H823      1.0  0.83854  0.15979  0.26404  1.0000
  C   C686      1.0  0.96241  0.12543  0.05841  1.0000
  C   C687      1.0  0.96885  0.12980  0.10696  1.0000
  C   C688      1.0  0.94951  0.13879  0.14051  1.0000
  C   C689      1.0  0.92342  0.14356  0.12588  1.0000
  C   C690      1.0  0.91682  0.13875  0.07750  1.0000
  C   C691      1.0  0.93615  0.12955  0.04401  1.0000
  H   H824      1.0  0.98902  0.12643  0.11864  1.0000
  H   H825      1.0  0.95491  0.14232  0.17758  1.0000
  H   H826      1.0  0.89665  0.14208  0.06588  1.0000
  H   H827      1.0  0.95279  0.21746  0.07081  1.0000
  C   C692      1.0  0.82450  0.35362  0.02144  1.0000
  C   C693      1.0  0.79746  0.34912  0.02974  1.0000
  C   C694      1.0  0.83913  0.39004  0.16151  1.0000
  H   H828      1.0  0.83691  0.35874  0.05142  1.0000
  C   C695      1.0  0.95837  0.48471  0.25084  1.0000
  C   C696      1.0  0.93304  0.30840  0.33014  1.0000
  C   C697      1.0  0.91898  0.28898  0.30584  1.0000
  C   C698      1.0  0.92256  0.26202  0.31783  1.0000
  C   C699      1.0  0.94005  0.25448  0.35453  1.0000
  C   C700      1.0  0.95382  0.27392  0.37911  1.0000
  C   C701      1.0  0.95039  0.30076  0.36689  1.0000
  H   H829      1.0  0.90550  0.29480  0.27737  1.0000
  H   H830      1.0  0.91191  0.24714  0.29862  1.0000
  H   H831      1.0  0.96718  0.26823  0.40787  1.0000
  H   H832      1.0  0.96104  0.31554  0.38623  1.0000
  H   H833      1.0  0.96607  0.03566  0.36259  1.0000
  C   C702      1.0  0.97522  0.47213  0.21720  1.0000
  H   H834      1.0  0.98361  0.45271  0.22527  1.0000
  H   H835      1.0  0.84400  0.17262  0.20461  1.0000
  H   H836      1.0  0.95948  0.18341  0.05519  1.0000
  C   C703      1.0  0.68396  0.19053  0.00026  1.0000
  H   H837      1.0  0.68073  0.45284  0.45804  1.0000
  H   H838      1.0  0.69410  0.32343  0.39501  1.0000
  H   H839      1.0  0.83236  0.13681  0.05320  1.0000
  C   C704      1.0  0.00318  0.03136  0.22261  1.0000
  Fe  Fe92      1.0  0.68825  0.37271  0.12647  1.0000
  H   H840      1.0  0.68705  0.43910  0.02231  1.0000
  N   N48       1.0  0.89591  0.41806  0.23463  1.0000
  C   C705      1.0  0.92341  0.41206  0.21811  1.0000
  C   C706      1.0  0.89000  0.44641  0.22348  1.0000
  C   C707      1.0  0.89456  0.41480  0.28789  1.0000
  C   C708      1.0  0.87760  0.39958  0.21164  1.0000
  C   C709      1.0  0.88088  0.37184  0.21885  1.0000
  H   H841      1.0  0.71520  0.33658  0.46895  1.0000
  H   H842      1.0  0.85195  0.42888  0.17451  1.0000
  H   H843      1.0  0.68433  0.03207  0.42558  1.0000
  H   H844      1.0  0.85275  0.21762  0.38639  1.0000
  H   H845      1.0  0.93758  0.42627  0.23336  1.0000
  H   H846      1.0  0.93050  0.39198  0.22959  1.0000
  H   H847      1.0  0.92510  0.41315  0.17805  1.0000
  H   H848      1.0  0.89164  0.45057  0.18406  1.0000
  H   H849      1.0  0.90422  0.45967  0.24137  1.0000
  H   H850      1.0  0.86998  0.45268  0.23680  1.0000
  H   H851      1.0  0.90712  0.42930  0.30659  1.0000
  H   H852      1.0  0.87394  0.41769  0.30165  1.0000
  H   H853      1.0  0.90166  0.39482  0.29995  1.0000
  H   H854      1.0  0.89668  0.36377  0.24086  1.0000
  H   H855      1.0  0.96320  0.49313  0.01417  1.0000
  H   H856      1.0  0.92644  0.19452  0.06655  1.0000
  C   C710      1.0  0.88378  0.21420  0.46481  1.0000
  C   C711      1.0  0.72661  0.39487  0.01033  1.0000
  C   C712      1.0  0.69686  0.33220  0.48967  1.0000
  Fe  Fe93      1.0  0.97657  0.39984  0.43415  1.0000
  C   C713      1.0  0.98490  0.12741  0.39776  1.0000
  H   H857      1.0  0.99865  0.18915  0.35013  1.0000
  H   H858      1.0  0.84282  0.14592  0.13632  1.0000
  C   C714      1.0  0.85613  0.40823  0.18211  1.0000
  C   C715      1.0  0.76695  0.41775  0.99703  1.0000
  H   H859      1.0  0.88557  0.22905  0.37417  1.0000
  H   H860      1.0  0.84697  0.13744  0.21651  1.0000
  H   H861      1.0  0.87231  0.19616  0.45759  1.0000
  H   H862      1.0  0.97968  0.22809  0.99602  1.0000
  H   H863      1.0  0.75654  0.17194  0.48708  1.0000
  H   H864      1.0  0.00156  0.33743  0.16672  1.0000
  C   C716      1.0  0.98230  0.10194  0.37922  1.0000
  H   H865      1.0  0.79736  0.18274  0.26820  1.0000
  N   N49       1.0  0.87036  0.23840  0.44508  1.0000
  C   C717      1.0  0.86650  0.23416  0.39273  1.0000
  H   H866      1.0  0.82273  0.39682  0.13926  1.0000
  H   H867      1.0  0.70582  0.39546  0.02394  1.0000
  H   H868      1.0  0.88974  0.26645  0.49017  1.0000
  C   C718      1.0  0.69744  0.28588  0.46917  1.0000
  H   H869      1.0  0.76089  0.33903  0.99629  1.0000
  H   H870      1.0  0.73772  0.38045  0.03359  1.0000
  H   H871      1.0  0.75056  0.41869  0.08598  1.0000
  H   H872      1.0  0.88249  0.27866  0.43037  1.0000
  H   H873      1.0  0.00213  0.05940  0.28076  1.0000
  H   H874      1.0  0.98348  0.03702  0.21042  1.0000
  H   H875      1.0  0.85253  0.15227  0.46201  1.0000
  N   N50       1.0  0.68164  0.31097  0.46698  1.0000
  H   H876      1.0  0.99823  0.33413  0.07767  1.0000
  C   C719      1.0  0.88852  0.26076  0.45150  1.0000
  C   C720      1.0  0.83172  0.15697  0.46720  1.0000
  H   H877      1.0  0.79892  0.19491  0.20695  1.0000
  C   C721      1.0  0.73784  0.43114  0.06172  1.0000
  C   C722      1.0  0.67830  0.24464  0.13806  1.0000
  H   H878      1.0  0.78590  0.13307  0.02721  1.0000
  H   H879      1.0  0.00212  0.06419  0.36700  1.0000
  H   H880      1.0  0.86131  0.25196  0.01954  1.0000
  H   H881      1.0  0.80659  0.11167  0.23314  1.0000
  H   H882      1.0  0.79536  0.29303  0.46848  1.0000
  C   C723      1.0  0.69675  0.37413  0.33999  1.0000
  H   H883      1.0  0.77102  0.17659  0.22785  1.0000
  H   H884      1.0  0.77525  0.12865  0.24153  1.0000
  C   C724      1.0  0.79025  0.13727  0.06461  1.0000
  C   C725      1.0  0.83530  0.15585  0.22510  1.0000
  C   C726      1.0  0.84443  0.24460  0.46833  1.0000
  C   C727      1.0  0.95928  0.02494  0.39549  1.0000
  C   C728      1.0  0.86380  0.35389  0.19815  1.0000
  C   C729      1.0  0.72925  0.23873  0.47419  1.0000
  H   H885      1.0  0.99527  0.03104  0.47571  1.0000
  H   H886      1.0  0.90899  0.25562  0.43884  1.0000
  C   C730      1.0  0.80155  0.14793  0.16281  1.0000
  C   C731      1.0  0.76971  0.14039  0.09813  1.0000
  H   H887      1.0  0.77787  0.40443  0.02271  1.0000
  H   H888      1.0  0.80129  0.13363  0.28342  1.0000
  S   S193      1.0  0.00079  0.42760  0.38807  1.0000
  H   H889      1.0  0.96021  0.03906  0.42606  1.0000
  H   H890      1.0  0.75843  0.14766  0.17099  1.0000
  N   N51       1.0  0.80679  0.15304  0.21444  1.0000
  C   C732      1.0  0.79289  0.17787  0.22990  1.0000
  C   C733      1.0  0.79701  0.13080  0.24433  1.0000
  C   C734      1.0  0.94543  0.20052  0.04973  1.0000
  H   H891      1.0  0.83794  0.28208  0.43001  1.0000
  H   H892      1.0  0.93074  0.12550  0.00714  1.0000
  C   C735      1.0  0.68607  0.39080  0.42108  1.0000
  C   C736      1.0  0.84294  0.36297  0.16958  1.0000
  H   H893      1.0  0.89123  0.21349  0.02896  1.0000
  H   H894      1.0  0.74133  0.22069  0.47611  1.0000
  C   C737      1.0  0.77745  0.16780  0.48182  1.0000
  H   H895      1.0  0.99394  0.47464  0.14687  1.0000
  H   H896      1.0  0.99939  0.23784  0.35549  1.0000
  H   H897      1.0  0.70266  0.19979  0.01153  1.0000
  C   C738      1.0  0.80575  0.27470  0.47797  1.0000
  C   C739      1.0  0.00387  0.08389  0.38117  1.0000
  H   H898      1.0  0.69637  0.47943  0.42708  1.0000
  C   C740      1.0  0.67603  0.31844  0.41600  1.0000
  C   C741      1.0  0.88135  0.25266  0.00533  1.0000
  H   H899      1.0  0.68502  0.35102  0.49244  1.0000
  H   H900      1.0  0.67562  0.18053  0.03279  1.0000
  S   S194      1.0  0.97936  0.40337  0.51627  1.0000
  Fe  Fe94      1.0  0.90831  0.35056  0.75488  1.0000
  S   S195      1.0  0.88970  0.38137  0.80425  1.0000
  S   S196      1.0  0.90577  0.34652  0.67288  1.0000
  Fe  Fe95      1.0  0.92945  0.31786  0.83996  1.0000
  S   S197      1.0  0.91292  0.34565  0.89638  1.0000
  S   S198      1.0  0.95788  0.28385  0.85460  1.0000
  Fe  Fe96      1.0  0.87616  0.34724  0.85097  1.0000
  S   S199      1.0  0.83311  0.34198  0.87572  1.0000
  Fe  Fe97      1.0  0.92773  0.37736  0.84630  1.0000
  S   S200      1.0  0.95341  0.41040  0.87213  1.0000
  S   S201      1.0  0.89192  0.31667  0.79815  1.0000
  S   S202      1.0  0.94689  0.34939  0.79341  1.0000
  Fe  Fe98      1.0  0.95705  0.13907  0.84911  1.0000
  S   S203      1.0  0.98659  0.15612  0.89905  1.0000
  S   S204      1.0  0.92222  0.16578  0.83051  1.0000
  Fe  Fe99      1.0  0.98852  0.08701  0.83728  1.0000
  C   C742      1.0  0.98877  0.37070  0.89856  1.0000
  H   H901      1.0  0.68113  0.18789  0.89448  1.0000
  Fe  Fe100     1.0  0.98649  0.11634  0.93498  1.0000
  H   H902      1.0  0.72797  0.47609  0.87412  1.0000
  S   S205      1.0  0.95504  0.09975  0.88781  1.0000
  S   S206      1.0  0.98713  0.12488  0.79452  1.0000
  H   H903      1.0  0.96813  0.18544  0.70162  1.0000
  H   H904      1.0  0.68192  0.48852  0.89694  1.0000
  H   H905      1.0  0.72648  0.38675  0.97307  1.0000
  C   C743      1.0  0.73430  0.45052  0.93602  1.0000
  H   H906      1.0  0.97612  0.30243  0.75053  1.0000
  Fe  Fe101     1.0  0.73901  0.16573  0.61287  1.0000
  S   S207      1.0  0.72746  0.19569  0.67028  1.0000
  S   S208      1.0  0.78139  0.16627  0.58244  1.0000
  C   C744      1.0  0.83233  0.22743  0.50241  1.0000
  H   H907      1.0  0.76929  0.40821  0.96101  1.0000
  S   S209      1.0  0.70078  0.35110  0.62779  1.0000
  C   C745      1.0  0.68695  0.49210  0.51976  1.0000
  Fe  Fe102     1.0  0.71071  0.16152  0.71257  1.0000
  S   S210      1.0  0.71779  0.15560  0.79337  1.0000
  H   H908      1.0  0.80178  0.25774  0.70026  1.0000
  S   S211      1.0  0.72524  0.13132  0.65831  1.0000
  C   C746      1.0  0.82074  0.15786  0.51429  1.0000
  C   C747      1.0  0.96254  0.47531  0.92255  1.0000
  C   C748      1.0  0.70050  0.13495  0.88024  1.0000
  C   C749      1.0  0.92732  0.03221  0.78595  1.0000
  C   C750      1.0  0.68127  0.12731  0.91458  1.0000
  C   C751      1.0  0.96385  0.22801  0.69713  1.0000
  H   H909      1.0  0.83338  0.15423  0.54504  1.0000
  H   H910      1.0  0.72128  0.13301  0.88896  1.0000
  H   H911      1.0  0.76684  0.26254  0.84449  1.0000
  C   C752      1.0  0.89320  0.04403  0.72912  1.0000
  H   H912      1.0  0.70105  0.22560  0.52730  1.0000
  C   C753      1.0  0.69021  0.31816  0.63024  1.0000
  S   S212      1.0  0.70056  0.17016  0.57290  1.0000
  C   C754      1.0  0.79287  0.34072  0.94370  1.0000
  H   H913      1.0  0.83007  0.28761  0.73719  1.0000
  H   H914      1.0  0.67915  0.26405  0.96701  1.0000
  H   H915      1.0  0.93527  0.27671  0.75850  1.0000
  H   H916      1.0  0.98284  0.19345  0.98381  1.0000
  C   C755      1.0  0.93141  0.18492  0.97194  1.0000
  H   H917      1.0  0.75543  0.21623  0.83871  1.0000
  C   C756      1.0  0.69504  0.22087  0.85468  1.0000
  H   H918      1.0  0.71477  0.25454  0.62381  1.0000
  C   C757      1.0  0.97349  0.30214  0.71058  1.0000
  H   H919      1.0  0.78946  0.21128  0.69686  1.0000
  C   C758      1.0  0.83574  0.35148  0.97470  1.0000
  C   C759      1.0  0.79358  0.16336  0.52199  1.0000
  H   H920      1.0  0.78042  0.33584  0.91374  1.0000
  C   C760      1.0  0.94698  0.25165  0.84457  1.0000
  C   C761      1.0  0.96594  0.23141  0.83760  1.0000
  C   C762      1.0  0.95820  0.20532  0.83071  1.0000
  C   C763      1.0  0.93146  0.19910  0.83234  1.0000
  C   C764      1.0  0.91232  0.21946  0.83828  1.0000
  C   C765      1.0  0.92007  0.24581  0.84414  1.0000
  H   H921      1.0  0.98671  0.23592  0.83719  1.0000
  H   H922      1.0  0.97303  0.19003  0.82377  1.0000
  H   H923      1.0  0.89157  0.21473  0.83957  1.0000
  H   H924      1.0  0.90532  0.26139  0.84984  1.0000
  C   C766      1.0  0.98479  0.39781  0.88981  1.0000
  C   C767      1.0  0.97711  0.20426  0.70896  1.0000
  H   H925      1.0  0.97261  0.35731  0.89454  1.0000
  C   C768      1.0  0.95890  0.38704  0.55918  1.0000
  C   C769      1.0  0.93882  0.37021  0.54519  1.0000
  C   C770      1.0  0.92283  0.35793  0.58043  1.0000
  C   C771      1.0  0.92666  0.36231  0.63000  1.0000
  C   C772      1.0  0.94695  0.37886  0.64403  1.0000
  C   C773      1.0  0.96294  0.39115  0.60879  1.0000
  H   H926      1.0  0.93546  0.36686  0.50721  1.0000
  H   H927      1.0  0.90719  0.34521  0.56914  1.0000
  H   H928      1.0  0.95014  0.38246  0.68199  1.0000
  H   H929      1.0  0.97836  0.40413  0.62007  1.0000
  C   C774      1.0  0.98174  0.03824  0.66158  1.0000
  C   C775      1.0  0.98380  0.04910  0.70825  1.0000
  C   C776      1.0  0.98778  0.01129  0.65315  1.0000
  C   C777      1.0  0.97468  0.25296  0.70787  1.0000
  Fe  Fe103     1.0  0.68821  0.19762  0.63324  1.0000
  H   H930      1.0  0.76618  0.19043  0.76553  1.0000
  H   H931      1.0  0.83083  0.28511  0.80194  1.0000
  C   C778      1.0  0.00169  0.20459  0.73109  1.0000
  C   C779      1.0  0.81998  0.34500  0.93547  1.0000
  H   H932      1.0  0.99311  0.30408  0.69257  1.0000
  N   N52       1.0  0.97340  0.50067  0.93948  1.0000
  H   H933      1.0  0.78771  0.32902  0.81642  1.0000
  C   C780      1.0  0.99242  0.03316  0.74678  1.0000
  H   H934      1.0  0.92773  0.18996  0.93333  1.0000
  H   H935      1.0  0.70279  0.32659  0.52710  1.0000
  H   H936      1.0  0.82745  0.31685  0.77322  1.0000
  H   H937      1.0  0.79883  0.22028  0.54909  1.0000
  C   C781      1.0  0.90959  0.05093  0.76690  1.0000
  H   H938      1.0  0.87940  0.05868  0.71439  1.0000
  C   C782      1.0  0.70042  0.27072  0.62665  1.0000
  H   H939      1.0  0.76068  0.30698  0.82122  1.0000
  H   H940      1.0  0.67962  0.50298  0.55230  1.0000
  N   N53       1.0  0.96005  0.27781  0.69520  1.0000
  C   C783      1.0  0.69307  0.14496  0.83467  1.0000
  C   C784      1.0  0.95661  0.27953  0.64212  1.0000
  C   C785      1.0  0.93353  0.27813  0.71862  1.0000
  S   S213      1.0  0.67622  0.41814  0.56942  1.0000
  H   H941      1.0  0.94463  0.26318  0.62809  1.0000
  H   H942      1.0  0.68922  0.17458  0.97408  1.0000
  H   H943      1.0  0.97522  0.05076  0.63194  1.0000
  H   H944      1.0  0.90864  0.07084  0.78144  1.0000
  H   H945      1.0  0.68730  0.11939  0.94928  1.0000
  C   C786      1.0  0.68429  0.20891  0.89580  1.0000
  H   H946      1.0  0.69963  0.20902  0.82289  1.0000
  H   H947      1.0  0.77560  0.26244  0.52828  1.0000
  H   H948      1.0  0.96956  0.21501  0.93837  1.0000
  H   H949      1.0  0.88137  0.01399  0.68104  1.0000
  H   H950      1.0  0.94622  0.29841  0.63135  1.0000
  C   C787      1.0  0.68309  0.25120  0.93655  1.0000
  H   H951      1.0  0.92218  0.29673  0.71036  1.0000
  C   C788      1.0  0.71935  0.46787  0.90679  1.0000
  S   S214      1.0  0.99631  0.04563  0.80609  1.0000
  H   H952      1.0  0.94487  0.22664  0.67995  1.0000
  H   H953      1.0  0.79207  0.29941  0.85044  1.0000
  H   H954      1.0  0.72971  0.30114  0.62653  1.0000
  C   C789      1.0  0.69078  0.26455  0.50042  1.0000
  H   H955      1.0  0.70559  0.50141  0.50747  1.0000
  C   C790      1.0  0.69337  0.47486  0.91948  1.0000
  H   H956      1.0  0.91238  0.17862  0.98811  1.0000
  C   C791      1.0  0.70883  0.29707  0.62811  1.0000
  N   N54       1.0  0.79213  0.29362  0.77318  1.0000
  C   C792      1.0  0.78051  0.30780  0.73094  1.0000
  C   C793      1.0  0.78256  0.30767  0.81728  1.0000
  C   C794      1.0  0.82133  0.29581  0.77109  1.0000
  C   C795      1.0  0.78508  0.26531  0.77215  1.0000
  C   C796      1.0  0.77205  0.25247  0.81132  1.0000
  C   C797      1.0  0.79146  0.24957  0.73106  1.0000
  C   C798      1.0  0.76540  0.22577  0.80867  1.0000
  C   C799      1.0  0.78466  0.22292  0.72882  1.0000
  C   C800      1.0  0.77157  0.21108  0.76747  1.0000
  H   H957      1.0  0.75867  0.30537  0.72965  1.0000
  H   H958      1.0  0.78425  0.32945  0.73199  1.0000
  H   H959      1.0  0.78896  0.30070  0.69601  1.0000
  Fe  Fe104     1.0  0.68587  0.13828  0.62271  1.0000
  H   H960      1.0  0.88706  0.21583  0.50433  1.0000
  C   C801      1.0  0.95915  0.50790  0.98493  1.0000
  H   H961      1.0  0.97885  0.06979  0.71433  1.0000
  H   H962      1.0  0.96860  0.45849  0.94659  1.0000
  C   C802      1.0  0.93286  0.25463  0.96835  1.0000
  H   H963      1.0  0.96175  0.32042  0.70103  1.0000
  H   H964      1.0  0.84131  0.20876  0.51329  1.0000
  H   H965      1.0  0.94497  0.16722  0.97249  1.0000
  H   H966      1.0  0.92108  0.26166  0.70680  1.0000
  H   H967      1.0  0.96905  0.47007  0.88529  1.0000
  H   H968      1.0  0.69767  0.28405  0.89485  1.0000
  H   H969      1.0  0.70773  0.25711  0.82199  1.0000
  H   H970      1.0  0.68306  0.04400  0.51106  1.0000
  C   C803      1.0  0.78167  0.34265  0.99053  1.0000
  H   H971      1.0  0.94014  0.03773  0.81525  1.0000
  H   H972      1.0  0.75426  0.44599  0.92394  1.0000
  H   H973      1.0  0.97609  0.27873  0.62299  1.0000
  C   C804      1.0  0.89457  0.01839  0.71020  1.0000
  C   C805      1.0  0.72349  0.43968  0.97927  1.0000
  H   H974      1.0  0.95229  0.25675  0.95244  1.0000
  H   H975      1.0  0.85658  0.35492  0.96903  1.0000
  C   C806      1.0  0.69969  0.24791  0.85423  1.0000
  H   H976      1.0  0.69206  0.47172  0.53272  1.0000
  C   C807      1.0  0.69393  0.26301  0.89520  1.0000
  C   C808      1.0  0.68212  0.46434  0.96125  1.0000
  C   C809      1.0  0.99980  0.25258  0.73069  1.0000
  C   C810      1.0  0.92500  0.23111  0.99238  1.0000
  C   C811      1.0  0.79459  0.25754  0.51160  1.0000
  H   H977      1.0  0.92186  0.29386  0.94410  1.0000
  C   C812      1.0  0.00600  0.41489  0.89536  1.0000
  C   C813      1.0  0.96986  0.21136  0.97809  1.0000
  H   H978      1.0  0.94052  0.47591  0.92152  1.0000
  C   C814      1.0  0.00246  0.49796  0.94517  1.0000
  C   C815      1.0  0.80776  0.23388  0.52350  1.0000
  C   C816      1.0  0.91539  0.27633  0.96313  1.0000
  H   H979      1.0  0.00325  0.43572  0.88798  1.0000
  C   C817      1.0  0.70655  0.24145  0.50281  1.0000
  H   H980      1.0  0.87621  0.29228  0.97701  1.0000
  C   C818      1.0  0.67752  0.22372  0.93770  1.0000
  C   C819      1.0  0.88969  0.27539  0.98150  1.0000
  C   C820      1.0  0.69680  0.44688  0.99055  1.0000
  H   H981      1.0  0.89187  0.63272  0.39949  1.0000
  H   H982      1.0  0.95038  0.97785  0.35677  1.0000
  H   H983      1.0  0.89976  0.81777  0.36001  1.0000
  Fe  Fe105     1.0  0.73272  0.69912  0.34284  1.0000
  S   S215      1.0  0.72920  0.71002  0.26392  1.0000
  S   S216      1.0  0.76782  0.71681  0.38171  1.0000
  Fe  Fe106     1.0  0.68783  0.72271  0.28250  1.0000
  H   H984      1.0  0.84858  0.83537  0.01882  1.0000
  Fe  Fe107     1.0  0.71223  0.66984  0.25303  1.0000
  S   S217      1.0  0.72193  0.64779  0.18367  1.0000
  S   S218      1.0  0.69180  0.71476  0.36185  1.0000
  S   S219      1.0  0.71979  0.65724  0.33016  1.0000
  H   H985      1.0  0.93458  0.51988  0.26521  1.0000
  H   H986      1.0  0.80922  0.73730  0.43912  1.0000
  H   H987      1.0  0.82564  0.84216  0.26532  1.0000
  C   C821      1.0  0.71589  0.76148  0.12021  1.0000
  S   S220      1.0  0.70293  0.86365  0.35174  1.0000
  C   C822      1.0  0.78464  0.70330  0.43243  1.0000
  S   S221      1.0  0.97288  0.60393  0.11845  1.0000
  C   C823      1.0  0.85220  0.71743  0.01572  1.0000
  S   S222      1.0  0.93308  0.58020  0.03514  1.0000
  Fe  Fe108     1.0  0.93862  0.61877  0.07388  1.0000
  S   S223      1.0  0.90380  0.64375  0.09974  1.0000
  Fe  Fe109     1.0  0.96948  0.56639  0.07571  1.0000
  H   H988      1.0  0.76163  0.88140  0.25687  1.0000
  S   S224      1.0  0.96354  0.63621  0.01533  1.0000
  C   C824      1.0  0.78715  0.80981  0.02729  1.0000
  Fe  Fe110     1.0  0.86511  0.81436  0.12949  1.0000
  S   S225      1.0  0.87125  0.80088  0.20652  1.0000
  S   S226      1.0  0.82452  0.80585  0.09858  1.0000
  Fe  Fe111     1.0  0.92128  0.83471  0.12219  1.0000
  S   S227      1.0  0.93132  0.82358  0.19843  1.0000
  S   S228      1.0  0.95281  0.84724  0.06894  1.0000
  Fe  Fe112     1.0  0.91107  0.78585  0.18185  1.0000
  S   S229      1.0  0.93329  0.74918  0.20685  1.0000
  Fe  Fe113     1.0  0.89089  0.83978  0.21729  1.0000
  S   S230      1.0  0.88030  0.85916  0.28898  1.0000
  S   S231      1.0  0.90360  0.79560  0.10419  1.0000
  S   S232      1.0  0.88204  0.85457  0.14188  1.0000
  S   S233      1.0  0.96801  0.91588  0.41186  1.0000
  C   C825      1.0  0.90500  0.87450  0.32303  1.0000
  C   C826      1.0  0.92871  0.88236  0.30158  1.0000
  C   C827      1.0  0.94784  0.89488  0.32941  1.0000
  C   C828      1.0  0.94370  0.89920  0.37905  1.0000
  C   C829      1.0  0.92021  0.89086  0.40075  1.0000
  C   C830      1.0  0.90082  0.87881  0.37269  1.0000
  H   H989      1.0  0.93210  0.87931  0.26333  1.0000
  H   H990      1.0  0.96591  0.90135  0.31229  1.0000
  H   H991      1.0  0.91674  0.89422  0.43889  1.0000
  H   H992      1.0  0.88249  0.87287  0.38954  1.0000
  C   C831      1.0  0.77458  0.76941  0.27695  1.0000
  C   C832      1.0  0.96484  0.98641  0.44677  1.0000
  C   C833      1.0  0.94897  0.76172  0.41831  1.0000
  C   C834      1.0  0.88761  0.71613  0.30900  1.0000
  H   H993      1.0  0.94539  0.54206  0.18729  1.0000
  H   H994      1.0  0.76198  0.85930  0.20665  1.0000
  C   C835      1.0  0.95381  0.52265  0.19537  1.0000
  C   C836      1.0  0.91237  0.67321  0.12865  1.0000
  C   C837      1.0  0.89296  0.69309  0.13662  1.0000
  C   C838      1.0  0.89947  0.71688  0.15912  1.0000
  C   C839      1.0  0.92521  0.72042  0.17540  1.0000
  C   C840      1.0  0.94456  0.70045  0.16798  1.0000
  C   C841      1.0  0.93828  0.67709  0.14383  1.0000
  H   H995      1.0  0.87280  0.69002  0.12577  1.0000
  H   H996      1.0  0.88439  0.73213  0.16515  1.0000
  H   H997      1.0  0.96449  0.70307  0.18062  1.0000
  H   H998      1.0  0.95337  0.66186  0.13778  1.0000
  C   C842      1.0  0.98092  0.86276  0.09147  1.0000
  C   C843      1.0  0.92249  0.67911  0.46586  1.0000
  H   H999      1.0  0.96488  0.86867  0.16301  1.0000
  C   C844      1.0  0.91222  0.70414  0.31762  1.0000
  H   H1000     1.0  0.77122  0.75419  0.30397  1.0000
  C   C845      1.0  0.69588  0.63533  0.14875  1.0000
  H   H1001     1.0  0.68322  0.68159  0.06526  1.0000
  C   C846      1.0  0.91635  0.68900  0.35952  1.0000
  C   C847      1.0  0.81289  0.81627  0.04109  1.0000
  C   C848      1.0  0.77704  0.76238  0.22852  1.0000
  H   H1002     1.0  0.77475  0.79899  0.05213  1.0000
  H   H1003     1.0  0.68502  0.60830  0.03772  1.0000
  H   H1004     1.0  0.97175  0.77449  0.32842  1.0000
  C   C849      1.0  0.78122  0.78183  0.19364  1.0000
  H   H1005     1.0  0.88445  0.72751  0.27607  1.0000
  C   C850      1.0  0.89577  0.68530  0.39407  1.0000
  H   H1006     1.0  0.91041  0.62763  0.45401  1.0000
  C   C851      1.0  0.82880  0.83012  0.00857  1.0000
  C   C852      1.0  0.72098  0.78811  0.11071  1.0000
  C   C853      1.0  0.69319  0.83456  0.32323  1.0000
  C   C854      1.0  0.70924  0.81160  0.32644  1.0000
  C   C855      1.0  0.70176  0.78818  0.30395  1.0000
  C   C856      1.0  0.90765  0.64107  0.42228  1.0000
  H   H1007     1.0  0.89828  0.78368  0.34208  1.0000
  H   H1008     1.0  0.72724  0.81176  0.34700  1.0000
  H   H1009     1.0  0.71405  0.77040  0.30716  1.0000
  C   C857      1.0  0.97045  0.50998  0.16157  1.0000
  C   C858      1.0  0.98184  0.87105  0.13946  1.0000
  C   C859      1.0  0.68070  0.61578  0.07357  1.0000
  H   H1010     1.0  0.86475  0.63745  0.01913  1.0000
  C   C860      1.0  0.70103  0.62632  0.10155  1.0000
  N   N55       1.0  0.97533  0.00033  0.40358  1.0000
  C   C861      1.0  0.77890  0.67840  0.45158  1.0000
  H   H1011     1.0  0.72091  0.62705  0.08684  1.0000
  H   H1012     1.0  0.84772  0.72213  0.33520  1.0000
  H   H1013     1.0  0.78350  0.77637  0.15593  1.0000
  C   C862      1.0  0.99961  0.74662  0.10458  1.0000
  C   C863      1.0  0.68692  0.70267  0.05561  1.0000
  H   H1014     1.0  0.00500  0.88981  0.19382  1.0000
  C   C864      1.0  0.86702  0.71307  0.34227  1.0000
  H   H1015     1.0  0.94433  0.97958  0.44123  1.0000
  C   C865      1.0  0.78165  0.84933  0.32219  1.0000
  H   H1016     1.0  0.95833  0.74859  0.39231  1.0000
  H   H1017     1.0  0.77447  0.79979  0.32902  1.0000
  C   C866      1.0  0.92584  0.80214  0.44291  1.0000
  H   H1018     1.0  0.96460  0.78075  0.13652  1.0000
  H   H1019     1.0  0.78378  0.87070  0.33076  1.0000
  H   H1020     1.0  0.77585  0.74180  0.21812  1.0000
  S   S234      1.0  0.97802  0.52442  0.10439  1.0000
  H   H1021     1.0  0.90934  0.80857  0.30049  1.0000
  H   H1022     1.0  0.71979  0.81959  0.05790  1.0000
  H   H1023     1.0  0.91686  0.82143  0.43575  1.0000
  H   H1024     1.0  0.78636  0.82263  0.17853  1.0000
  H   H1025     1.0  0.79776  0.83837  0.34154  1.0000
  N   N56       1.0  0.93771  0.79695  0.35489  1.0000
  H   H1026     1.0  0.85619  0.66632  0.05291  1.0000
  C   C867      1.0  0.95210  0.82218  0.35264  1.0000
  H   H1027     1.0  0.97277  0.81948  0.36558  1.0000
  C   C868      1.0  0.93757  0.78675  0.40516  1.0000
  N   N57       1.0  0.70086  0.71654  0.09477  1.0000
  H   H1028     1.0  0.72524  0.68127  0.10432  1.0000
  C   C869      1.0  0.91011  0.80190  0.33886  1.0000
  C   C870      1.0  0.69984  0.75672  0.03861  1.0000
  H   H1029     1.0  0.68037  0.69223  0.14698  1.0000
  H   H1030     1.0  0.85391  0.69611  0.40792  1.0000
  H   H1031     1.0  0.00234  0.86000  0.02384  1.0000
  H   H1032     1.0  0.81041  0.85461  0.21136  1.0000
  H   H1033     1.0  0.94256  0.83792  0.37517  1.0000
  H   H1034     1.0  0.95293  0.83035  0.31520  1.0000
  C   C871      1.0  0.95060  0.77854  0.31963  1.0000
  C   C872      1.0  0.97153  0.98292  0.36122  1.0000
  H   H1035     1.0  0.76362  0.66681  0.43547  1.0000
  C   C873      1.0  0.87088  0.69791  0.38420  1.0000
  H   H1036     1.0  0.89718  0.68615  0.02428  1.0000
  S   S235      1.0  0.99679  0.57968  0.01552  1.0000
  C   C874      1.0  0.68491  0.71337  0.13973  1.0000
  C   C875      1.0  0.72635  0.81177  0.46104  1.0000
  H   H1037     1.0  0.86400  0.71272  0.04710  1.0000
  H   H1038     1.0  0.96423  0.99909  0.47952  1.0000
  H   H1039     1.0  0.96471  0.52778  0.99801  1.0000
  C   C876      1.0  0.83810  0.74162  0.01576  1.0000
  H   H1040     1.0  0.97845  0.74213  0.09824  1.0000
  C   C877      1.0  0.87714  0.66697  0.47020  1.0000
  H   H1041     1.0  0.74155  0.85262  0.25863  1.0000
  H   H1042     1.0  0.97728  0.96852  0.45525  1.0000
  C   C878      1.0  0.80460  0.71804  0.45377  1.0000
  C   C879      1.0  0.71563  0.79901  0.06540  1.0000
  H   H1043     1.0  0.93569  0.67980  0.36427  1.0000
  C   C880      1.0  0.70498  0.74496  0.08451  1.0000
  H   H1044     1.0  0.00504  0.51228  0.01973  1.0000
  H   H1045     1.0  0.76213  0.84379  0.33772  1.0000
  H   H1046     1.0  0.92800  0.70624  0.29105  1.0000
  C   C881      1.0  0.67865  0.78794  0.27672  1.0000
  C   C882      1.0  0.00457  0.88309  0.15680  1.0000
  H   H1047     1.0  0.98427  0.80895  0.14201  1.0000
  H   H1048     1.0  0.83955  0.75506  0.04610  1.0000
  H   H1049     1.0  0.99861  0.80889  0.05756  1.0000
  Fe  Fe114     1.0  0.99758  0.61794  0.05589  1.0000
  H   H1050     1.0  0.94168  0.67852  0.44600  1.0000
  C   C883      1.0  0.70508  0.78335  0.02951  1.0000
  C   C884      1.0  0.94881  0.75298  0.46635  1.0000
  H   H1051     1.0  0.99075  0.78040  0.17991  1.0000
  Fe  Fe115     1.0  0.67851  0.67383  0.34380  1.0000
  H   H1052     1.0  0.95040  0.78692  0.28231  1.0000
  N   N58       1.0  0.78307  0.84448  0.26930  1.0000
  H   H1053     1.0  0.81202  0.87527  0.26306  1.0000
  C   C885      1.0  0.80877  0.85453  0.25143  1.0000
  C   C886      1.0  0.76118  0.86010  0.24674  1.0000
  C   C887      1.0  0.78085  0.81623  0.25616  1.0000
  C   C888      1.0  0.78297  0.80836  0.20707  1.0000
  C   C889      1.0  0.77650  0.79587  0.29087  1.0000
  H   H1054     1.0  0.69186  0.74586  0.00883  1.0000
  N   N59       1.0  0.90048  0.66848  0.43738  1.0000
  H   H1055     1.0  0.94009  0.75947  0.31762  1.0000
  C   C890      1.0  0.72701  0.70311  0.10117  1.0000
  H   H1056     1.0  0.98253  0.96366  0.36538  1.0000
  H   H1057     1.0  0.92643  0.63998  0.40113  1.0000
  C   C891      1.0  0.00299  0.86632  0.06107  1.0000
  H   H1058     1.0  0.97628  0.78276  0.04837  1.0000
  H   H1059     1.0  0.97795  0.99259  0.32698  1.0000
  H   H1060     1.0  0.71522  0.82058  0.43148  1.0000
  C   C892      1.0  0.00334  0.00688  0.41168  1.0000
  H   H1061     1.0  0.83291  0.65367  0.01101  1.0000
  H   H1062     1.0  0.73897  0.77724  0.42089  1.0000
  H   H1063     1.0  0.95804  0.73407  0.47589  1.0000
  H   H1064     1.0  0.73703  0.70965  0.13448  1.0000
  C   C893      1.0  0.94769  0.50998  0.23955  1.0000
  C   C894      1.0  0.73977  0.78752  0.45519  1.0000
  H   H1065     1.0  0.85989  0.65808  0.45228  1.0000
  H   H1066     1.0  0.00507  0.73686  0.13938  1.0000
  H   H1067     1.0  0.74038  0.70698  0.06987  1.0000
  H   H1068     1.0  0.69880  0.70205  0.02150  1.0000
  H   H1069     1.0  0.72068  0.75390  0.15576  1.0000
  H   H1070     1.0  0.72915  0.80033  0.13867  1.0000
  H   H1071     1.0  0.69524  0.72011  0.17245  1.0000
  C   C895      1.0  0.85429  0.65712  0.01675  1.0000
  N   N60       1.0  0.00394  0.77562  0.10617  1.0000
  C   C896      1.0  0.98526  0.78694  0.14282  1.0000
  C   C897      1.0  0.99705  0.78696  0.05830  1.0000
  H   H1072     1.0  0.91824  0.70003  0.47657  1.0000
  H   H1073     1.0  0.76371  0.75725  0.48640  1.0000
  H   H1074     1.0  0.70095  0.79181  0.99416  1.0000
  C   C898      1.0  0.92560  0.79307  0.49075  1.0000
  H   H1075     1.0  0.87107  0.68684  0.48406  1.0000
  C   C899      1.0  0.75404  0.77618  0.49349  1.0000
  C   C900      1.0  0.81869  0.70804  0.49385  1.0000
  C   C901      1.0  0.79318  0.66829  0.49141  1.0000
  Fe  Fe116     1.0  0.97029  0.91662  0.49374  1.0000
  C   C902      1.0  0.92907  0.00660  0.76701  1.0000
  Fe  Fe117     1.0  0.00659  0.89826  0.57478  1.0000
  H   H1076     1.0  0.84370  0.65233  0.92439  1.0000
  C   C903      1.0  0.68197  0.67901  0.86920  1.0000
  C   C904      1.0  0.88772  0.95930  0.71462  1.0000
  C   C905      1.0  0.99496  0.65101  0.65565  1.0000
  H   H1077     1.0  0.99025  0.64223  0.69028  1.0000
  Fe  Fe118     1.0  0.74064  0.83398  0.86298  1.0000
  S   S236      1.0  0.72921  0.79857  0.81937  1.0000
  S   S237      1.0  0.78306  0.83819  0.88881  1.0000
  Fe  Fe119     1.0  0.70735  0.82809  0.77132  1.0000
  S   S238      1.0  0.70593  0.82408  0.68927  1.0000
  C   C906      1.0  0.81915  0.83714  0.96253  1.0000
  H   H1078     1.0  0.75780  0.81141  0.97082  1.0000
  S   S239      1.0  0.72173  0.86346  0.81110  1.0000
  S   S240      1.0  0.70508  0.83314  0.91189  1.0000
  C   C907      1.0  0.68402  0.84382  0.60531  1.0000
  Fe  Fe120     1.0  0.86348  0.69034  0.60163  1.0000
  S   S241      1.0  0.85468  0.71224  0.67033  1.0000
  S   S242      1.0  0.83127  0.66904  0.56162  1.0000
  Fe  Fe121     1.0  0.92103  0.70527  0.60341  1.0000
  S   S243      1.0  0.91653  0.72964  0.67078  1.0000
  S   S244      1.0  0.95929  0.70158  0.56122  1.0000
  Fe  Fe122     1.0  0.89316  0.69531  0.69892  1.0000
  S   S245      1.0  0.89656  0.68721  0.78014  1.0000
  Fe  Fe123     1.0  0.87874  0.74454  0.63743  1.0000
  S   S246      1.0  0.85809  0.78454  0.64244  1.0000
  S   S247      1.0  0.89987  0.66994  0.63284  1.0000
  S   S248      1.0  0.88534  0.72354  0.56712  1.0000
  S   S249      1.0  0.95479  0.59367  0.89750  1.0000
  C   C908      1.0  0.69342  0.69811  0.83902  1.0000
  S   S250      1.0  0.98408  0.92089  0.63243  1.0000
  S   S251      1.0  0.98530  0.99839  0.59381  1.0000
  S   S252      1.0  0.94473  0.94106  0.54401  1.0000
  Fe  Fe124     1.0  0.98226  0.95422  0.57839  1.0000
  H   H1079     1.0  0.97633  0.54074  0.91407  1.0000
  Fe  Fe125     1.0  0.94828  0.90614  0.59457  1.0000
  S   S253      1.0  0.91258  0.89626  0.63966  1.0000
  Fe  Fe126     1.0  0.69235  0.79951  0.86541  1.0000
  S   S254      1.0  0.97071  0.88061  0.54153  1.0000
  H   H1080     1.0  0.74002  0.82389  0.57795  1.0000
  H   H1081     1.0  0.93842  0.98377  0.64811  1.0000
  H   H1082     1.0  0.69826  0.88117  0.70290  1.0000
  C   C909      1.0  0.97665  0.66851  0.63388  1.0000
  C   C910      1.0  0.77750  0.81682  0.98119  1.0000
  C   C911      1.0  0.87486  0.81471  0.64066  1.0000
  C   C912      1.0  0.90128  0.81670  0.62524  1.0000
  C   C913      1.0  0.91321  0.84173  0.62348  1.0000
  C   C914      1.0  0.89884  0.86451  0.63827  1.0000
  C   C915      1.0  0.87267  0.86218  0.65413  1.0000
  C   C916      1.0  0.86066  0.83755  0.65469  1.0000
  H   H1083     1.0  0.91239  0.79908  0.61449  1.0000
  H   H1084     1.0  0.93355  0.84335  0.61158  1.0000
  H   H1085     1.0  0.86146  0.87962  0.66561  1.0000
  H   H1086     1.0  0.84024  0.83626  0.66626  1.0000
  C   C917      1.0  0.91503  0.66160  0.80988  1.0000
  C   C918      1.0  0.92195  0.63750  0.78770  1.0000
  C   C919      1.0  0.93434  0.61691  0.81469  1.0000
  C   C920      1.0  0.93998  0.62022  0.86396  1.0000
  C   C921      1.0  0.93377  0.64458  0.88553  1.0000
  C   C922      1.0  0.92145  0.66508  0.85865  1.0000
  H   H1087     1.0  0.91709  0.63448  0.75019  1.0000
  H   H1088     1.0  0.93910  0.59819  0.79746  1.0000
  H   H1089     1.0  0.93849  0.64765  0.92294  1.0000
  H   H1090     1.0  0.91676  0.68378  0.87580  1.0000
  H   H1091     1.0  0.89994  0.73044  0.87587  1.0000
  H   H1092     1.0  0.95807  0.67316  0.65196  1.0000
  C   C923      1.0  0.79354  0.83042  0.94842  1.0000
  C   C924      1.0  0.93712  0.76855  0.50245  1.0000
  H   H1093     1.0  0.93451  0.93405  0.71265  1.0000
  H   H1094     1.0  0.83166  0.84784  0.93764  1.0000
  H   H1095     1.0  0.80033  0.78844  0.63033  1.0000
  H   H1096     1.0  0.88126  0.65447  0.50274  1.0000
  C   C925      1.0  0.98241  0.67994  0.58904  1.0000
  H   H1097     1.0  0.71631  0.84347  0.50974  1.0000
  H   H1098     1.0  0.81111  0.76736  0.97714  1.0000
  Fe  Fe127     1.0  0.96063  0.59705  0.97903  1.0000
  C   C926      1.0  0.74089  0.81341  0.54395  1.0000
  H   H1099     1.0  0.87153  0.97007  0.69536  1.0000
  H   H1100     1.0  0.00523  0.99376  0.76777  1.0000
  H   H1101     1.0  0.00110  0.97465  0.68581  1.0000
  C   C927      1.0  0.82195  0.74857  0.97707  1.0000
  H   H1102     1.0  0.80189  0.80429  0.57236  1.0000
  N   N61       1.0  0.86549  0.67379  0.97774  1.0000
  H   H1103     1.0  0.89680  0.75937  0.94805  1.0000
  C   C928      1.0  0.93416  0.95408  0.72951  1.0000
  H   H1104     1.0  0.93038  0.95097  0.76877  1.0000
  C   C929      1.0  0.69114  0.87615  0.66747  1.0000
  H   H1105     1.0  0.90553  0.65884  0.98742  1.0000
  H   H1106     1.0  0.00103  0.87727  0.75207  1.0000
  H   H1107     1.0  0.73585  0.75592  0.60517  1.0000
  H   H1108     1.0  0.00428  0.60949  0.75421  1.0000
  C   C930      1.0  0.69274  0.84984  0.65195  1.0000
  C   C931      1.0  0.69172  0.72516  0.85108  1.0000
  H   H1109     1.0  0.76028  0.76091  0.65085  1.0000
  H   H1110     1.0  0.83144  0.69499  0.90622  1.0000
  H   H1111     1.0  0.68513  0.82354  0.59291  1.0000
  C   C932      1.0  0.75038  0.77017  0.61901  1.0000
  C   C933      1.0  0.88572  0.74687  0.87700  1.0000
  S   S255      1.0  0.68230  0.64552  0.85144  1.0000
  H   H1112     1.0  0.95432  0.96203  0.72431  1.0000
  H   H1113     1.0  0.90384  0.98417  0.63455  1.0000
  H   H1114     1.0  0.78875  0.64888  0.50569  1.0000
  H   H1115     1.0  0.87671  0.64021  0.93296  1.0000
  H   H1116     1.0  0.79724  0.74558  0.60011  1.0000
  C   C934      1.0  0.86603  0.78447  0.91833  1.0000
  C   C935      1.0  0.83405  0.70729  0.93750  1.0000
  N   N62       1.0  0.83317  0.77938  0.79572  1.0000
  C   C936      1.0  0.83781  0.80664  0.77773  1.0000
  C   C937      1.0  0.83743  0.76105  0.75448  1.0000
  C   C938      1.0  0.80509  0.77758  0.81121  1.0000
  C   C939      1.0  0.85069  0.77336  0.83713  1.0000
  C   C940      1.0  0.86935  0.75177  0.83737  1.0000
  C   C941      1.0  0.84950  0.78948  0.87896  1.0000
  H   H1117     1.0  0.91661  0.80524  0.51899  1.0000
  H   H1118     1.0  0.94579  0.52547  0.89953  1.0000
  N   N63       1.0  0.91368  0.97189  0.70757  1.0000
  H   H1119     1.0  0.82610  0.81132  0.74478  1.0000
  H   H1120     1.0  0.83205  0.82205  0.80475  1.0000
  H   H1121     1.0  0.85904  0.80920  0.76797  1.0000
  H   H1122     1.0  0.85806  0.76198  0.74008  1.0000
  H   H1123     1.0  0.82423  0.76617  0.72367  1.0000
  H   H1124     1.0  0.83338  0.74018  0.76475  1.0000
  H   H1125     1.0  0.79133  0.78230  0.78103  1.0000
  H   H1126     1.0  0.80071  0.75738  0.82477  1.0000
  H   H1127     1.0  0.79979  0.79175  0.84050  1.0000
  H   H1128     1.0  0.87196  0.73841  0.80723  1.0000
  H   H1129     1.0  0.83576  0.80619  0.88138  1.0000
  H   H1130     1.0  0.92145  0.95340  0.63875  1.0000
  C   C942      1.0  0.72695  0.82467  0.50528  1.0000
  H   H1131     1.0  0.88217  0.95846  0.75361  1.0000
  C   C943      1.0  0.86416  0.65869  0.93189  1.0000
  H   H1132     1.0  0.99383  0.61397  0.81539  1.0000
  H   H1133     1.0  0.87129  0.67054  0.90057  1.0000
  H   H1134     1.0  0.77748  0.81457  0.61665  1.0000
  C   C944      1.0  0.88407  0.76317  0.91741  1.0000
  H   H1135     1.0  0.88802  0.93861  0.70058  1.0000
  H   H1136     1.0  0.70310  0.69199  0.80571  1.0000
  C   C945      1.0  0.68073  0.89614  0.63680  1.0000
  H   H1137     1.0  0.77327  0.73670  0.55687  1.0000
  C   C946      1.0  0.91957  0.97346  0.65506  1.0000
  C   C947      1.0  0.78579  0.75328  0.56859  1.0000
  C   C948      1.0  0.00681  0.56338  0.80255  1.0000
  N   N64       1.0  0.76970  0.77743  0.58084  1.0000
  H   H1138     1.0  0.73884  0.78771  0.63263  1.0000
  C   C949      1.0  0.96748  0.52168  0.90333  1.0000
  C   C950      1.0  0.81314  0.68301  0.51273  1.0000
  C   C951      1.0  0.75523  0.78898  0.53911  1.0000
  Fe  Fe128     1.0  0.68499  0.85913  0.85675  1.0000
  H   H1139     1.0  0.70000  0.73983  0.82711  1.0000
  C   C952      1.0  0.85082  0.69957  0.97638  1.0000
  C   C953      1.0  0.99609  0.99533  0.69181  1.0000
  H   H1140     1.0  0.83396  0.71962  0.50985  1.0000
  H   H1141     1.0  0.94370  0.99342  0.78305  1.0000
  H   H1142     1.0  0.80715  0.73696  0.90833  1.0000
  C   C954      1.0  0.81988  0.73144  0.93816  1.0000
  C   C955      1.0  0.00678  0.67405  0.56633  1.0000
  C   C956      1.0  0.78802  0.79706  0.60076  1.0000
  H   H1143     1.0  0.99055  0.56604  0.82970  1.0000
  H   H1144     1.0  0.80052  0.75748  0.53958  1.0000
  H   H1145     1.0  0.92585  0.66760  0.49985  1.0000
  H   H1146     1.0  0.90282  0.69143  0.96074  1.0000
  H   H1147     1.0  0.99755  0.56279  0.76624  1.0000
  C   C957      1.0  0.91266  0.99888  0.72838  1.0000
  H   H1148     1.0  0.86475  0.79714  0.94983  1.0000
  C   C958      1.0  0.67856  0.73310  0.89347  1.0000
  H   H1149     1.0  0.93732  0.50897  0.98010  1.0000
  C   C959      1.0  0.99851  0.00625  0.73822  1.0000
  H   H1150     1.0  0.97534  0.51651  0.86689  1.0000
  H   H1151     1.0  0.93713  0.76159  0.53964  1.0000
  H   H1152     1.0  0.67968  0.91644  0.64911  1.0000
  S   S256      1.0  0.00790  0.93269  0.52351  1.0000
  C   C960      1.0  0.89390  0.67789  0.98780  1.0000
