data_image0
_chemical_formula_structural       HSFeCH2SH3CSH2SCH2C5H3C2NSC3HSH2C5H2C4H2SCHSH2NC8H7CHCHCH4S2HC3HCHC2H2CH2CHNHCH2CHCHFeHCHC3H2SFeH3CH2CH2CSNHCHC2H3CHFeHSHSFeSFeHSHSHSFeHFeSH5CHCHSHC2HC4HCHNHNC9H14CHCH5CFeH2C2FeHC2HSFeH2CSH2C2HCSCH3CFeC3HNH2CHC2HSH2C3SFeS2FeS2FeSFeS3FeS2FeS2FeSFeHS2H2C3HC3NH3C6H7SHC3SC7H4C6H3C7H2SHNC9H14NC9HSH2NH12CSCHFeSCHC3HCH7CH5CH2CSCH3CHC2HCHCHCHC2H6CHC2H2CHCH2CHCH6C2H2CH3C2H2C2HCHNC2HNH2CHCH2SC2HCH2C5H2SH2CH2CHCHC2NH2NH2CH2CH7FeS2FeS2FeSFeS3FeS2FeS2FeHFeS3C2H4CHCH2C2H3CHC2HCHCHC5H2CHC6H4C4HCHCH2NC9H17C5HC3HCNHC3H3C2H6NH4C2H2C2SHC2H2CH3CHC2HCH2CFeS2FeS2FeSFeS3FeS2FeS2FeSFeHS2FeSFeCS2HFeHFeSCSH3C2NSFeCHCSHCH2FeC6H4SC2H2CH2CHC3NHCH2CHC2HC3HNHC6H5NC9H14NC9H13CNC2HCHCH5CH4C2H4SHSC7FeC2SCHFeH2C2SCSH3CHC3H4CH4C2H3CSC2H2SHSCSHCHC3FeCFeH9FeC3HSFeCFeH2Fe2CFeSCSHSFeSH2CH2SHNSCFeS2FeSFeSFeS3FeS2FeS2FeSFeS2C6H4CH5C4SH2C6HCH2C2HCHC6H4FeCHC4H4NH2SH2CH4C2H2CH3CH3S2HCH5CH2NC9H14C4HSCH5C2SHC2SCH3CHCHCH2SCHSHC2NC7HCH2FeCH2C4SCSH2CHFeSHFeS2FeSFeHS2FeS2FeS2FeHFeS3C6H5C3H2CH2SC2H8SC5HC4H2CHCHC2H5C5H6CHCH7N2C4HCHCNC2HCH4CHCHCH6C3H2C4SHCHCH2CHN2CH2CHCHCHCHC2H4CHNH6CHCH2SC2SHCHCHC2HC6HCH8C4HCH3CHCH4CHCHNCNCH2C2HSHCFeS2FeS2FeSFeS3FeS2FeS2FeCFeS3HC2SC6H4C6H7CH3C6H5C6H5CHC4H6C6H6C2H2C2HCHFeH3CHCSHCHCH3C2HCNCSHCFeH3CNHCHC2H2CHSH3C2HCH2CHNHCFeNHCHCHC2FeH2CHCHC5H3NH2SHCHCHCHNCSH2CFeHSFeS2H2FeHS2FeSFeSHC2FeCS2HC3H2CFeH2C4H2C6SH3C3HCH7CHCH3CH3SNC9H14CHC2HC3H2FeSCNH3CH5CSHC2HCHC2HSHC2H3CHC4H2FeSHC2SCH4C3H4C4H2CHSHC3HCH2CH2C2H3CHC3HCNC7NCHCHSFeH2CH2CHSC2HCH2CHSCNC2HCNH4CH4CHFeC2SHSH6C2HC2HCFeH2C2H3SCH3CH2
_chemical_formula_sum              "H864 S192 Fe96 C720 N48"
_cell_length_a       41.0162
_cell_length_b       41.0018
_cell_length_c       50.3096
_cell_angle_alpha    90.6324
_cell_angle_beta     89.1631
_cell_angle_gamma    91.5238

_space_group_name_H-M_alt    "P 1"
_space_group_IT_number       1

loop_
  _space_group_symop_operation_xyz
  'x, y, z'

loop_
  _atom_site_type_symbol
  _atom_site_label
  _atom_site_symmetry_multiplicity
  _atom_site_fract_x
  _atom_site_fract_y
  _atom_site_fract_z
  _atom_site_occupancy
  H   H1        1.0  0.23679  0.26445  0.35703  1.0000
  S   S1        1.0  0.46497  0.47855  0.26916  1.0000
  Fe  Fe1       1.0  0.03100  0.03729  0.28462  1.0000
  C   C1        1.0  0.39171  0.20935  0.33041  1.0000
  H   H2        1.0  0.36298  0.45469  0.31875  1.0000
  H   H3        1.0  0.49798  0.13139  0.29441  1.0000
  S   S2        1.0  0.07289  0.47613  0.33673  1.0000
  H   H4        1.0  0.36881  0.13522  0.35470  1.0000
  H   H5        1.0  0.35480  0.19337  0.35872  1.0000
  H   H6        1.0  0.16389  0.32108  0.31535  1.0000
  C   C2        1.0  0.13508  0.39131  0.25482  1.0000
  S   S3        1.0  0.22781  0.47836  0.33198  1.0000
  H   H7        1.0  0.19593  0.07597  0.28011  1.0000
  H   H8        1.0  0.48067  0.20048  0.29098  1.0000
  S   S4        1.0  0.33342  0.06430  0.33065  1.0000
  C   C3        1.0  0.42876  0.05022  0.31270  1.0000
  H   H9        1.0  0.19579  0.36563  0.35786  1.0000
  H   H10       1.0  0.08807  0.41334  0.25273  1.0000
  C   C4        1.0  0.39481  0.05352  0.31103  1.0000
  C   C5        1.0  0.46548  0.34843  0.03646  1.0000
  C   C6        1.0  0.37600  0.06083  0.33378  1.0000
  C   C7        1.0  0.10692  0.40471  0.26565  1.0000
  C   C8        1.0  0.15949  0.38036  0.27145  1.0000
  H   H11       1.0  0.47050  0.31476  0.08346  1.0000
  H   H12       1.0  0.23360  0.38100  0.32402  1.0000
  H   H13       1.0  0.45712  0.12402  0.25778  1.0000
  C   C9        1.0  0.49958  0.34538  0.03980  1.0000
  C   C10       1.0  0.11590  0.47546  0.33445  1.0000
  N   N1        1.0  0.18258  0.37057  0.31669  1.0000
  S   S5        1.0  0.48633  0.04696  0.34037  1.0000
  C   C11       1.0  0.18475  0.47587  0.33308  1.0000
  C   C12       1.0  0.16720  0.48378  0.31039  1.0000
  C   C13       1.0  0.13287  0.48331  0.31097  1.0000
  H   H14       1.0  0.18715  0.05925  0.33624  1.0000
  S   S6        1.0  0.29384  0.41568  0.34599  1.0000
  H   H15       1.0  0.18023  0.49040  0.29230  1.0000
  H   H16       1.0  0.11967  0.48913  0.29328  1.0000
  C   C14       1.0  0.10873  0.05564  0.31396  1.0000
  C   C15       1.0  0.10193  0.08883  0.31560  1.0000
  C   C16       1.0  0.12577  0.11127  0.32500  1.0000
  C   C17       1.0  0.15645  0.10069  0.33285  1.0000
  C   C18       1.0  0.16343  0.06759  0.33068  1.0000
  H   H17       1.0  0.50794  0.30499  0.09822  1.0000
  H   H18       1.0  0.07812  0.09708  0.31021  1.0000
  C   C19       1.0  0.40454  0.45350  0.34431  1.0000
  C   C20       1.0  0.40778  0.14387  0.32616  1.0000
  C   C21       1.0  0.44219  0.46777  0.29808  1.0000
  C   C22       1.0  0.40805  0.46421  0.29684  1.0000
  H   H19       1.0  0.11420  0.13810  0.19837  1.0000
  H   H20       1.0  0.38301  0.05049  0.29204  1.0000
  S   S7        1.0  0.05468  0.50247  0.26120  1.0000
  C   C23       1.0  0.45747  0.46371  0.32244  1.0000
  H   H21       1.0  0.13800  0.38954  0.23340  1.0000
  S   S8        1.0  0.28043  0.13716  0.35275  1.0000
  H   H22       1.0  0.21788  0.13250  0.28128  1.0000
  H   H23       1.0  0.48370  0.46640  0.32368  1.0000
  N   N2        1.0  0.10452  0.10532  0.23117  1.0000
  C   C24       1.0  0.10786  0.11208  0.20234  1.0000
  C   C25       1.0  0.09241  0.07104  0.23396  1.0000
  C   C26       1.0  0.07922  0.12668  0.24277  1.0000
  C   C27       1.0  0.13608  0.11201  0.24438  1.0000
  C   C28       1.0  0.15370  0.08747  0.25731  1.0000
  C   C29       1.0  0.15012  0.14407  0.24460  1.0000
  C   C30       1.0  0.18703  0.33522  0.31168  1.0000
  C   C31       1.0  0.17932  0.15129  0.25772  1.0000
  H   H24       1.0  0.19525  0.32999  0.29098  1.0000
  H   H25       1.0  0.02996  0.38733  0.16858  1.0000
  H   H26       1.0  0.21106  0.41508  0.31282  1.0000
  H   H27       1.0  0.45142  0.19530  0.26438  1.0000
  H   H28       1.0  0.10945  0.05344  0.22468  1.0000
  H   H29       1.0  0.44296  0.04490  0.29507  1.0000
  H   H30       1.0  0.08833  0.06453  0.25521  1.0000
  C   C32       1.0  0.12743  0.39652  0.30995  1.0000
  H   H31       1.0  0.05482  0.12131  0.23402  1.0000
  C   C33       1.0  0.49672  0.31114  0.07894  1.0000
  H   H32       1.0  0.42918  0.21930  0.30209  1.0000
  C   C34       1.0  0.17574  0.37495  0.34558  1.0000
  H   H33       1.0  0.48724  0.15494  0.32351  1.0000
  H   H34       1.0  0.41835  0.14344  0.26097  1.0000
  H   H35       1.0  0.44878  0.34723  0.05323  1.0000
  H   H36       1.0  0.12027  0.13689  0.32655  1.0000
  S   S9        1.0  0.07919  0.02622  0.30380  1.0000
  S   S10       1.0  0.50270  0.03847  0.26259  1.0000
  H   H37       1.0  0.08441  0.15294  0.23906  1.0000
  C   C35       1.0  0.38926  0.45709  0.31986  1.0000
  C   C36       1.0  0.42575  0.16675  0.31046  1.0000
  C   C37       1.0  0.44408  0.05322  0.33727  1.0000
  H   H38       1.0  0.46771  0.11612  0.31700  1.0000
  C   C38       1.0  0.41699  0.20001  0.31312  1.0000
  H   H39       1.0  0.39606  0.46727  0.27806  1.0000
  C   C39       1.0  0.46867  0.18251  0.27731  1.0000
  C   C40       1.0  0.18318  0.09489  0.26992  1.0000
  H   H40       1.0  0.41319  0.11833  0.32528  1.0000
  H   H41       1.0  0.42776  0.10978  0.28170  1.0000
  C   C41       1.0  0.38243  0.15337  0.34319  1.0000
  H   H42       1.0  0.06866  0.06686  0.22391  1.0000
  H   H43       1.0  0.07697  0.12334  0.26466  1.0000
  C   C42       1.0  0.10312  0.40723  0.29313  1.0000
  H   H44       1.0  0.48826  0.17325  0.26382  1.0000
  N   N3        1.0  0.45200  0.15560  0.29220  1.0000
  H   H45       1.0  0.08459  0.10655  0.19172  1.0000
  C   C43       1.0  0.13347  0.46713  0.35703  1.0000
  H   H46       1.0  0.13837  0.16388  0.23491  1.0000
  H   H47       1.0  0.05366  0.51439  0.14301  1.0000
  C   C44       1.0  0.19568  0.12677  0.27052  1.0000
  H   H48       1.0  0.12298  0.39995  0.33099  1.0000
  C   C45       1.0  0.13959  0.04515  0.32138  1.0000
  H   H49       1.0  0.12711  0.09698  0.19295  1.0000
  Fe  Fe2       1.0  0.52012  0.48090  0.27155  1.0000
  H   H50       1.0  0.18919  0.17607  0.25827  1.0000
  C   C46       1.0  0.43870  0.45668  0.34542  1.0000
  H   H51       1.0  0.18091  0.37026  0.26210  1.0000
  C   C47       1.0  0.21376  0.38827  0.31056  1.0000
  C   C48       1.0  0.47723  0.13886  0.30747  1.0000
  C   C49       1.0  0.15644  0.38259  0.29957  1.0000
  H   H52       1.0  0.48045  0.37350  0.08650  1.0000
  H   H53       1.0  0.14495  0.06244  0.25857  1.0000
  S   S11       1.0  0.02980  0.43400  0.21146  1.0000
  Fe  Fe3       1.0  0.03996  0.48579  0.30200  1.0000
  H   H54       1.0  0.20596  0.32524  0.32484  1.0000
  H   H55       1.0  0.17356  0.40118  0.35097  1.0000
  H   H56       1.0  0.50645  0.34924  0.27301  1.0000
  C   C50       1.0  0.43817  0.13224  0.27235  1.0000
  H   H57       1.0  0.08136  0.41809  0.30153  1.0000
  H   H58       1.0  0.03825  0.50297  0.20222  1.0000
  C   C51       1.0  0.16776  0.46722  0.35635  1.0000
  H   H59       1.0  0.51712  0.36614  0.10395  1.0000
  H   H60       1.0  0.22278  0.38360  0.29000  1.0000
  C   C52       1.0  0.39140  0.06465  0.35829  1.0000
  S   S12       1.0  0.18497  0.12939  0.34595  1.0000
  N   N4        1.0  0.51294  0.34015  0.06657  1.0000
  H   H61       1.0  0.15311  0.36145  0.35189  1.0000
  C   C53       1.0  0.50689  0.36910  0.08369  1.0000
  H   H62       1.0  0.51771  0.32481  0.22868  1.0000
  C   C54       1.0  0.37444  0.18608  0.34538  1.0000
  C   C55       1.0  0.42530  0.06056  0.36003  1.0000
  H   H63       1.0  0.49848  0.28934  0.06572  1.0000
  H   H64       1.0  0.03548  0.47906  0.15895  1.0000
  H   H65       1.0  0.38532  0.23480  0.33225  1.0000
  C   C56       1.0  0.03012  0.50315  0.15004  1.0000
  H   H66       1.0  0.51838  0.39151  0.07496  1.0000
  Fe  Fe4       1.0  0.52009  0.04368  0.30434  1.0000
  H   H67       1.0  0.17754  0.08673  0.44973  1.0000
  S   S13       1.0  0.31039  0.40026  0.40822  1.0000
  H   H68       1.0  0.11163  0.06251  0.37196  1.0000
  S   S14       1.0  0.23592  0.41729  0.39193  1.0000
  Fe  Fe5       1.0  0.27381  0.43799  0.41988  1.0000
  S   S15       1.0  0.25973  0.44456  0.46364  1.0000
  Fe  Fe6       1.0  0.27416  0.38244  0.37803  1.0000
  H   H69       1.0  0.13808  0.10695  0.38780  1.0000
  S   S16       1.0  0.29295  0.47544  0.39087  1.0000
  H   H70       1.0  0.12050  0.46108  0.37527  1.0000
  S   S17       1.0  0.23800  0.12960  0.40848  1.0000
  H   H71       1.0  0.19380  0.02935  0.64325  1.0000
  S   S18       1.0  0.31194  0.10022  0.40458  1.0000
  Fe  Fe7       1.0  0.26093  0.08071  0.41338  1.0000
  H   H72       1.0  0.18103  0.46158  0.37405  1.0000
  Fe  Fe8       1.0  0.28786  0.14808  0.39598  1.0000
  S   S19       1.0  0.30962  0.19711  0.40933  1.0000
  H   H73       1.0  0.12125  0.11853  0.41951  1.0000
  H   H74       1.0  0.32260  0.48707  0.57622  1.0000
  H   H75       1.0  0.29549  0.50496  0.45031  1.0000
  H   H76       1.0  0.13552  0.08597  0.46004  1.0000
  H   H77       1.0  0.19373  0.06831  0.40604  1.0000
  C   C57       1.0  0.28641  0.04120  0.48260  1.0000
  H   H78       1.0  0.30031  0.05938  0.47149  1.0000
  C   C58       1.0  0.26601  0.48214  0.48093  1.0000
  H   H79       1.0  0.25767  0.21181  0.37264  1.0000
  S   S20       1.0  0.23886  0.04510  0.44386  1.0000
  H   H80       1.0  0.49537  0.05292  0.68072  1.0000
  C   C59       1.0  0.25741  0.26448  0.37019  1.0000
  C   C60       1.0  0.27190  0.29429  0.37843  1.0000
  H   H81       1.0  0.29837  0.03010  0.67790  1.0000
  C   C61       1.0  0.26923  0.23456  0.37898  1.0000
  C   C62       1.0  0.29551  0.23417  0.39639  1.0000
  C   C63       1.0  0.31022  0.26399  0.40443  1.0000
  C   C64       1.0  0.29859  0.29394  0.39540  1.0000
  H   H82       1.0  0.43699  0.06301  0.37912  1.0000
  C   C65       1.0  0.51436  0.04726  0.66534  1.0000
  H   H83       1.0  0.37265  0.45806  0.56415  1.0000
  N   N5        1.0  0.14374  0.07166  0.41909  1.0000
  H   H84       1.0  0.23774  0.46656  0.51520  1.0000
  N   N6        1.0  0.25456  0.33916  0.46449  1.0000
  C   C66       1.0  0.28885  0.35172  0.46406  1.0000
  C   C67       1.0  0.23756  0.35476  0.44228  1.0000
  C   C68       1.0  0.23864  0.34989  0.48963  1.0000
  C   C69       1.0  0.25386  0.30304  0.46279  1.0000
  C   C70       1.0  0.23706  0.28521  0.44253  1.0000
  C   C71       1.0  0.27061  0.28456  0.48175  1.0000
  C   C72       1.0  0.23774  0.25115  0.44118  1.0000
  C   C73       1.0  0.27155  0.25052  0.47991  1.0000
  C   C74       1.0  0.25535  0.23389  0.45954  1.0000
  H   H85       1.0  0.29022  0.37893  0.46385  1.0000
  H   H86       1.0  0.30265  0.34435  0.48172  1.0000
  H   H87       1.0  0.30215  0.34269  0.44610  1.0000
  H   H88       1.0  0.24900  0.34846  0.42277  1.0000
  H   H89       1.0  0.23870  0.38186  0.44403  1.0000
  H   H90       1.0  0.21122  0.34765  0.44190  1.0000
  H   H91       1.0  0.25150  0.34134  0.50744  1.0000
  H   H92       1.0  0.23821  0.37708  0.49120  1.0000
  H   H93       1.0  0.21296  0.34047  0.49092  1.0000
  H   H94       1.0  0.22410  0.29691  0.42689  1.0000
  H   H95       1.0  0.28366  0.29633  0.49785  1.0000
  H   H96       1.0  0.22572  0.23806  0.42506  1.0000
  H   H97       1.0  0.28541  0.23692  0.49402  1.0000
  H   H98       1.0  0.25706  0.20760  0.45754  1.0000
  C   C75       1.0  0.14174  0.10571  0.40959  1.0000
  H   H99       1.0  0.13379  0.51786  0.66404  1.0000
  C   C76       1.0  0.37571  0.47329  0.54606  1.0000
  H   H100      1.0  0.35169  0.50658  0.50717  1.0000
  H   H101      1.0  0.31020  0.31666  0.40164  1.0000
  H   H102      1.0  0.45072  0.45392  0.36424  1.0000
  H   H103      1.0  0.50146  0.03221  0.64999  1.0000
  H   H104      1.0  0.17304  0.02977  0.41102  1.0000
  C   C77       1.0  0.11226  0.05402  0.41472  1.0000
  Fe  Fe9       1.0  0.30101  0.08824  0.36181  1.0000
  H   H105      1.0  0.33057  0.26391  0.41787  1.0000
  H   H106      1.0  0.16504  0.05368  0.38238  1.0000
  C   C78       1.0  0.28492  0.50766  0.47001  1.0000
  C   C79       1.0  0.25251  0.48610  0.50661  1.0000
  Fe  Fe10      1.0  0.23201  0.11519  0.36557  1.0000
  H   H107      1.0  0.16464  0.12011  0.41335  1.0000
  C   C80       1.0  0.15374  0.07324  0.44736  1.0000
  C   C81       1.0  0.25584  0.03043  0.47358  1.0000
  H   H108      1.0  0.37715  0.07023  0.37595  1.0000
  S   S21       1.0  0.25168  0.06530  0.37090  1.0000
  Fe  Fe11      1.0  0.32739  0.43648  0.37714  1.0000
  H   H109      1.0  0.36454  0.45881  0.52949  1.0000
  H   H110      1.0  0.32299  0.03642  0.51268  1.0000
  C   C82       1.0  0.32534  0.49912  0.55657  1.0000
  S   S22       1.0  0.25489  0.33123  0.36780  1.0000
  H   H111      1.0  0.31286  0.48340  0.54143  1.0000
  H   H112      1.0  0.15772  0.04847  0.45542  1.0000
  C   C83       1.0  0.16989  0.05512  0.40394  1.0000
  C   C84       1.0  0.09912  0.05157  0.38879  1.0000
  H   H113      1.0  0.24733  0.51800  0.54095  1.0000
  C   C85       1.0  0.06972  0.03476  0.38390  1.0000
  S   S23       1.0  0.38215  0.44623  0.37414  1.0000
  C   C86       1.0  0.25785  0.51527  0.52123  1.0000
  H   H114      1.0  0.06050  0.03303  0.36376  1.0000
  H   H115      1.0  0.14978  0.03228  0.67718  1.0000
  H   H116      1.0  0.10206  0.03893  0.45587  1.0000
  C   C87       1.0  0.09401  0.03859  0.43554  1.0000
  Fe  Fe12      1.0  0.25779  0.45169  0.36201  1.0000
  C   C88       1.0  0.29920  0.02815  0.50598  1.0000
  C   C89       1.0  0.19932  0.02576  0.66402  1.0000
  C   C90       1.0  0.17447  0.02743  0.68310  1.0000
  H   H117      1.0  0.40807  0.49038  0.58704  1.0000
  N   N7        1.0  0.36013  0.50539  0.54954  1.0000
  H   H118      1.0  0.40218  0.47637  0.54120  1.0000
  H   H119      1.0  0.36000  0.51216  0.68783  1.0000
  C   C91       1.0  0.39904  0.51483  0.58816  1.0000
  H   H120      1.0  0.31156  0.52207  0.55797  1.0000
  C   C92       1.0  0.36223  0.52203  0.52345  1.0000
  C   C93       1.0  0.47236  0.35415  0.98887  1.0000
  H   H121      1.0  0.17113  0.41114  0.77394  1.0000
  S   S24       1.0  0.43778  0.05238  0.82374  1.0000
  H   H122      1.0  0.05805  0.33970  0.96815  1.0000
  H   H123      1.0  0.42720  0.37496  0.81674  1.0000
  C   C94       1.0  0.20886  0.48363  0.77806  1.0000
  C   C95       1.0  0.45214  0.35237  0.01130  1.0000
  C   C96       1.0  0.02455  0.05297  0.87434  1.0000
  S   S25       1.0  0.06190  0.47111  0.84273  1.0000
  Fe  Fe13      1.0  0.45768  0.23803  0.86916  1.0000
  S   S26       1.0  0.41776  0.23754  0.90024  1.0000
  S   S27       1.0  0.48690  0.19678  0.85131  1.0000
  Fe  Fe14      1.0  0.46194  0.31302  0.86762  1.0000
  S   S28       1.0  0.42265  0.31882  0.89894  1.0000
  S   S29       1.0  0.49086  0.34892  0.84193  1.0000
  Fe  Fe15      1.0  0.44769  0.27789  0.91990  1.0000
  S   S30       1.0  0.45537  0.27448  0.96454  1.0000
  Fe  Fe16      1.0  0.39581  0.27818  0.87711  1.0000
  S   S31       1.0  0.34457  0.28024  0.86029  1.0000
  S   S32       1.0  0.48884  0.27560  0.89036  1.0000
  S   S33       1.0  0.43373  0.27517  0.84441  1.0000
  Fe  Fe17      1.0  0.12280  0.21588  0.86884  1.0000
  S   S34       1.0  0.12988  0.22422  0.91258  1.0000
  S   S35       1.0  0.13309  0.16496  0.85292  1.0000
  Fe  Fe18      1.0  0.10925  0.28825  0.85976  1.0000
  S   S36       1.0  0.11510  0.30175  0.90292  1.0000
  S   S37       1.0  0.09595  0.32176  0.82608  1.0000
  Fe  Fe19      1.0  0.15887  0.26920  0.90055  1.0000
  S   S38       1.0  0.20709  0.27941  0.92124  1.0000
  Fe  Fe20      1.0  0.08580  0.25552  0.91128  1.0000
  H   H124      1.0  0.10380  0.44101  0.76431  1.0000
  S   S39       1.0  0.15483  0.25877  0.85691  1.0000
  S   S40       1.0  0.07690  0.24417  0.86799  1.0000
  H   H125      1.0  0.47160  0.42027  0.76138  1.0000
  H   H126      1.0  0.38856  0.33344  0.83289  1.0000
  C   C97       1.0  0.04795  0.27943  0.01290  1.0000
  C   C98       1.0  0.48538  0.46019  0.84000  1.0000
  C   C99       1.0  0.50725  0.40941  0.82343  1.0000
  H   H127      1.0  0.16663  0.47351  0.72014  1.0000
  C   C100      1.0  0.48945  0.39181  0.84281  1.0000
  C   C101      1.0  0.47017  0.40859  0.86128  1.0000
  C   C102      1.0  0.46852  0.44282  0.86009  1.0000
  N   N8        1.0  0.15203  0.45954  0.77414  1.0000
  H   H128      1.0  0.13382  0.50670  0.78467  1.0000
  H   H129      1.0  0.45645  0.39519  0.87631  1.0000
  H   H130      1.0  0.45337  0.45570  0.87426  1.0000
  C   C103      1.0  0.30686  0.28122  0.87792  1.0000
  C   C104      1.0  0.30497  0.28211  0.90571  1.0000
  C   C105      1.0  0.27427  0.28198  0.91874  1.0000
  C   C106      1.0  0.24526  0.28104  0.90415  1.0000
  C   C107      1.0  0.24722  0.28062  0.87638  1.0000
  C   C108      1.0  0.27784  0.28060  0.86337  1.0000
  H   H131      1.0  0.32712  0.28272  0.91714  1.0000
  H   H132      1.0  0.27300  0.28243  0.94024  1.0000
  H   H133      1.0  0.22515  0.28049  0.86493  1.0000
  H   H134      1.0  0.27909  0.28008  0.84188  1.0000
  H   H135      1.0  0.05784  0.31569  0.93868  1.0000
  H   H136      1.0  0.46379  0.39000  0.78583  1.0000
  H   H137      1.0  0.46189  0.35611  0.96929  1.0000
  S   S41       1.0  0.02655  0.06867  0.80157  1.0000
  H   H138      1.0  0.07678  0.05479  0.87141  1.0000
  C   C109      1.0  0.49427  0.27189  0.97924  1.0000
  C   C110      1.0  0.49626  0.26195  0.00580  1.0000
  C   C111      1.0  0.05556  0.27111  0.98630  1.0000
  S   S42       1.0  0.49571  0.50206  0.75746  1.0000
  C   C112      1.0  0.18569  0.47941  0.73410  1.0000
  C   C113      1.0  0.07285  0.43015  0.83721  1.0000
  C   C114      1.0  0.06865  0.41464  0.81257  1.0000
  C   C115      1.0  0.07647  0.38157  0.80932  1.0000
  C   C116      1.0  0.08827  0.36371  0.83070  1.0000
  C   C117      1.0  0.09282  0.37937  0.85525  1.0000
  C   C118      1.0  0.08512  0.41245  0.85846  1.0000
  H   H139      1.0  0.11864  0.47373  0.74393  1.0000
  H   H140      1.0  0.07264  0.36951  0.79034  1.0000
  H   H141      1.0  0.10181  0.36589  0.87184  1.0000
  H   H142      1.0  0.08828  0.42426  0.87761  1.0000
  C   C119      1.0  0.05694  0.09552  0.81467  1.0000
  C   C120      1.0  0.08891  0.08561  0.81840  1.0000
  C   C121      1.0  0.11207  0.10729  0.82988  1.0000
  C   C122      1.0  0.10360  0.13910  0.83743  1.0000
  C   C123      1.0  0.07186  0.14925  0.83312  1.0000
  C   C124      1.0  0.21427  0.49357  0.72336  1.0000
  H   H143      1.0  0.09564  0.06112  0.81282  1.0000
  H   H144      1.0  0.13660  0.09926  0.83306  1.0000
  H   H145      1.0  0.06533  0.17390  0.83830  1.0000
  C   C125      1.0  0.12619  0.45151  0.75455  1.0000
  C   C126      1.0  0.45070  0.09321  0.82966  1.0000
  C   C127      1.0  0.43039  0.11401  0.84442  1.0000
  C   C128      1.0  0.44065  0.14626  0.85051  1.0000
  C   C129      1.0  0.47154  0.15767  0.84221  1.0000
  C   C130      1.0  0.49177  0.13686  0.82746  1.0000
  C   C131      1.0  0.48133  0.10484  0.82100  1.0000
  H   H146      1.0  0.40672  0.10508  0.85127  1.0000
  H   H147      1.0  0.42499  0.16204  0.86203  1.0000
  S   S43       1.0  0.03919  0.24743  0.93608  1.0000
  H   H148      1.0  0.47962  0.20043  0.90827  1.0000
  N   N9        1.0  0.23363  0.18006  0.86473  1.0000
  C   C132      1.0  0.21544  0.19172  0.88861  1.0000
  C   C133      1.0  0.22235  0.19867  0.84163  1.0000
  C   C134      1.0  0.22464  0.14505  0.86078  1.0000
  C   C135      1.0  0.26952  0.18403  0.86687  1.0000
  C   C136      1.0  0.28494  0.19856  0.88938  1.0000
  C   C137      1.0  0.29022  0.17344  0.84577  1.0000
  C   C138      1.0  0.31892  0.20211  0.89050  1.0000
  C   C139      1.0  0.32415  0.17729  0.84707  1.0000
  C   C140      1.0  0.33844  0.19171  0.86935  1.0000
  H   H149      1.0  0.21958  0.21833  0.89204  1.0000
  H   H150      1.0  0.18860  0.18805  0.88645  1.0000
  H   H151      1.0  0.22233  0.17854  0.90681  1.0000
  H   H152      1.0  0.22973  0.22492  0.84346  1.0000
  H   H153      1.0  0.19529  0.19728  0.83991  1.0000
  H   H154      1.0  0.23241  0.18947  0.82246  1.0000
  H   H155      1.0  0.19767  0.14102  0.86022  1.0000
  H   H156      1.0  0.23430  0.13507  0.84173  1.0000
  H   H157      1.0  0.23403  0.13009  0.87719  1.0000
  H   H158      1.0  0.27138  0.20824  0.90612  1.0000
  H   H159      1.0  0.28031  0.16251  0.82790  1.0000
  H   H160      1.0  0.33019  0.21415  0.90747  1.0000
  H   H161      1.0  0.33954  0.16958  0.83057  1.0000
  H   H162      1.0  0.36468  0.19550  0.87000  1.0000
  N   N10       1.0  0.42110  0.41620  0.77420  1.0000
  C   C141      1.0  0.42525  0.44123  0.79543  1.0000
  C   C142      1.0  0.45317  0.40160  0.76822  1.0000
  C   C143      1.0  0.41093  0.43325  0.74987  1.0000
  C   C144      1.0  0.39759  0.39055  0.78349  1.0000
  C   C145      1.0  0.40462  0.37154  0.80608  1.0000
  C   C146      1.0  0.36708  0.38411  0.77110  1.0000
  C   C147      1.0  0.38264  0.34765  0.81559  1.0000
  C   C148      1.0  0.34527  0.36004  0.78082  1.0000
  C   C149      1.0  0.35305  0.34187  0.80301  1.0000
  H   H163      1.0  0.51578  0.14551  0.82114  1.0000
  S   S44       1.0  0.05913  0.50423  0.76622  1.0000
  H   H164      1.0  0.44335  0.46074  0.78966  1.0000
  H   H165      1.0  0.13438  0.43307  0.73967  1.0000
  N   N11       1.0  0.03249  0.14963  0.90918  1.0000
  H   H166      1.0  0.45098  0.38235  0.75253  1.0000
  H   H167      1.0  0.38796  0.44667  0.75322  1.0000
  H   H168      1.0  0.42949  0.45208  0.74344  1.0000
  H   H169      1.0  0.40775  0.41601  0.73282  1.0000
  H   H170      1.0  0.43404  0.43059  0.81407  1.0000
  H   H171      1.0  0.35949  0.39734  0.75394  1.0000
  H   H172      1.0  0.28232  0.04652  0.72592  1.0000
  H   H173      1.0  0.32215  0.35538  0.77114  1.0000
  H   H174      1.0  0.33620  0.32323  0.81062  1.0000
  H   H175      1.0  0.21622  0.49797  0.70214  1.0000
  H   H176      1.0  0.15445  0.48734  0.81107  1.0000
  H   H177      1.0  0.48764  0.22241  0.93814  1.0000
  C   C150      1.0  0.05523  0.06745  0.87812  1.0000
  S   S45       1.0  0.47984  0.50241  0.83698  1.0000
  C   C151      1.0  0.05831  0.09866  0.88946  1.0000
  H   H178      1.0  0.03120  0.13251  0.94945  1.0000
  Fe  Fe21      1.0  0.05265  0.50825  0.81057  1.0000
  S   S46       1.0  0.41527  0.51955  0.72217  1.0000
  C   C152      1.0  0.18206  0.47409  0.76192  1.0000
  H   H179      1.0  0.40181  0.45311  0.80030  1.0000
  C   C153      1.0  0.50598  0.35225  0.99151  1.0000
  C   C154      1.0  0.50402  0.10574  0.89155  1.0000
  C   C155      1.0  0.03037  0.11623  0.89766  1.0000
  H   H180      1.0  0.11457  0.47350  0.80243  1.0000
  C   C156      1.0  0.03175  0.25650  0.97018  1.0000
  H   H181      1.0  0.47563  0.14575  0.90315  1.0000
  H   H182      1.0  0.03558  0.40252  0.94895  1.0000
  H   H183      1.0  0.02395  0.13535  0.81902  1.0000
  H   H184      1.0  0.07816  0.16499  0.89086  1.0000
  H   H185      1.0  0.42594  0.35334  0.00903  1.0000
  H   H186      1.0  0.51812  0.45659  0.80633  1.0000
  H   H187      1.0  0.13755  0.41689  0.79673  1.0000
  C   C157      1.0  0.04857  0.12745  0.82199  1.0000
  H   H188      1.0  0.07361  0.35680  0.93743  1.0000
  H   H189      1.0  0.08174  0.14782  0.92369  1.0000
  H   H190      1.0  0.07981  0.27607  0.97835  1.0000
  H   H191      1.0  0.20782  0.48045  0.79935  1.0000
  H   H192      1.0  0.52159  0.16665  0.96742  1.0000
  C   C158      1.0  0.15981  0.42894  0.78791  1.0000
  H   H193      1.0  0.05857  0.42786  0.79626  1.0000
  H   H194      1.0  0.26178  0.51445  0.73136  1.0000
  C   C159      1.0  0.06642  0.16297  0.91087  1.0000
  S   S47       1.0  0.48988  0.03405  0.75592  1.0000
  C   C160      1.0  0.23728  0.49791  0.76710  1.0000
  H   H195      1.0  0.49722  0.08898  0.80978  1.0000
  H   H196      1.0  0.08284  0.10870  0.89091  1.0000
  H   H197      1.0  0.48346  0.09321  0.88222  1.0000
  C   C161      1.0  0.13823  0.48272  0.79390  1.0000
  H   H198      1.0  0.06716  0.18791  0.91978  1.0000
  C   C162      1.0  0.05406  0.34081  0.94632  1.0000
  C   C163      1.0  0.49986  0.13616  0.90380  1.0000
  H   H199      1.0  0.47415  0.25536  0.01668  1.0000
  C   C164      1.0  0.48930  0.19788  0.92865  1.0000
  H   H200      1.0  0.17683  0.43319  0.80465  1.0000
  C   C165      1.0  0.02266  0.32844  0.89390  1.0000
  H   H201      1.0  0.47276  0.18122  0.94020  1.0000
  C   C166      1.0  0.23993  0.50296  0.73981  1.0000
  H   H202      1.0  0.25725  0.50541  0.77986  1.0000
  C   C167      1.0  0.50486  0.44340  0.82174  1.0000
  C   C168      1.0  0.51957  0.34768  0.01648  1.0000
  H   H203      1.0  0.02876  0.30497  0.90176  1.0000
  H   H204      1.0  0.06653  0.29073  0.02528  1.0000
  H   H205      1.0  0.02475  0.30981  0.85365  1.0000
  H   H206      1.0  0.52153  0.35294  0.97389  1.0000
  H   H207      1.0  0.02235  0.02921  0.86473  1.0000
  H   H208      1.0  0.02242  0.17121  0.87151  1.0000
  C   C169      1.0  0.44691  0.91834  0.28290  1.0000
  H   H209      1.0  0.49889  0.95894  0.28661  1.0000
  C   C170      1.0  0.15320  0.57321  0.32757  1.0000
  C   C171      1.0  0.04168  0.73655  0.05030  1.0000
  H   H210      1.0  0.08686  0.53519  0.30725  1.0000
  H   H211      1.0  0.48569  0.73188  0.06726  1.0000
  C   C172      1.0  0.51134  0.60264  0.27638  1.0000
  H   H212      1.0  0.46817  0.91221  0.26982  1.0000
  C   C173      1.0  0.08859  0.83033  0.04104  1.0000
  H   H213      1.0  0.04029  0.57889  0.33872  1.0000
  H   H214      1.0  0.09337  0.82075  0.08216  1.0000
  C   C174      1.0  0.03426  0.52732  0.19344  1.0000
  H   H215      1.0  0.06043  0.54439  0.35129  1.0000
  C   C175      1.0  0.04599  0.84169  0.07455  1.0000
  H   H216      1.0  0.38109  0.94688  0.27710  1.0000
  H   H217      1.0  0.46581  0.96922  0.25055  1.0000
  H   H218      1.0  0.09835  0.62804  0.34530  1.0000
  H   H219      1.0  0.05867  0.71993  0.05874  1.0000
  H   H220      1.0  0.42308  0.96204  0.25090  1.0000
  H   H221      1.0  0.46106  0.54798  0.24496  1.0000
  C   C176      1.0  0.35859  0.96492  0.31242  1.0000
  C   C177      1.0  0.46627  0.55321  0.34180  1.0000
  H   H222      1.0  0.43978  0.99794  0.26686  1.0000
  H   H223      1.0  0.34190  0.98514  0.34969  1.0000
  C   C178      1.0  0.50132  0.75188  0.06053  1.0000
  H   H224      1.0  0.44476  0.97720  0.34190  1.0000
  H   H225      1.0  0.14499  0.01948  0.32008  1.0000
  H   H226      1.0  0.41831  0.55683  0.27635  1.0000
  C   C179      1.0  0.39403  0.98068  0.34837  1.0000
  C   C180      1.0  0.49540  0.76647  0.03598  1.0000
  H   H227      1.0  0.11230  0.82071  0.03596  1.0000
  H   H228      1.0  0.44878  0.90414  0.30152  1.0000
  C   C181      1.0  0.43443  0.54072  0.34041  1.0000
  C   C182      1.0  0.45753  0.61104  0.26050  1.0000
  H   H229      1.0  0.15364  0.58407  0.30811  1.0000
  C   C183      1.0  0.48107  0.56825  0.31970  1.0000
  H   H230      1.0  0.45127  0.62954  0.27598  1.0000
  N   N12       1.0  0.44625  0.95383  0.28873  1.0000
  C   C184      1.0  0.02670  0.85344  0.05358  1.0000
  C   C185      1.0  0.42130  0.97268  0.33287  1.0000
  H   H231      1.0  0.49600  0.57054  0.23243  1.0000
  N   N13       1.0  0.03484  0.84163  0.10272  1.0000
  H   H232      1.0  0.20520  0.56603  0.32589  1.0000
  H   H233      1.0  0.10577  0.56859  0.28965  1.0000
  C   C186      1.0  0.03506  0.80800  0.11324  1.0000
  H   H234      1.0  0.04874  0.86394  0.14010  1.0000
  C   C187      1.0  0.06336  0.57118  0.34795  1.0000
  H   H235      1.0  0.46917  0.62418  0.24338  1.0000
  H   H236      1.0  0.50951  0.62140  0.29243  1.0000
  S   S48       1.0  0.02344  0.01488  0.24409  1.0000
  C   C188      1.0  0.38565  0.95640  0.29684  1.0000
  C   C189      1.0  0.46419  0.57106  0.29535  1.0000
  H   H237      1.0  0.33422  0.96260  0.30442  1.0000
  C   C190      1.0  0.41794  0.96093  0.30630  1.0000
  H   H238      1.0  0.08228  0.85332  0.11907  1.0000
  H   H239      1.0  0.06308  0.56840  0.29618  1.0000
  C   C191      1.0  0.41732  0.54291  0.31684  1.0000
  C   C192      1.0  0.48430  0.56052  0.25082  1.0000
  C   C193      1.0  0.47811  0.96363  0.30051  1.0000
  C   C194      1.0  0.18293  0.56334  0.33765  1.0000
  C   C195      1.0  0.44351  0.97150  0.26326  1.0000
  H   H240      1.0  0.52084  0.89165  0.21467  1.0000
  H   H241      1.0  0.43438  0.60018  0.25281  1.0000
  S   S49       1.0  0.02332  0.58980  0.25348  1.0000
  H   H242      1.0  0.52112  0.61547  0.25845  1.0000
  H   H243      1.0  0.48308  0.94971  0.31880  1.0000
  C   C196      1.0  0.05709  0.86263  0.11889  1.0000
  H   H244      1.0  0.47917  0.99015  0.30546  1.0000
  H   H245      1.0  0.47977  0.55052  0.35997  1.0000
  C   C197      1.0  0.43201  0.55743  0.29452  1.0000
  H   H246      1.0  0.02744  0.80731  0.13455  1.0000
  C   C198      1.0  0.07733  0.83019  0.06742  1.0000
  H   H247      1.0  0.03661  0.58804  0.18434  1.0000
  C   C199      1.0  0.12349  0.56848  0.34206  1.0000
  C   C200      1.0  0.36281  0.97734  0.33803  1.0000
  N   N14       1.0  0.47926  0.58616  0.27134  1.0000
  H   H248      1.0  0.05891  0.53787  0.18871  1.0000
  H   H249      1.0  0.42329  0.52828  0.35731  1.0000
  N   N15       1.0  0.09228  0.57880  0.33074  1.0000
  H   H250      1.0  0.05848  0.88796  0.11112  1.0000
  H   H251      1.0  0.07011  0.62317  0.31829  1.0000
  C   C201      1.0  0.09350  0.61453  0.32639  1.0000
  H   H252      1.0  0.05948  0.79703  0.11204  1.0000
  H   H253      1.0  0.02643  0.65634  0.23611  1.0000
  C   C202      1.0  0.08689  0.56208  0.30485  1.0000
  H   H254      1.0  0.11287  0.62194  0.31182  1.0000
  H   H255      1.0  0.50599  0.57678  0.32203  1.0000
  H   H256      1.0  0.42462  0.90942  0.27249  1.0000
  H   H257      1.0  0.39301  0.53197  0.31558  1.0000
  H   H258      1.0  0.50012  0.54119  0.25838  1.0000
  H   H259      1.0  0.02348  0.63912  0.16414  1.0000
  H   H260      1.0  0.02273  0.54248  0.20929  1.0000
  Fe  Fe22      1.0  0.27571  0.95023  0.57721  1.0000
  S   S50       1.0  0.23144  0.91855  0.56917  1.0000
  S   S51       1.0  0.29940  0.98772  0.54927  1.0000
  Fe  Fe23      1.0  0.28621  0.91873  0.63141  1.0000
  S   S52       1.0  0.24288  0.88437  0.62721  1.0000
  S   S53       1.0  0.31261  0.91447  0.67027  1.0000
  Fe  Fe24      1.0  0.26039  0.87730  0.58514  1.0000
  S   S54       1.0  0.26636  0.82962  0.56220  1.0000
  Fe  Fe25      1.0  0.21788  0.92832  0.61206  1.0000
  S   S55       1.0  0.16674  0.94184  0.62423  1.0000
  S   S56       1.0  0.30591  0.90835  0.59050  1.0000
  S   S57       1.0  0.25996  0.96322  0.61899  1.0000
  Fe  Fe26      1.0  0.27126  0.58885  0.57120  1.0000
  S   S58       1.0  0.22029  0.60125  0.58414  1.0000
  S   S59       1.0  0.28738  0.57654  0.52881  1.0000
  Fe  Fe27      1.0  0.29942  0.60637  0.62575  1.0000
  S   S60       1.0  0.25062  0.61902  0.64279  1.0000
  S   S61       1.0  0.34394  0.62065  0.64965  1.0000
  Fe  Fe28      1.0  0.23207  0.57431  0.62139  1.0000
  H   H261      1.0  0.32166  0.98982  0.45632  1.0000
  Fe  Fe29      1.0  0.24303  0.64517  0.60454  1.0000
  S   S62       1.0  0.21907  0.69381  0.61163  1.0000
  S   S63       1.0  0.28191  0.55893  0.60720  1.0000
  S   S64       1.0  0.29305  0.63534  0.58865  1.0000
  C   C203      1.0  0.36287  0.59214  0.66999  1.0000
  C   C204      1.0  0.35211  0.55951  0.67103  1.0000
  H   H262      1.0  0.15130  0.59992  0.62965  1.0000
  H   H263      1.0  0.15647  0.66614  0.67955  1.0000
  H   H264      1.0  0.34832  0.54488  0.52321  1.0000
  H   H265      1.0  0.33142  0.55131  0.65941  1.0000
  C   C205      1.0  0.06442  0.02198  0.43047  1.0000
  H   H266      1.0  0.20705  0.54052  0.36993  1.0000
  C   C206      1.0  0.32141  0.77593  0.61902  1.0000
  H   H267      1.0  0.24889  0.01714  0.65554  1.0000
  H   H268      1.0  0.28991  0.71787  0.67857  1.0000
  C   C207      1.0  0.17798  0.54636  0.67037  1.0000
  C   C208      1.0  0.23808  0.00685  0.48837  1.0000
  H   H269      1.0  0.33259  0.68040  0.62182  1.0000
  H   H270      1.0  0.21946  0.57544  0.68305  1.0000
  H   H271      1.0  0.23683  0.97590  0.52299  1.0000
  C   C209      1.0  0.34855  0.93759  0.67643  1.0000
  H   H272      1.0  0.37526  0.72752  0.65462  1.0000
  C   C210      1.0  0.18059  0.93768  0.67768  1.0000
  C   C211      1.0  0.11029  0.61654  0.68390  1.0000
  H   H273      1.0  0.31436  0.85449  0.64028  1.0000
  C   C212      1.0  0.36151  0.95976  0.65789  1.0000
  H   H274      1.0  0.31652  0.76795  0.68654  1.0000
  C   C213      1.0  0.32928  0.70708  0.61956  1.0000
  H   H275      1.0  0.34998  0.96228  0.63884  1.0000
  C   C214      1.0  0.15739  0.94450  0.65853  1.0000
  C   C215      1.0  0.12617  0.95397  0.66677  1.0000
  C   C216      1.0  0.07400  0.62724  0.64764  1.0000
  C   C217      1.0  0.37796  0.57868  0.59461  1.0000
  C   C218      1.0  0.29406  0.70907  0.65788  1.0000
  H   H276      1.0  0.15645  0.53226  0.39648  1.0000
  H   H277      1.0  0.10812  0.95917  0.65203  1.0000
  C   C219      1.0  0.12542  0.65870  0.61761  1.0000
  H   H278      1.0  0.21440  0.99838  0.48159  1.0000
  C   C220      1.0  0.25437  0.79199  0.57684  1.0000
  C   C221      1.0  0.23485  0.79081  0.59985  1.0000
  C   C222      1.0  0.22455  0.76053  0.61038  1.0000
  C   C223      1.0  0.23413  0.73117  0.59835  1.0000
  C   C224      1.0  0.25440  0.73228  0.57576  1.0000
  C   C225      1.0  0.26423  0.76261  0.56492  1.0000
  H   H279      1.0  0.22706  0.81322  0.60920  1.0000
  H   H280      1.0  0.20883  0.75993  0.62783  1.0000
  H   H281      1.0  0.26170  0.70982  0.56617  1.0000
  H   H282      1.0  0.27929  0.76329  0.54710  1.0000
  C   C226      1.0  0.31923  0.80986  0.61800  1.0000
  C   C227      1.0  0.14641  0.67398  0.66032  1.0000
  C   C228      1.0  0.27721  0.54058  0.51043  1.0000
  C   C229      1.0  0.36483  0.55876  0.57455  1.0000
  H   H283      1.0  0.16665  0.68747  0.64984  1.0000
  C   C230      1.0  0.14771  0.53246  0.67813  1.0000
  H   H284      1.0  0.35615  0.68911  0.66350  1.0000
  C   C231      1.0  0.10592  0.62993  0.65834  1.0000
  H   H285      1.0  0.29198  0.98773  0.66812  1.0000
  H   H286      1.0  0.27220  0.71521  0.64623  1.0000
  N   N16       1.0  0.27869  0.89332  0.49439  1.0000
  C   C232      1.0  0.24416  0.89080  0.50357  1.0000
  C   C233      1.0  0.28862  0.86095  0.48420  1.0000
  C   C234      1.0  0.29882  0.90132  0.51800  1.0000
  C   C235      1.0  0.28211  0.91781  0.47301  1.0000
  C   C236      1.0  0.30377  0.94543  0.47461  1.0000
  C   C237      1.0  0.26309  0.91458  0.44971  1.0000
  C   C238      1.0  0.30563  0.96849  0.45434  1.0000
  C   C239      1.0  0.26478  0.93811  0.42976  1.0000
  C   C240      1.0  0.28584  0.96515  0.43219  1.0000
  H   H287      1.0  0.22759  0.88095  0.48802  1.0000
  H   H288      1.0  0.24103  0.87409  0.52083  1.0000
  H   H289      1.0  0.23517  0.91515  0.50982  1.0000
  H   H290      1.0  0.27301  0.85190  0.46769  1.0000
  H   H291      1.0  0.28680  0.84213  0.50008  1.0000
  H   H292      1.0  0.31432  0.86193  0.47674  1.0000
  H   H293      1.0  0.29183  0.92497  0.52719  1.0000
  H   H294      1.0  0.29564  0.88264  0.53376  1.0000
  H   H295      1.0  0.32532  0.90248  0.51298  1.0000
  H   H296      1.0  0.31886  0.95049  0.49168  1.0000
  H   H297      1.0  0.24631  0.89411  0.44697  1.0000
  H   H298      1.0  0.13386  0.61731  0.69327  1.0000
  H   H299      1.0  0.24934  0.93571  0.41251  1.0000
  H   H300      1.0  0.10644  0.67754  0.61917  1.0000
  H   H301      1.0  0.02949  0.00709  0.40081  1.0000
  H   H302      1.0  0.29500  0.68192  0.65868  1.0000
  H   H303      1.0  0.18080  0.63314  0.62810  1.0000
  C   C241      1.0  0.25078  0.99394  0.51181  1.0000
  C   C242      1.0  0.36835  0.53738  0.68708  1.0000
  C   C243      1.0  0.11823  0.95707  0.69395  1.0000
  C   C244      1.0  0.16024  0.62248  0.64009  1.0000
  C   C245      1.0  0.23098  0.01824  0.67139  1.0000
  H   H304      1.0  0.20469  0.93035  0.67149  1.0000
  C   C246      1.0  0.35233  0.71592  0.66254  1.0000
  C   C247      1.0  0.38936  0.97898  0.66418  1.0000
  C   C248      1.0  0.31756  0.77883  0.66709  1.0000
  H   H305      1.0  0.06824  0.63651  0.62833  1.0000
  C   C249      1.0  0.31524  0.81277  0.66577  1.0000
  N   N17       1.0  0.32416  0.72352  0.64568  1.0000
  H   H306      1.0  0.32297  0.76334  0.60011  1.0000
  C   C250      1.0  0.05233  0.02006  0.40472  1.0000
  C   C251      1.0  0.04828  0.61212  0.66188  1.0000
  C   C252      1.0  0.32108  0.75935  0.64373  1.0000
  H   H307      1.0  0.17095  0.61485  0.65908  1.0000
  H   H308      1.0  0.39845  0.62760  0.68418  1.0000
  H   H309      1.0  0.39925  0.99623  0.64987  1.0000
  C   C253      1.0  0.29052  0.53666  0.48472  1.0000
  C   C254      1.0  0.28152  0.00442  0.52067  1.0000
  H   H310      1.0  0.28644  0.98392  0.41714  1.0000
  H   H311      1.0  0.34906  0.72429  0.68345  1.0000
  H   H312      1.0  0.14705  0.67062  0.60762  1.0000
  H   H313      1.0  0.11697  0.63866  0.60406  1.0000
  H   H314      1.0  0.30546  0.55611  0.47615  1.0000
  H   H315      1.0  0.35159  0.71672  0.60918  1.0000
  N   N18       1.0  0.13377  0.64603  0.64416  1.0000
  H   H316      1.0  0.41087  0.58216  0.62745  1.0000
  H   H317      1.0  0.31945  0.82205  0.59897  1.0000
  H   H318      1.0  0.12685  0.69160  0.66481  1.0000
  H   H319      1.0  0.02409  0.61020  0.65346  1.0000
  C   C255      1.0  0.15547  0.54427  0.37742  1.0000
  C   C256      1.0  0.31619  0.82822  0.64127  1.0000
  H   H320      1.0  0.36948  0.60332  0.59744  1.0000
  H   H321      1.0  0.34596  0.56891  0.56258  1.0000
  C   C257      1.0  0.38990  0.60244  0.68497  1.0000
  C   C258      1.0  0.05347  0.59934  0.68696  1.0000
  S   S65       1.0  0.19290  0.53987  0.63777  1.0000
  H   H322      1.0  0.06499  0.58391  0.36754  1.0000
  C   C259      1.0  0.12551  0.55359  0.36739  1.0000
  C   C260      1.0  0.19585  0.56517  0.68865  1.0000
  H   H323      1.0  0.30787  0.70967  0.60645  1.0000
  H   H324      1.0  0.31269  0.82738  0.68376  1.0000
  C   C261      1.0  0.29657  0.00460  0.68523  1.0000
  H   H325      1.0  0.10428  0.54811  0.37962  1.0000
  H   H326      1.0  0.39724  0.99093  0.36817  1.0000
  H   H327      1.0  0.32118  0.99845  0.69246  1.0000
  C   C262      1.0  0.41173  0.53493  0.60840  1.0000
  H   H328      1.0  0.51789  0.98237  0.67311  1.0000
  C   C263      1.0  0.40440  0.97596  0.68891  1.0000
  C   C264      1.0  0.40130  0.56679  0.61154  1.0000
  H   H329      1.0  0.05080  0.01041  0.44658  1.0000
  C   C265      1.0  0.18407  0.54899  0.36254  1.0000
  H   H330      1.0  0.38796  0.52848  0.51797  1.0000
  H   H331      1.0  0.42950  0.52571  0.62201  1.0000
  C   C266      1.0  0.37518  0.52628  0.57048  1.0000
  Fe  Fe30      1.0  0.13553  0.74497  0.91726  1.0000
  S   S66       1.0  0.09061  0.77101  0.93093  1.0000
  S   S67       1.0  0.14213  0.70422  0.88734  1.0000
  Fe  Fe31      1.0  0.18062  0.78083  0.95666  1.0000
  S   S68       1.0  0.13951  0.80984  0.97376  1.0000
  S   S69       1.0  0.23048  0.78092  0.97554  1.0000
  Fe  Fe32      1.0  0.10918  0.76349  0.97244  1.0000
  S   S70       1.0  0.08479  0.73952  0.00838  1.0000
  Fe  Fe33      1.0  0.12443  0.81543  0.93113  1.0000
  S   S71       1.0  0.11609  0.86642  0.91649  1.0000
  S   S72       1.0  0.15158  0.73402  0.95836  1.0000
  S   S73       1.0  0.16805  0.78975  0.91428  1.0000
  Fe  Fe34      1.0  0.47737  0.73596  0.91907  1.0000
  S   S74       1.0  0.50287  0.77169  0.94639  1.0000
  S   S75       1.0  0.46253  0.75168  0.01645  1.0000
  Fe  Fe35      1.0  0.41134  0.76835  0.92679  1.0000
  S   S76       1.0  0.43163  0.80601  0.95524  1.0000
  S   S77       1.0  0.36130  0.76968  0.90825  1.0000
  Fe  Fe36      1.0  0.47375  0.80950  0.92614  1.0000
  S   S78       1.0  0.49427  0.85902  0.91451  1.0000
  Fe  Fe37      1.0  0.45896  0.76476  0.97294  1.0000
  H   H332      1.0  0.04820  0.67982  0.99601  1.0000
  S   S79       1.0  0.45188  0.77441  0.89656  1.0000
  S   S80       1.0  0.43494  0.72647  0.94676  1.0000
  Fe  Fe38      1.0  0.47177  0.94751  0.78343  1.0000
  S   S81       1.0  0.46391  0.89526  0.79595  1.0000
  Fe  Fe39      1.0  0.45991  0.99323  0.73743  1.0000
  C   C267      1.0  0.17261  0.94065  0.70489  1.0000
  S   S82       1.0  0.49712  0.95521  0.74413  1.0000
  S   S83       1.0  0.43169  0.98180  0.77478  1.0000
  H   H333      1.0  0.16564  0.88880  0.81049  1.0000
  Fe  Fe40      1.0  0.08727  0.55191  0.76931  1.0000
  H   H334      1.0  0.25944  0.95077  0.69632  1.0000
  Fe  Fe41      1.0  0.08136  0.96862  0.75952  1.0000
  S   S84       1.0  0.13308  0.95654  0.74726  1.0000
  C   C268      1.0  0.36363  0.93456  0.70107  1.0000
  S   S85       1.0  0.07164  0.98078  0.80270  1.0000
  H   H335      1.0  0.21573  0.00679  0.73766  1.0000
  H   H336      1.0  0.13276  0.84429  0.75128  1.0000
  H   H337      1.0  0.38644  0.56498  0.85605  1.0000
  C   C269      1.0  0.04408  0.89269  0.85179  1.0000
  C   C270      1.0  0.26867  0.96578  0.71340  1.0000
  N   N19       1.0  0.27109  0.00077  0.70637  1.0000
  S   S86       1.0  0.50674  0.69371  0.90357  1.0000
  Fe  Fe42      1.0  0.49495  0.59438  0.77450  1.0000
  C   C271      1.0  0.04308  0.86118  0.86248  1.0000
  H   H338      1.0  0.26747  0.01503  0.74798  1.0000
  C   C272      1.0  0.15850  0.88091  0.79013  1.0000
  S   S87       1.0  0.45375  0.56003  0.78552  1.0000
  H   H339      1.0  0.09199  0.69418  0.96668  1.0000
  C   C273      1.0  0.18113  0.02154  0.70964  1.0000
  H   H340      1.0  0.05558  0.59286  0.88545  1.0000
  H   H341      1.0  0.40307  0.95082  0.72624  1.0000
  Fe  Fe43      1.0  0.03864  0.58161  0.80825  1.0000
  C   C274      1.0  0.48977  0.86911  0.88092  1.0000
  C   C275      1.0  0.48720  0.84483  0.86127  1.0000
  C   C276      1.0  0.47987  0.85315  0.83507  1.0000
  C   C277      1.0  0.47560  0.88580  0.82837  1.0000
  C   C278      1.0  0.48028  0.91025  0.84762  1.0000
  C   C279      1.0  0.48742  0.90190  0.87386  1.0000
  H   H342      1.0  0.49031  0.81960  0.86630  1.0000
  H   H343      1.0  0.47688  0.83418  0.82011  1.0000
  H   H344      1.0  0.47706  0.93549  0.84262  1.0000
  H   H345      1.0  0.02324  0.86264  0.01157  1.0000
  S   S88       1.0  0.49730  0.57595  0.73224  1.0000
  C   C280      1.0  0.48229  0.69896  0.85296  1.0000
  C   C281      1.0  0.47891  0.68870  0.82636  1.0000
  H   H346      1.0  0.04354  0.72368  0.96154  1.0000
  H   H347      1.0  0.09494  0.65267  0.95672  1.0000
  C   C282      1.0  0.41148  0.56902  0.84775  1.0000
  H   H348      1.0  0.46809  0.71887  0.86063  1.0000
  H   H349      1.0  0.46213  0.70088  0.81364  1.0000
  C   C283      1.0  0.46571  0.59110  0.85511  1.0000
  H   H350      1.0  0.42182  0.63757  0.83454  1.0000
  C   C284      1.0  0.08789  0.87573  0.89175  1.0000
  C   C285      1.0  0.08868  0.90728  0.88118  1.0000
  C   C286      1.0  0.06693  0.91574  0.86124  1.0000
  N   N20       1.0  0.04668  0.67198  0.95351  1.0000
  H   H351      1.0  0.41895  0.98713  0.84565  1.0000
  C   C287      1.0  0.06501  0.85264  0.88235  1.0000
  H   H352      1.0  0.10619  0.92529  0.88852  1.0000
  H   H353      1.0  0.06764  0.94018  0.85338  1.0000
  C   C288      1.0  0.39150  0.95359  0.70727  1.0000
  H   H354      1.0  0.06414  0.82830  0.89044  1.0000
  C   C289      1.0  0.10918  0.68436  0.87132  1.0000
  C   C290      1.0  0.07705  0.69434  0.87489  1.0000
  H   H355      1.0  0.09128  0.68428  0.93208  1.0000
  C   C291      1.0  0.05782  0.64947  0.84633  1.0000
  C   C292      1.0  0.09006  0.64017  0.84233  1.0000
  C   C293      1.0  0.11559  0.65747  0.85484  1.0000
  H   H356      1.0  0.07199  0.71546  0.88714  1.0000
  N   N21       1.0  0.43292  0.58589  0.86732  1.0000
  H   H357      1.0  0.14042  0.64982  0.85177  1.0000
  C   C294      1.0  0.26746  0.78242  0.95716  1.0000
  C   C295      1.0  0.26817  0.78863  0.92990  1.0000
  C   C296      1.0  0.29735  0.78540  0.91521  1.0000
  C   C297      1.0  0.32619  0.77689  0.92781  1.0000
  C   C298      1.0  0.32592  0.77244  0.95531  1.0000
  C   C299      1.0  0.29657  0.77505  0.96990  1.0000
  H   H358      1.0  0.24602  0.79508  0.92005  1.0000
  H   H359      1.0  0.29745  0.78900  0.89394  1.0000
  H   H360      1.0  0.34805  0.76599  0.96523  1.0000
  H   H361      1.0  0.29625  0.77054  0.99107  1.0000
  H   H362      1.0  0.45367  0.57417  0.90508  1.0000
  N   N22       1.0  0.38310  0.86839  0.88372  1.0000
  C   C300      1.0  0.34699  0.86571  0.88470  1.0000
  C   C301      1.0  0.39553  0.84245  0.86576  1.0000
  C   C302      1.0  0.39506  0.86166  0.91080  1.0000
  C   C303      1.0  0.39344  0.90097  0.87368  1.0000
  C   C304      1.0  0.41067  0.92454  0.88945  1.0000
  C   C305      1.0  0.38570  0.91022  0.84744  1.0000
  C   C306      1.0  0.41948  0.95529  0.87939  1.0000
  C   C307      1.0  0.39490  0.94089  0.83753  1.0000
  C   C308      1.0  0.41167  0.96343  0.85349  1.0000
  H   H363      1.0  0.33617  0.86793  0.86471  1.0000
  H   H364      1.0  0.33838  0.84167  0.89273  1.0000
  H   H365      1.0  0.33662  0.88510  0.89771  1.0000
  H   H366      1.0  0.38534  0.84330  0.84548  1.0000
  H   H367      1.0  0.38952  0.81760  0.87340  1.0000
  H   H368      1.0  0.42242  0.84454  0.86372  1.0000
  H   H369      1.0  0.38526  0.87900  0.92588  1.0000
  H   H370      1.0  0.38721  0.83685  0.91755  1.0000
  H   H371      1.0  0.42224  0.86272  0.91137  1.0000
  H   H372      1.0  0.41822  0.91968  0.90946  1.0000
  H   H373      1.0  0.37271  0.89371  0.83421  1.0000
  H   H374      1.0  0.43296  0.97279  0.89158  1.0000
  H   H375      1.0  0.38932  0.94712  0.81724  1.0000
  H   H376      1.0  0.29285  0.95608  0.71866  1.0000
  N   N23       1.0  0.24110  0.69202  0.91758  1.0000
  C   C309      1.0  0.21400  0.67222  0.92964  1.0000
  C   C310      1.0  0.26470  0.69998  0.93900  1.0000
  C   C311      1.0  0.22800  0.72308  0.90817  1.0000
  C   C312      1.0  0.25561  0.67441  0.89465  1.0000
  C   C313      1.0  0.28973  0.66951  0.89184  1.0000
  C   C314      1.0  0.23557  0.66295  0.87354  1.0000
  C   C315      1.0  0.30264  0.65355  0.86948  1.0000
  C   C316      1.0  0.24873  0.64698  0.85132  1.0000
  C   C317      1.0  0.28219  0.64225  0.84930  1.0000
  H   H377      1.0  0.19283  0.66910  0.91620  1.0000
  H   H378      1.0  0.22226  0.64755  0.93500  1.0000
  H   H379      1.0  0.20415  0.68403  0.94802  1.0000
  H   H380      1.0  0.27575  0.67765  0.94689  1.0000
  H   H381      1.0  0.25283  0.71268  0.95618  1.0000
  H   H382      1.0  0.28450  0.71703  0.93202  1.0000
  H   H383      1.0  0.20805  0.71919  0.89372  1.0000
  H   H384      1.0  0.21790  0.73786  0.92491  1.0000
  H   H385      1.0  0.24730  0.73799  0.89790  1.0000
  H   H386      1.0  0.30706  0.67816  0.90645  1.0000
  H   H387      1.0  0.20954  0.66681  0.87385  1.0000
  H   H388      1.0  0.32874  0.65027  0.86766  1.0000
  H   H389      1.0  0.23285  0.63857  0.83544  1.0000
  C   C318      1.0  0.49632  0.66212  0.81641  1.0000
  N   N24       1.0  0.12448  0.86777  0.78936  1.0000
  C   C319      1.0  0.11612  0.86192  0.76102  1.0000
  C   C320      1.0  0.10242  0.89305  0.79984  1.0000
  H   H390      1.0  0.17602  0.86231  0.78313  1.0000
  C   C321      1.0  0.12138  0.83822  0.80601  1.0000
  H   H391      1.0  0.10316  0.75577  0.80377  1.0000
  C   C322      1.0  0.11264  0.80683  0.79556  1.0000
  H   H392      1.0  0.42114  0.54478  0.84177  1.0000
  H   H393      1.0  0.46487  0.60425  0.83596  1.0000
  H   H394      1.0  0.10744  0.80275  0.77481  1.0000
  H   H395      1.0  0.09040  0.85293  0.75899  1.0000
  H   H396      1.0  0.11835  0.88481  0.74923  1.0000
  C   C323      1.0  0.05349  0.62879  0.91708  1.0000
  H   H397      1.0  0.07673  0.88362  0.80076  1.0000
  H   H398      1.0  0.10313  0.91518  0.78726  1.0000
  H   H399      1.0  0.10905  0.90168  0.82007  1.0000
  H   H400      1.0  0.13382  0.86330  0.84328  1.0000
  C   C324      1.0  0.50356  0.68303  0.86962  1.0000
  C   C325      1.0  0.12460  0.81289  0.84992  1.0000
  H   H401      1.0  0.12860  0.81548  0.87110  1.0000
  H   H402      1.0  0.41271  0.55759  0.89986  1.0000
  H   H403      1.0  0.07801  0.84229  0.00061  1.0000
  H   H404      1.0  0.03777  0.71180  0.92732  1.0000
  S   S89       1.0  0.08400  0.55366  0.81385  1.0000
  H   H405      1.0  0.35376  0.91739  0.71546  1.0000
  S   S90       1.0  0.48935  0.64807  0.78368  1.0000
  C   C326      1.0  0.04863  0.75049  0.02539  1.0000
  C   C327      1.0  0.41930  0.61789  0.87478  1.0000
  C   C328      1.0  0.41058  0.62645  0.90139  1.0000
  C   C329      1.0  0.41503  0.64197  0.85512  1.0000
  C   C330      1.0  0.39875  0.65734  0.90774  1.0000
  C   C331      1.0  0.40320  0.67274  0.86172  1.0000
  C   C332      1.0  0.39523  0.68048  0.88798  1.0000
  Fe  Fe44      1.0  0.03004  0.94435  0.79907  1.0000
  C   C333      1.0  0.15293  0.55686  0.72210  1.0000
  C   C334      1.0  0.51834  0.64681  0.83283  1.0000
  S   S91       1.0  0.02527  0.62636  0.83242  1.0000
  C   C335      1.0  0.05138  0.67682  0.86246  1.0000
  H   H406      1.0  0.39302  0.66375  0.92823  1.0000
  Fe  Fe45      1.0  0.45939  0.53857  0.74476  1.0000
  H   H407      1.0  0.38685  0.70467  0.89311  1.0000
  H   H408      1.0  0.51172  0.68989  0.00340  1.0000
  C   C336      1.0  0.43660  0.56356  0.89009  1.0000
  C   C337      1.0  0.14154  0.95068  0.71307  1.0000
  S   S92       1.0  0.13834  0.56469  0.75454  1.0000
  C   C338      1.0  0.13508  0.53781  0.70393  1.0000
  S   S93       1.0  0.04198  0.92988  0.75698  1.0000
  H   H409      1.0  0.48192  0.60532  0.86873  1.0000
  H   H410      1.0  0.09538  0.61959  0.82961  1.0000
  H   H411      1.0  0.02647  0.68419  0.86554  1.0000
  C   C339      1.0  0.11603  0.78252  0.83912  1.0000
  H   H412      1.0  0.40122  0.69106  0.84647  1.0000
  C   C340      1.0  0.11007  0.77949  0.81200  1.0000
  C   C341      1.0  0.08278  0.67579  0.95204  1.0000
  C   C342      1.0  0.23851  0.01145  0.69824  1.0000
  H   H413      1.0  0.48977  0.92081  0.88894  1.0000
  H   H414      1.0  0.07969  0.63195  0.91617  1.0000
  H   H415      1.0  0.19075  0.93572  0.71958  1.0000
  H   H416      1.0  0.47789  0.56778  0.85052  1.0000
  C   C343      1.0  0.40608  0.58036  0.70102  1.0000
  H   H417      1.0  0.41332  0.61002  0.91776  1.0000
  H   H418      1.0  0.44707  0.53985  0.88355  1.0000
  H   H419      1.0  0.29231  0.63013  0.83192  1.0000
  H   H420      1.0  0.40942  0.58305  0.82910  1.0000
  C   C344      1.0  0.18338  0.57031  0.71443  1.0000
  C   C345      1.0  0.12737  0.84031  0.83372  1.0000
  H   H421      1.0  0.11384  0.76131  0.85182  1.0000
  H   H422      1.0  0.19740  0.58481  0.72853  1.0000
  H   H423      1.0  0.16186  0.90278  0.77727  1.0000
  C   C346      1.0  0.03766  0.66238  0.98106  1.0000
  S   S94       1.0  0.04379  0.58333  0.76380  1.0000
  C   C347      1.0  0.03290  0.70436  0.94825  1.0000
  C   C348      1.0  0.39537  0.54775  0.70213  1.0000
  H   H424      1.0  0.04666  0.63772  0.98557  1.0000
  H   H425      1.0  0.25169  0.96120  0.73044  1.0000
  S   S95       1.0  0.43903  0.00052  0.69660  1.0000
  H   H426      1.0  0.03129  0.78223  0.99521  1.0000
  S   S96       1.0  0.50240  0.98466  0.80549  1.0000
  C   C349      1.0  0.02634  0.77157  0.01447  1.0000
  S   S97       1.0  0.04974  0.00789  0.74403  1.0000
  H   H427      1.0  0.08856  0.59154  0.71739  1.0000
  C   C350      1.0  0.08442  0.60162  0.69792  1.0000
  H   H428      1.0  0.50637  0.70223  0.96951  1.0000
  C   C351      1.0  0.06927  0.84238  0.02106  1.0000
  C   C352      1.0  0.03996  0.60600  0.89924  1.0000
  C   C353      1.0  0.03337  0.64742  0.93446  1.0000
  Fe  Fe46      1.0  0.03671  0.01713  0.78704  1.0000
  C   C354      1.0  0.21250  0.01317  0.71712  1.0000
  Fe  Fe47      1.0  0.49284  0.52624  0.79760  1.0000
  H   H429      1.0  0.50791  0.00439  0.70290  1.0000
  H   H430      1.0  0.09421  0.96478  0.70005  1.0000
  H   H431      1.0  0.51146  0.80367  0.00855  1.0000
  H   H432      1.0  0.30792  0.01369  0.73526  1.0000
  H   H433      1.0  0.16145  0.02174  0.72430  1.0000
  H   H434      1.0  0.03350  0.58755  0.69792  1.0000
  H   H435      1.0  0.11155  0.52740  0.70967  1.0000
  H   H436      1.0  0.02541  0.84325  0.85526  1.0000
  H   H437      1.0  0.42682  0.58861  0.71255  1.0000
  Fe  Fe48      1.0  0.46420  0.02007  0.79406  1.0000
  C   C355      1.0  0.03843  0.85390  0.02731  1.0000
  C   C356      1.0  0.28254  0.01986  0.72988  1.0000
  C   C357      1.0  0.51582  0.79222  0.02739  1.0000
  H   H438      1.0  0.64604  0.37937  0.25866  1.0000
  S   S98       1.0  0.55019  0.43717  0.27964  1.0000
  Fe  Fe49      1.0  0.57846  0.47102  0.30661  1.0000
  C   C358      1.0  0.78743  0.05435  0.34096  1.0000
  Fe  Fe50      1.0  0.58322  0.45666  0.24717  1.0000
  H   H439      1.0  0.59408  0.35319  0.33023  1.0000
  H   H440      1.0  0.80971  0.37046  0.06326  1.0000
  Fe  Fe51      1.0  0.53906  0.07844  0.25282  1.0000
  Fe  Fe52      1.0  0.00032  0.06243  0.23437  1.0000
  C   C359      1.0  0.65589  0.44452  0.33156  1.0000
  Fe  Fe53      1.0  0.96267  0.06506  0.28657  1.0000
  S   S99       1.0  0.59305  0.45673  0.34799  1.0000
  C   C360      1.0  0.54197  0.13480  0.20237  1.0000
  S   S100      1.0  0.00562  0.44626  0.28715  1.0000
  H   H441      1.0  0.95643  0.46823  0.34763  1.0000
  S   S101      1.0  0.97648  0.50177  0.24709  1.0000
  Fe  Fe54      1.0  0.96774  0.48470  0.28903  1.0000
  S   S102      1.0  0.91558  0.47312  0.30099  1.0000
  H   H442      1.0  0.89708  0.31246  0.18853  1.0000
  H   H443      1.0  0.62181  0.40824  0.27613  1.0000
  C   C361      1.0  0.70947  0.51650  0.34980  1.0000
  H   H444      1.0  0.93634  0.24778  0.22414  1.0000
  H   H445      1.0  0.95599  0.31984  0.18215  1.0000
  S   S103      1.0  0.55373  0.08598  0.29511  1.0000
  H   H446      1.0  0.65169  0.32392  0.27698  1.0000
  N   N25       1.0  0.93316  0.29947  0.21707  1.0000
  S   S104      1.0  0.64326  0.06562  0.29648  1.0000
  C   C362      1.0  0.93731  0.38900  0.26329  1.0000
  Fe  Fe55      1.0  0.58287  0.28561  0.12002  1.0000
  S   S105      1.0  0.61294  0.24896  0.14029  1.0000
  S   S106      1.0  0.54986  0.32072  0.14174  1.0000
  Fe  Fe56      1.0  0.60083  0.26133  0.06477  1.0000
  S   S107      1.0  0.63349  0.22262  0.08031  1.0000
  Fe  Fe57      1.0  0.59342  0.21305  0.11032  1.0000
  S   S108      1.0  0.58377  0.15994  0.12006  1.0000
  Fe  Fe58      1.0  0.65167  0.26053  0.10936  1.0000
  S   S109      1.0  0.70205  0.26109  0.12782  1.0000
  S   S110      1.0  0.55930  0.24851  0.09252  1.0000
  S   S111      1.0  0.62288  0.30071  0.09136  1.0000
  Fe  Fe59      1.0  0.88820  0.26833  0.08955  1.0000
  S   S112      1.0  0.92048  0.31223  0.08041  1.0000
  S   S113      1.0  0.83986  0.26424  0.06794  1.0000
  Fe  Fe60      1.0  0.93411  0.24420  0.13239  1.0000
  S   S114      1.0  0.96935  0.28646  0.12651  1.0000
  S   S115      1.0  0.93320  0.21411  0.17007  1.0000
  Fe  Fe61      1.0  0.92548  0.31756  0.12457  1.0000
  S   S116      1.0  0.91485  0.36398  0.14764  1.0000
  Fe  Fe62      1.0  0.96202  0.27752  0.08246  1.0000
  S   S117      1.0  0.89051  0.27618  0.13335  1.0000
  S   S118      1.0  0.92941  0.23268  0.08852  1.0000
  C   C363      1.0  0.73968  0.25885  0.11030  1.0000
  C   C364      1.0  0.76835  0.25506  0.12479  1.0000
  C   C365      1.0  0.79909  0.25537  0.11195  1.0000
  C   C366      1.0  0.80151  0.26005  0.08449  1.0000
  C   C367      1.0  0.77278  0.26314  0.06991  1.0000
  C   C368      1.0  0.74196  0.26248  0.08272  1.0000
  H   H447      1.0  0.76681  0.25220  0.14613  1.0000
  H   H448      1.0  0.82092  0.25247  0.12337  1.0000
  H   H449      1.0  0.77439  0.26657  0.04863  1.0000
  H   H450      1.0  0.72008  0.26544  0.07133  1.0000
  C   C369      1.0  0.66000  0.05583  0.32734  1.0000
  H   H451      1.0  0.74183  0.43146  0.14219  1.0000
  H   H452      1.0  0.98411  0.30311  0.20485  1.0000
  H   H453      1.0  0.67601  0.51358  0.30161  1.0000
  H   H454      1.0  0.83623  0.41396  0.09238  1.0000
  H   H455      1.0  0.95952  0.27658  0.18483  1.0000
  C   C370      1.0  0.55395  0.17495  0.16793  1.0000
  C   C371      1.0  0.56796  0.15085  0.15192  1.0000
  C   C372      1.0  0.56934  0.11883  0.16133  1.0000
  C   C373      1.0  0.55670  0.11087  0.18663  1.0000
  S   S119      1.0  0.61418  0.42493  0.22041  1.0000
  H   H456      1.0  0.55270  0.19966  0.16076  1.0000
  H   H457      1.0  0.58011  0.10010  0.14900  1.0000
  C   C374      1.0  0.94705  0.38332  0.16517  1.0000
  C   C375      1.0  0.97963  0.37678  0.15908  1.0000
  C   C376      1.0  0.98204  0.50900  0.17762  1.0000
  C   C377      1.0  0.99758  0.41421  0.19428  1.0000
  C   C378      1.0  0.96500  0.42059  0.20048  1.0000
  C   C379      1.0  0.93984  0.40544  0.18576  1.0000
  H   H458      1.0  0.98546  0.35993  0.14312  1.0000
  C   C380      1.0  0.59022  0.34977  0.27540  1.0000
  H   H459      1.0  0.95912  0.43718  0.21660  1.0000
  H   H460      1.0  0.91469  0.41050  0.19066  1.0000
  C   C381      1.0  0.90699  0.46222  0.33423  1.0000
  C   C382      1.0  0.87480  0.45381  0.34173  1.0000
  H   H461      1.0  0.85573  0.45398  0.32709  1.0000
  C   C383      1.0  0.90864  0.08717  0.33742  1.0000
  H   H462      1.0  0.68803  0.10093  0.32986  1.0000
  C   C384      1.0  0.99118  0.12303  0.18854  1.0000
  C   C385      1.0  0.99666  0.13925  0.16435  1.0000
  C   C386      1.0  0.97904  0.16719  0.15822  1.0000
  C   C387      1.0  0.95596  0.17908  0.17636  1.0000
  C   C388      1.0  0.95076  0.16300  0.20062  1.0000
  C   C389      1.0  0.96823  0.13507  0.20669  1.0000
  H   H463      1.0  0.62607  0.31065  0.30430  1.0000
  H   H464      1.0  0.98323  0.17942  0.13948  1.0000
  H   H465      1.0  0.93291  0.17199  0.21474  1.0000
  H   H466      1.0  0.96379  0.12278  0.22537  1.0000
  Fe  Fe63      1.0  0.01692  0.46607  0.24662  1.0000
  C   C390      1.0  0.59578  0.39650  0.19839  1.0000
  H   H467      1.0  0.54648  0.41064  0.20671  1.0000
  C   C391      1.0  0.60182  0.35204  0.16619  1.0000
  C   C392      1.0  0.56800  0.34999  0.16317  1.0000
  C   C393      1.0  0.54812  0.37129  0.17776  1.0000
  C   C394      1.0  0.56195  0.39445  0.19540  1.0000
  H   H468      1.0  0.01501  0.49775  0.13229  1.0000
  H   H469      1.0  0.86207  0.33430  0.11431  1.0000
  H   H470      1.0  0.57443  0.31624  0.21382  1.0000
  H   H471      1.0  0.62714  0.51126  0.33118  1.0000
  N   N26       1.0  0.61822  0.35991  0.29215  1.0000
  H   H472      1.0  0.86935  0.12071  0.33446  1.0000
  H   H473      1.0  0.55485  0.31288  0.05415  1.0000
  S   S120      1.0  0.57938  0.04415  0.24288  1.0000
  H   H474      1.0  0.56273  0.35625  0.05855  1.0000
  H   H475      1.0  0.55784  0.33063  0.08659  1.0000
  C   C395      1.0  0.53142  0.34492  0.26678  1.0000
  H   H476      1.0  0.83807  0.34774  0.14224  1.0000
  H   H477      1.0  0.84411  0.20360  0.35908  1.0000
  H   H478      1.0  0.82280  0.31632  0.12027  1.0000
  H   H479      1.0  0.55052  0.36484  0.30237  1.0000
  C   C396      1.0  0.60851  0.37198  0.31901  1.0000
  C   C397      1.0  0.68257  0.07767  0.33911  1.0000
  H   H480      1.0  0.71927  0.51055  0.33038  1.0000
  H   H481      1.0  0.61731  0.33567  0.15506  1.0000
  C   C398      1.0  0.96402  0.36875  0.26192  1.0000
  H   H482      1.0  0.66023  0.33830  0.30967  1.0000
  H   H483      1.0  0.71482  0.33236  0.12307  1.0000
  H   H484      1.0  0.94486  0.05204  0.34634  1.0000
  C   C399      1.0  0.65305  0.02580  0.33936  1.0000
  H   H485      1.0  0.96649  0.50220  0.16044  1.0000
  H   H486      1.0  0.98395  0.32507  0.24640  1.0000
  H   H487      1.0  0.88480  0.04306  0.28537  1.0000
  S   S121      1.0  0.52478  0.12543  0.23374  1.0000
  S   S122      1.0  0.55112  0.49814  0.23654  1.0000
  H   H488      1.0  0.61997  0.33294  0.24180  1.0000
  C   C400      1.0  0.63711  0.38653  0.27882  1.0000
  H   H489      1.0  0.90169  0.26962  0.19212  1.0000
  H   H490      1.0  0.91979  0.27111  0.25145  1.0000
  H   H491      1.0  0.52931  0.18544  0.20508  1.0000
  H   H492      1.0  0.80767  0.32915  0.07455  1.0000
  H   H493      1.0  0.64800  0.44967  0.31175  1.0000
  C   C401      1.0  0.00480  0.39232  0.17353  1.0000
  H   H494      1.0  0.86995  0.38782  0.09721  1.0000
  H   H495      1.0  0.65888  0.39439  0.29041  1.0000
  N   N27       1.0  0.67369  0.15537  0.16540  1.0000
  C   C402      1.0  0.70950  0.15968  0.16849  1.0000
  C   C403      1.0  0.66705  0.12993  0.14487  1.0000
  C   C404      1.0  0.66155  0.18660  0.15529  1.0000
  C   C405      1.0  0.65815  0.14522  0.19090  1.0000
  C   C406      1.0  0.66885  0.11711  0.20417  1.0000
  C   C407      1.0  0.63158  0.16190  0.20282  1.0000
  C   C408      1.0  0.65426  0.10672  0.22805  1.0000
  C   C409      1.0  0.61714  0.15120  0.22666  1.0000
  C   C410      1.0  0.62847  0.12374  0.23925  1.0000
  H   H496      1.0  0.72160  0.13645  0.17272  1.0000
  H   H497      1.0  0.72147  0.16951  0.15009  1.0000
  H   H498      1.0  0.71522  0.17723  0.18494  1.0000
  H   H499      1.0  0.67746  0.10611  0.14999  1.0000
  H   H500      1.0  0.67732  0.13707  0.12509  1.0000
  H   H501      1.0  0.64027  0.12584  0.14236  1.0000
  H   H502      1.0  0.67383  0.19389  0.13626  1.0000
  H   H503      1.0  0.63515  0.18460  0.15085  1.0000
  H   H504      1.0  0.66584  0.20709  0.16963  1.0000
  H   H505      1.0  0.68831  0.10268  0.19602  1.0000
  H   H506      1.0  0.62099  0.18292  0.19392  1.0000
  H   H507      1.0  0.66265  0.08516  0.23796  1.0000
  H   H508      1.0  0.59646  0.16380  0.23513  1.0000
  H   H509      1.0  0.61701  0.11537  0.25761  1.0000
  C   C411      1.0  0.90757  0.35204  0.23395  1.0000
  C   C412      1.0  0.95937  0.29984  0.19646  1.0000
  C   C413      1.0  0.93424  0.33052  0.23245  1.0000
  C   C414      1.0  0.63992  0.33196  0.29589  1.0000
  H   H510      1.0  0.59400  0.39450  0.31791  1.0000
  S   S123      1.0  0.95008  0.04468  0.24625  1.0000
  C   C415      1.0  0.90174  0.29319  0.20336  1.0000
  H   H511      1.0  0.93838  0.41132  0.27508  1.0000
  H   H512      1.0  0.64184  0.37681  0.18596  1.0000
  H   H513      1.0  0.76976  0.32255  0.10653  1.0000
  H   H514      1.0  0.84627  0.34783  0.06830  1.0000
  H   H515      1.0  0.80662  0.07257  0.34698  1.0000
  C   C416      1.0  0.63400  0.44669  0.35300  1.0000
  C   C417      1.0  0.93826  0.27164  0.23503  1.0000
  S   S124      1.0  0.92457  0.09700  0.30578  1.0000
  H   H516      1.0  0.79708  0.42313  0.12597  1.0000
  C   C418      1.0  0.88083  0.10308  0.34687  1.0000
  C   C419      1.0  0.68791  0.43472  0.33564  1.0000
  S   S125      1.0  0.01163  0.08602  0.27375  1.0000
  C   C420      1.0  0.96259  0.33992  0.24682  1.0000
  H   H517      1.0  0.98601  0.37554  0.27255  1.0000
  H   H518      1.0  0.88870  0.39686  0.25025  1.0000
  H   H519      1.0  0.83724  0.05941  0.31048  1.0000
  C   C421      1.0  0.92339  0.06435  0.35345  1.0000
  H   H520      1.0  0.55782  0.08614  0.19373  1.0000
  C   C422      1.0  0.55718  0.35391  0.28350  1.0000
  H   H521      1.0  0.88090  0.29151  0.21770  1.0000
  C   C423      1.0  0.59561  0.33583  0.24979  1.0000
  H   H522      1.0  0.70463  0.43263  0.31891  1.0000
  H   H523      1.0  0.63008  0.37869  0.33134  1.0000
  S   S126      1.0  0.00843  0.28468  0.05721  1.0000
  C   C424      1.0  0.93154  0.46185  0.35325  1.0000
  H   H524      1.0  0.88524  0.34749  0.22329  1.0000
  S   S127      1.0  0.61367  0.48746  0.27493  1.0000
  H   H525      1.0  0.96283  0.27258  0.24404  1.0000
  C   C425      1.0  0.61565  0.37529  0.18371  1.0000
  C   C426      1.0  0.90922  0.38071  0.24929  1.0000
  N   N28       1.0  0.82255  0.36503  0.10432  1.0000
  C   C427      1.0  0.84517  0.39395  0.10489  1.0000
  C   C428      1.0  0.83686  0.33976  0.12105  1.0000
  C   C429      1.0  0.82143  0.35276  0.07645  1.0000
  C   C430      1.0  0.78916  0.37177  0.11417  1.0000
  C   C431      1.0  0.78010  0.40264  0.12471  1.0000
  C   C432      1.0  0.76462  0.34671  0.11393  1.0000
  C   C433      1.0  0.74833  0.40780  0.13419  1.0000
  H   H526      1.0  0.70031  0.38660  0.14098  1.0000
  C   C434      1.0  0.72486  0.38259  0.13355  1.0000
  H   H527      1.0  0.84895  0.40313  0.12557  1.0000
  H   H528      1.0  0.76531  0.05992  0.35309  1.0000
  Fe  Fe64      1.0  0.59182  0.04919  0.28628  1.0000
  C   C435      1.0  0.73302  0.35210  0.12344  1.0000
  H   H529      1.0  0.98578  0.48589  0.18847  1.0000
  H   H530      1.0  0.78098  0.05845  0.31986  1.0000
  C   C436      1.0  0.53765  0.33116  0.24184  1.0000
  C   C437      1.0  0.54861  0.33477  0.06628  1.0000
  C   C438      1.0  0.56967  0.32635  0.23348  1.0000
  C   C439      1.0  0.84409  0.03429  0.31222  1.0000
  S   S128      1.0  0.54577  0.51339  0.30119  1.0000
  C   C440      1.0  0.54065  0.16684  0.19298  1.0000
  S   S129      1.0  0.01350  0.08804  0.19586  1.0000
  H   H531      1.0  0.01436  0.13003  0.15020  1.0000
  H   H532      1.0  0.52788  0.25225  0.03867  1.0000
  C   C441      1.0  0.87170  0.02523  0.29756  1.0000
  H   H533      1.0  0.52192  0.36972  0.17557  1.0000
  Fe  Fe65      1.0  0.81754  0.08159  0.43237  1.0000
  S   S130      1.0  0.78293  0.04412  0.44986  1.0000
  H   H534      1.0  0.65339  0.06661  0.51431  1.0000
  Fe  Fe66      1.0  0.76804  0.13518  0.43453  1.0000
  S   S131      1.0  0.72888  0.10223  0.45203  1.0000
  S   S132      1.0  0.75961  0.18510  0.41734  1.0000
  Fe  Fe67      1.0  0.76835  0.08362  0.47827  1.0000
  S   S133      1.0  0.75588  0.07437  0.52187  1.0000
  Fe  Fe68      1.0  0.74609  0.06472  0.42265  1.0000
  H   H535      1.0  0.90737  0.51515  0.46877  1.0000
  S   S134      1.0  0.80639  0.12010  0.46315  1.0000
  S   S135      1.0  0.78197  0.09879  0.40275  1.0000
  Fe  Fe69      1.0  0.77071  0.44283  0.46094  1.0000
  S   S136      1.0  0.73819  0.40181  0.44548  1.0000
  S   S137      1.0  0.75195  0.48417  0.48715  1.0000
  Fe  Fe70      1.0  0.82936  0.42061  0.42807  1.0000
  S   S138      1.0  0.80256  0.37733  0.41055  1.0000
  S   S139      1.0  0.88227  0.43427  0.42032  1.0000
  Fe  Fe71      1.0  0.76155  0.41223  0.40565  1.0000
  H   H536      1.0  0.54551  0.04079  0.62158  1.0000
  Fe  Fe72      1.0  0.78148  0.36997  0.45156  1.0000
  S   S140      1.0  0.77913  0.32296  0.47513  1.0000
  S   S141      1.0  0.79012  0.45603  0.42035  1.0000
  S   S142      1.0  0.81220  0.41042  0.46980  1.0000
  C   C442      1.0  0.76574  0.22301  0.43388  1.0000
  C   C443      1.0  0.76385  0.25183  0.41919  1.0000
  C   C444      1.0  0.76812  0.28257  0.43155  1.0000
  C   C445      1.0  0.77409  0.28474  0.45880  1.0000
  C   C446      1.0  0.77629  0.25591  0.47348  1.0000
  C   C447      1.0  0.77229  0.22511  0.46106  1.0000
  H   H537      1.0  0.75885  0.25040  0.39815  1.0000
  H   H538      1.0  0.76652  0.30456  0.42001  1.0000
  H   H539      1.0  0.78102  0.25738  0.49456  1.0000
  H   H540      1.0  0.77377  0.20307  0.47256  1.0000
  H   H541      1.0  0.89393  0.16170  0.38573  1.0000
  C   C448      1.0  0.76552  0.49496  0.51950  1.0000
  C   C449      1.0  0.78856  0.47678  0.53267  1.0000
  C   C450      1.0  0.63956  0.03013  0.43856  1.0000
  H   H542      1.0  0.79886  0.45564  0.52312  1.0000
  H   H543      1.0  0.71502  0.08690  0.37191  1.0000
  C   C451      1.0  0.89342  0.18849  0.38976  1.0000
  H   H544      1.0  0.85160  0.15121  0.41695  1.0000
  H   H545      1.0  0.63021  0.12389  0.43778  1.0000
  S   S143      1.0  0.73876  0.41492  0.36516  1.0000
  C   C452      1.0  0.71398  0.50853  0.39724  1.0000
  C   C453      1.0  0.56594  0.02848  0.62979  1.0000
  H   H546      1.0  0.87738  0.24960  0.36644  1.0000
  H   H547      1.0  0.73218  0.33777  0.56239  1.0000
  H   H548      1.0  0.77177  0.35167  0.54965  1.0000
  H   H549      1.0  0.74038  0.41851  0.50921  1.0000
  H   H550      1.0  0.82672  0.03300  0.37939  1.0000
  H   H551      1.0  0.82663  0.18268  0.42991  1.0000
  H   H552      1.0  0.58895  0.02543  0.59104  1.0000
  H   H553      1.0  0.69306  0.07386  0.49905  1.0000
  S   S144      1.0  0.86810  0.06592  0.42084  1.0000
  C   C454      1.0  0.92380  0.45321  0.37965  1.0000
  C   C455      1.0  0.87080  0.25723  0.38637  1.0000
  C   C456      1.0  0.84901  0.48570  0.47351  1.0000
  C   C457      1.0  0.88301  0.07396  0.38851  1.0000
  C   C458      1.0  0.85166  0.17764  0.42240  1.0000
  H   H554      1.0  0.91250  0.19442  0.40471  1.0000
  C   C459      1.0  0.86709  0.44507  0.36805  1.0000
  C   C460      1.0  0.86682  0.04031  0.69124  1.0000
  C   C461      1.0  0.63242  0.09760  0.43825  1.0000
  C   C462      1.0  0.73289  0.40542  0.56157  1.0000
  H   H555      1.0  0.86902  0.47137  0.48183  1.0000
  H   H556      1.0  0.73976  0.47166  0.61829  1.0000
  C   C463      1.0  0.75114  0.42274  0.60600  1.0000
  H   H557      1.0  0.78437  0.02416  0.38670  1.0000
  C   C464      1.0  0.86786  0.09625  0.37225  1.0000
  H   H558      1.0  0.94618  0.03927  0.67299  1.0000
  C   C465      1.0  0.74524  0.34951  0.54532  1.0000
  C   C466      1.0  0.69719  0.37581  0.53094  1.0000
  H   H559      1.0  0.71092  0.48380  0.57700  1.0000
  H   H560      1.0  0.98810  0.07350  0.68720  1.0000
  H   H561      1.0  0.75030  0.37803  0.49916  1.0000
  H   H562      1.0  0.68620  0.39796  0.52271  1.0000
  H   H563      1.0  0.72592  0.49739  0.41382  1.0000
  C   C467      1.0  0.89478  0.03633  0.67564  1.0000
  C   C468      1.0  0.74903  0.39910  0.58576  1.0000
  C   C469      1.0  0.72098  0.45986  0.57959  1.0000
  C   C470      1.0  0.71904  0.43662  0.55910  1.0000
  C   C471      1.0  0.69192  0.03923  0.37433  1.0000
  H   H564      1.0  0.77622  0.40021  0.52179  1.0000
  H   H565      1.0  0.86904  0.18101  0.43905  1.0000
  H   H566      1.0  0.89258  0.02613  0.65575  1.0000
  H   H567      1.0  0.94285  0.45293  0.39429  1.0000
  H   H568      1.0  0.74431  0.05493  0.57594  1.0000
  H   H569      1.0  0.76414  0.41783  0.62407  1.0000
  C   C472      1.0  0.89157  0.44478  0.38710  1.0000
  H   H570      1.0  0.68492  0.42520  0.40270  1.0000
  C   C473      1.0  0.73722  0.45305  0.60289  1.0000
  H   H571      1.0  0.70751  0.44377  0.54095  1.0000
  H   H572      1.0  0.84220  0.43849  0.37354  1.0000
  H   H573      1.0  0.76069  0.37634  0.58940  1.0000
  H   H574      1.0  0.69536  0.35686  0.51491  1.0000
  H   H575      1.0  0.61755  0.03057  0.39987  1.0000
  H   H576      1.0  0.68169  0.36747  0.54803  1.0000
  H   H577      1.0  0.74334  0.33220  0.52808  1.0000
  N   N29       1.0  0.86084  0.19868  0.39947  1.0000
  N   N30       1.0  0.73149  0.38171  0.53916  1.0000
  C   C474      1.0  0.75035  0.39528  0.51636  1.0000
  C   C475      1.0  0.76198  0.03684  0.53814  1.0000
  C   C476      1.0  0.64632  0.08288  0.46020  1.0000
  C   C477      1.0  0.85272  0.24654  0.43158  1.0000
  H   H578      1.0  0.87757  0.30813  0.37644  1.0000
  C   C478      1.0  0.67690  0.43056  0.38287  1.0000
  H   H579      1.0  0.82612  0.47900  0.48444  1.0000
  C   C479      1.0  0.79818  0.48580  0.55853  1.0000
  N   N31       1.0  0.54189  0.02954  0.67686  1.0000
  C   C480      1.0  0.87093  0.29077  0.39185  1.0000
  C   C481      1.0  0.78504  0.51313  0.57150  1.0000
  H   H580      1.0  0.90174  0.51653  0.55913  1.0000
  C   C482      1.0  0.86170  0.23402  0.40608  1.0000
  H   H581      1.0  0.92252  0.04066  0.39155  1.0000
  H   H582      1.0  0.81584  0.47144  0.56865  1.0000
  H   H583      1.0  0.74629  0.48789  0.36804  1.0000
  H   H584      1.0  0.84631  0.47709  0.45262  1.0000
  C   C483      1.0  0.64462  0.43990  0.37870  1.0000
  H   H585      1.0  0.84549  0.28923  0.45625  1.0000
  C   C484      1.0  0.86203  0.30219  0.41702  1.0000
  H   H586      1.0  0.71342  0.03493  0.46443  1.0000
  C   C485      1.0  0.83669  0.19223  0.37825  1.0000
  H   H587      1.0  0.84655  0.10862  0.37940  1.0000
  H   H588      1.0  0.89898  0.50138  0.51208  1.0000
  H   H589      1.0  0.90093  0.20043  0.37085  1.0000
  H   H590      1.0  0.62779  0.44162  0.39539  1.0000
  H   H591      1.0  0.81251  0.20214  0.38397  1.0000
  H   H592      1.0  0.84462  0.23104  0.44771  1.0000
  C   C486      1.0  0.62197  0.07874  0.41666  1.0000
  C   C487      1.0  0.85306  0.28014  0.43683  1.0000
  C   C488      1.0  0.75382  0.03409  0.56530  1.0000
  H   H593      1.0  0.65424  0.09910  0.47601  1.0000
  H   H594      1.0  0.86171  0.32822  0.42114  1.0000
  C   C489      1.0  0.91074  0.05798  0.37904  1.0000
  C   C490      1.0  0.69803  0.06968  0.36282  1.0000
  C   C491      1.0  0.65058  0.04855  0.46090  1.0000
  C   C492      1.0  0.62524  0.04506  0.41693  1.0000
  S   S145      1.0  0.71320  0.02723  0.40261  1.0000
  H   H595      1.0  0.61174  0.09025  0.39947  1.0000
  C   C493      1.0  0.67514  0.05463  0.50559  1.0000
  H   H596      1.0  0.84309  0.03307  0.68356  1.0000
  C   C494      1.0  0.92558  0.04406  0.68590  1.0000
  H   H597      1.0  0.68725  0.04174  0.52201  1.0000
  H   H598      1.0  0.83291  0.16567  0.37424  1.0000
  C   C495      1.0  0.72546  0.50330  0.37141  1.0000
  H   H599      1.0  0.56827  0.07262  0.69025  1.0000
  N   N32       1.0  0.66624  0.03213  0.48333  1.0000
  N   N33       1.0  0.85550  0.52134  0.47492  1.0000
  C   C496      1.0  0.88180  0.51880  0.51972  1.0000
  H   H600      1.0  0.52271  0.07092  0.65663  1.0000
  H   H601      1.0  0.88550  0.52175  0.43926  1.0000
  C   C497      1.0  0.69849  0.42761  0.36126  1.0000
  H   H602      1.0  0.91732  0.51312  0.70377  1.0000
  C   C498      1.0  0.00042  0.25006  0.98096  1.0000
  H   H603      1.0  0.02036  0.17448  0.94595  1.0000
  C   C499      1.0  0.96275  0.10013  0.73139  1.0000
  H   H604      1.0  0.53683  0.05829  0.71291  1.0000
  C   C500      1.0  0.55589  0.05035  0.69842  1.0000
  H   H605      1.0  0.97721  0.11220  0.89985  1.0000
  C   C501      1.0  0.55532  0.26964  0.00479  1.0000
  C   C502      1.0  0.55341  0.27907  0.97807  1.0000
  H   H606      1.0  0.01309  0.06524  0.71503  1.0000
  H   H607      1.0  0.57548  0.28619  0.96734  1.0000
  H   H608      1.0  0.97113  0.33701  0.94613  1.0000
  H   H609      1.0  0.99038  0.05044  0.75681  1.0000
  C   C503      1.0  0.01837  0.14973  0.93650  1.0000
  H   H610      1.0  0.58510  0.09755  0.90075  1.0000
  N   N34       1.0  0.96131  0.06504  0.72387  1.0000
  H   H611      1.0  0.79738  0.50873  0.75855  1.0000
  H   H612      1.0  0.90082  0.06947  0.74775  1.0000
  H   H613      1.0  0.56982  0.20520  0.91295  1.0000
  H   H614      1.0  0.98731  0.16638  0.89290  1.0000
  H   H615      1.0  0.90911  0.49716  0.76802  1.0000
  H   H616      1.0  0.54569  0.34506  0.01678  1.0000
  C   C504      1.0  0.92915  0.05655  0.71224  1.0000
  H   H617      1.0  0.00720  0.40815  0.90961  1.0000
  C   C505      1.0  0.99622  0.32886  0.95014  1.0000
  H   H618      1.0  0.54096  0.23568  0.92103  1.0000
  H   H619      1.0  0.84762  0.05444  0.72937  1.0000
  S   S146      1.0  0.97407  0.52186  0.73599  1.0000
  C   C506      1.0  0.52307  0.28006  0.96530  1.0000
  C   C507      1.0  0.86946  0.05230  0.71712  1.0000
  S   S147      1.0  0.59380  0.27042  0.02053  1.0000
  H   H620      1.0  0.01105  0.36221  0.83346  1.0000
  C   C508      1.0  0.96599  0.04551  0.74805  1.0000
  H   H621      1.0  0.95845  0.11572  0.71388  1.0000
  C   C509      1.0  0.55736  0.13872  0.91415  1.0000
  H   H622      1.0  0.99204  0.14266  0.93689  1.0000
  C   C510      1.0  0.99285  0.25828  0.00760  1.0000
  C   C511      1.0  0.01661  0.27306  0.02373  1.0000
  H   H623      1.0  0.98694  0.10740  0.73979  1.0000
  C   C512      1.0  0.53482  0.18593  0.95579  1.0000
  C   C513      1.0  0.89649  0.51954  0.77251  1.0000
  C   C514      1.0  0.99950  0.10043  0.89404  1.0000
  C   C515      1.0  0.98932  0.05881  0.70560  1.0000
  C   C516      1.0  0.99673  0.06935  0.88240  1.0000
  C   C517      1.0  0.90008  0.06052  0.72749  1.0000
  H   H624      1.0  0.98176  0.23885  0.96864  1.0000
  C   C518      1.0  0.01230  0.36032  0.85490  1.0000
  H   H625      1.0  0.53591  0.21104  0.89156  1.0000
  H   H626      1.0  0.99214  0.39354  0.95210  1.0000
  H   H627      1.0  0.56136  0.18163  0.95709  1.0000
  H   H628      1.0  0.53770  0.06859  0.88048  1.0000
  H   H629      1.0  0.99041  0.03245  0.69999  1.0000
  H   H630      1.0  0.85357  0.50305  0.75344  1.0000
  H   H631      1.0  0.96866  0.25324  0.01567  1.0000
  H   H632      1.0  0.97291  0.05800  0.87925  1.0000
  C   C519      1.0  0.54343  0.21055  0.91277  1.0000
  C   C520      1.0  0.52653  0.15368  0.91547  1.0000
  C   C521      1.0  0.01390  0.17216  0.89259  1.0000
  C   C522      1.0  0.00769  0.38775  0.87094  1.0000
  H   H633      1.0  0.94790  0.05066  0.76408  1.0000
  C   C523      1.0  0.01053  0.38577  0.89855  1.0000
  H   H634      1.0  0.00293  0.41097  0.86177  1.0000
  H   H635      1.0  0.94432  0.10625  0.74694  1.0000
  H   H636      1.0  0.53081  0.20964  0.96624  1.0000
  C   C524      1.0  0.53463  0.09189  0.89046  1.0000
  H   H637      1.0  0.57880  0.15076  0.92228  1.0000
  C   C525      1.0  0.56124  0.10829  0.90182  1.0000
  H   H638      1.0  0.99830  0.32505  0.97197  1.0000
  H   H639      1.0  0.01672  0.19794  0.89959  1.0000
  H   H640      1.0  0.57404  0.03739  0.71035  1.0000
  H   H641      1.0  0.99853  0.30441  0.94068  1.0000
  C   C526      1.0  0.52664  0.26047  0.01841  1.0000
  H   H642      1.0  0.01944  0.38034  0.97685  1.0000
  C   C527      1.0  0.01687  0.38375  0.95502  1.0000
  H   H643      1.0  0.52243  0.39654  0.80924  1.0000
  N   N35       1.0  0.02120  0.35267  0.94008  1.0000
  C   C528      1.0  0.01805  0.35587  0.91092  1.0000
  N   N36       1.0  0.52332  0.18637  0.92794  1.0000
  C   C529      1.0  0.01998  0.33079  0.86633  1.0000
  H   H644      1.0  0.52190  0.28815  0.94496  1.0000
  H   H645      1.0  0.88394  0.98903  0.23505  1.0000
  C   C530      1.0  0.98693  0.55859  0.13488  1.0000
  C   C531      1.0  0.85247  0.88370  0.16365  1.0000
  H   H646      1.0  0.77420  0.97256  0.34387  1.0000
  S   S148      1.0  0.94864  0.94946  0.25540  1.0000
  H   H647      1.0  0.89114  0.84188  0.19094  1.0000
  C   C532      1.0  0.55730  0.97547  0.11198  1.0000
  Fe  Fe73      1.0  0.59374  0.73019  0.17003  1.0000
  S   S149      1.0  0.61498  0.72900  0.12850  1.0000
  S   S150      1.0  0.56282  0.68574  0.18240  1.0000
  Fe  Fe74      1.0  0.62009  0.79926  0.18083  1.0000
  S   S151      1.0  0.64391  0.80231  0.14042  1.0000
  S   S152      1.0  0.62975  0.84352  0.20771  1.0000
  Fe  Fe75      1.0  0.59714  0.77994  0.12507  1.0000
  S   S153      1.0  0.57995  0.80461  0.08766  1.0000
  Fe  Fe76      1.0  0.65988  0.75146  0.14707  1.0000
  S   S154      1.0  0.70856  0.73286  0.13226  1.0000
  S   S155      1.0  0.57212  0.78008  0.16519  1.0000
  S   S156      1.0  0.63996  0.74936  0.18892  1.0000
  Fe  Fe77      1.0  0.94490  0.76620  0.11496  1.0000
  S   S157      1.0  0.98125  0.75035  0.14479  1.0000
  S   S158      1.0  0.95498  0.77653  0.07125  1.0000
  Fe  Fe78      1.0  0.89195  0.77768  0.15794  1.0000
  S   S159      1.0  0.92494  0.76379  0.19105  1.0000
  S   S160      1.0  0.84265  0.79712  0.17009  1.0000
  Fe  Fe79      1.0  0.96378  0.79320  0.16929  1.0000
  C   C533      1.0  0.83678  0.96515  0.23881  1.0000
  Fe  Fe80      1.0  0.93910  0.72233  0.16383  1.0000
  S   S161      1.0  0.93419  0.66880  0.17538  1.0000
  S   S162      1.0  0.92968  0.81024  0.13847  1.0000
  S   S163      1.0  0.90370  0.73498  0.13176  1.0000
  H   H648      1.0  0.96303  0.58956  0.10716  1.0000
  C   C534      1.0  0.61323  0.69867  0.05219  1.0000
  C   C535      1.0  0.66444  0.58585  0.33322  1.0000
  S   S164      1.0  0.99962  0.83275  0.18306  1.0000
  C   C536      1.0  0.60142  0.87371  0.21684  1.0000
  C   C537      1.0  0.61305  0.90317  0.22825  1.0000
  C   C538      1.0  0.59165  0.92851  0.23460  1.0000
  C   C539      1.0  0.55833  0.92457  0.22963  1.0000
  C   C540      1.0  0.54658  0.89492  0.21860  1.0000
  C   C541      1.0  0.56800  0.86955  0.21232  1.0000
  H   H649      1.0  0.63885  0.90654  0.23193  1.0000
  H   H650      1.0  0.60101  0.95120  0.24306  1.0000
  H   H651      1.0  0.81418  0.89352  0.20960  1.0000
  H   H652      1.0  0.55870  0.84683  0.20387  1.0000
  C   C542      1.0  0.74538  0.75279  0.14148  1.0000
  C   C543      1.0  0.74609  0.77685  0.16138  1.0000
  C   C544      1.0  0.77610  0.79069  0.16958  1.0000
  C   C545      1.0  0.80553  0.78062  0.15793  1.0000
  C   C546      1.0  0.80481  0.75704  0.13766  1.0000
  C   C547      1.0  0.77481  0.74308  0.12955  1.0000
  H   H653      1.0  0.72354  0.78439  0.17075  1.0000
  H   H654      1.0  0.77645  0.80892  0.18528  1.0000
  H   H655      1.0  0.82732  0.74944  0.12831  1.0000
  H   H656      1.0  0.77436  0.72451  0.11409  1.0000
  H   H657      1.0  0.86477  0.72169  0.20804  1.0000
  H   H658      1.0  0.64092  0.87251  0.14242  1.0000
  H   H659      1.0  0.87850  0.66705  0.21082  1.0000
  C   C548      1.0  0.99091  0.76560  0.05379  1.0000
  H   H660      1.0  0.61583  0.54580  0.35075  1.0000
  H   H661      1.0  0.62054  0.86298  0.09990  1.0000
  H   H662      1.0  0.98307  0.83832  0.09567  1.0000
  C   C549      1.0  0.99735  0.61193  0.23280  1.0000
  C   C550      1.0  0.96976  0.59726  0.22122  1.0000
  C   C551      1.0  0.95053  0.61517  0.20392  1.0000
  C   C552      1.0  0.95845  0.64796  0.19822  1.0000
  C   C553      1.0  0.98570  0.66282  0.21014  1.0000
  C   C554      1.0  0.00136  0.89590  0.20211  1.0000
  H   H663      1.0  0.96336  0.57211  0.22546  1.0000
  H   H664      1.0  0.92956  0.60347  0.19471  1.0000
  H   H665      1.0  0.62693  0.64346  0.25603  1.0000
  H   H666      1.0  0.93144  0.88167  0.25350  1.0000
  H   H667      1.0  0.69006  0.59550  0.33326  1.0000
  C   C555      1.0  0.96511  0.91706  0.23652  1.0000
  C   C556      1.0  0.95075  0.88576  0.23894  1.0000
  C   C557      1.0  0.96092  0.85982  0.22250  1.0000
  C   C558      1.0  0.98617  0.86485  0.20392  1.0000
  C   C559      1.0  0.60755  0.88655  0.10082  1.0000
  C   C560      1.0  0.99067  0.92202  0.21817  1.0000
  H   H668      1.0  0.57732  0.92586  0.17430  1.0000
  H   H669      1.0  0.94956  0.83584  0.22447  1.0000
  H   H670      1.0  0.97596  0.53686  0.12611  1.0000
  H   H671      1.0  0.64339  0.91623  0.14026  1.0000
  H   H672      1.0  0.53025  0.58491  0.28168  1.0000
  C   C561      1.0  0.59254  0.60718  0.24121  1.0000
  H   H673      1.0  0.65214  0.59486  0.35161  1.0000
  C   C562      1.0  0.60061  0.66184  0.22278  1.0000
  C   C563      1.0  0.57608  0.65539  0.20426  1.0000
  C   C564      1.0  0.56030  0.62451  0.20401  1.0000
  C   C565      1.0  0.56885  0.60031  0.22211  1.0000
  H   H674      1.0  0.70217  0.54991  0.30169  1.0000
  H   H675      1.0  0.61275  0.68558  0.22327  1.0000
  H   H676      1.0  0.55119  0.98961  0.09474  1.0000
  H   H677      1.0  0.85386  0.85062  0.20809  1.0000
  H   H678      1.0  0.86269  0.86520  0.14964  1.0000
  H   H679      1.0  0.82871  0.87278  0.17037  1.0000
  C   C566      1.0  0.79556  0.67400  0.20197  1.0000
  C   C567      1.0  0.78356  0.64507  0.21457  1.0000
  C   C568      1.0  0.77197  0.69480  0.19143  1.0000
  C   C569      1.0  0.75002  0.63788  0.21651  1.0000
  C   C570      1.0  0.73859  0.68738  0.19344  1.0000
  C   C571      1.0  0.72760  0.65898  0.20596  1.0000
  H   H680      1.0  0.79954  0.62749  0.22289  1.0000
  H   H681      1.0  0.77915  0.71686  0.18118  1.0000
  H   H682      1.0  0.74128  0.61565  0.22603  1.0000
  H   H683      1.0  0.72112  0.70361  0.18487  1.0000
  H   H684      1.0  0.70163  0.65326  0.20722  1.0000
  H   H685      1.0  0.61463  0.54776  0.31549  1.0000
  C   C572      1.0  0.62881  0.53826  0.33229  1.0000
  C   C573      1.0  0.97949  0.58859  0.12378  1.0000
  H   H686      1.0  0.79280  0.93545  0.23943  1.0000
  H   H687      1.0  0.90679  0.92220  0.16227  1.0000
  C   C574      1.0  0.00127  0.85374  0.10671  1.0000
  C   C575      1.0  0.76988  0.99831  0.33866  1.0000
  H   H688      1.0  0.90613  0.94891  0.20509  1.0000
  C   C576      1.0  0.62684  0.89515  0.14512  1.0000
  H   H689      1.0  0.60142  0.74931  0.05380  1.0000
  Fe  Fe81      1.0  0.01299  0.53699  0.26490  1.0000
  H   H690      1.0  0.62104  0.89635  0.16672  1.0000
  H   H691      1.0  0.99207  0.68802  0.20591  1.0000
  H   H692      1.0  0.90509  0.98711  0.28819  1.0000
  C   C577      1.0  0.52734  0.76304  0.07649  1.0000
  H   H693      1.0  0.62085  0.64763  0.04588  1.0000
  C   C578      1.0  0.57237  0.93917  0.15647  1.0000
  S   S165      1.0  0.53078  0.95644  0.23569  1.0000
  H   H694      1.0  0.00228  0.86196  0.05680  1.0000
  C   C579      1.0  0.60855  0.63792  0.24134  1.0000
  H   H695      1.0  0.82740  0.98331  0.25253  1.0000
  C   C580      1.0  0.57443  0.86856  0.13769  1.0000
  H   H696      1.0  0.55696  0.82389  0.03690  1.0000
  H   H697      1.0  0.99357  0.85302  0.12804  1.0000
  H   H698      1.0  0.86628  0.68603  0.16673  1.0000
  C   C581      1.0  0.82975  0.91449  0.21408  1.0000
  C   C582      1.0  0.68136  0.53575  0.35358  1.0000
  H   H699      1.0  0.62720  0.69997  0.07035  1.0000
  C   C583      1.0  0.54153  0.80369  0.04352  1.0000
  N   N37       1.0  0.66338  0.54974  0.33122  1.0000
  C   C584      1.0  0.81740  0.93821  0.23143  1.0000
  S   S166      1.0  0.55971  0.00682  0.29963  1.0000
  H   H700      1.0  0.83412  0.65617  0.16140  1.0000
  C   C585      1.0  0.59869  0.72649  0.04281  1.0000
  Fe  Fe82      1.0  0.54450  0.00421  0.25676  1.0000
  H   H701      1.0  0.85043  0.63430  0.20457  1.0000
  H   H702      1.0  0.62448  0.90552  0.09242  1.0000
  H   H703      1.0  0.84753  0.90604  0.15218  1.0000
  C   C586      1.0  0.54963  0.98722  0.13735  1.0000
  N   N38       1.0  0.83083  0.68209  0.19872  1.0000
  H   H704      1.0  0.82644  0.69873  0.15834  1.0000
  C   C587      1.0  0.87802  0.86131  0.20204  1.0000
  H   H705      1.0  0.55671  0.57660  0.22156  1.0000
  C   C588      1.0  0.90743  0.89944  0.17407  1.0000
  C   C589      1.0  0.01299  0.74409  0.06448  1.0000
  H   H706      1.0  0.57754  0.93769  0.08849  1.0000
  H   H707      1.0  0.58592  0.84432  0.13667  1.0000
  C   C590      1.0  0.83977  0.68071  0.17008  1.0000
  H   H708      1.0  0.84652  0.65909  0.23456  1.0000
  S   S167      1.0  0.60153  0.57876  0.26616  1.0000
  H   H709      1.0  0.92639  0.90258  0.18949  1.0000
  H   H710      1.0  0.87637  0.94649  0.31645  1.0000
  H   H711      1.0  0.56632  0.87227  0.15858  1.0000
  C   C591      1.0  0.86187  0.91734  0.20326  1.0000
  C   C592      1.0  0.88103  0.94504  0.21136  1.0000
  H   H712      1.0  0.74738  0.00519  0.34990  1.0000
  C   C593      1.0  0.85225  0.65954  0.21288  1.0000
  H   H713      1.0  0.99944  0.87952  0.10039  1.0000
  H   H714      1.0  0.91623  0.87971  0.16060  1.0000
  C   C594      1.0  0.00515  0.64478  0.22724  1.0000
  H   H715      1.0  0.82644  0.73469  0.19724  1.0000
  N   N39       1.0  0.87491  0.89112  0.18597  1.0000
  H   H716      1.0  0.89155  0.86661  0.22057  1.0000
  C   C595      1.0  0.54735  0.78922  0.06814  1.0000
  Fe  Fe83      1.0  0.57904  0.52750  0.26707  1.0000
  N   N40       1.0  0.59720  0.89486  0.12846  1.0000
  H   H717      1.0  0.54143  0.61932  0.18964  1.0000
  C   C596      1.0  0.83815  0.71556  0.20899  1.0000
  H   H718      1.0  0.82976  0.71837  0.23000  1.0000
  C   C597      1.0  0.86852  0.96849  0.22883  1.0000
  H   H719      1.0  0.65181  0.59707  0.31619  1.0000
  C   C598      1.0  0.88324  0.99372  0.29915  1.0000
  C   C599      1.0  0.55704  0.96902  0.15956  1.0000
  Fe  Fe84      1.0  0.97411  0.99910  0.25957  1.0000
  H   H720      1.0  0.53168  0.75163  0.09536  1.0000
  H   H721      1.0  0.01790  0.79174  0.10210  1.0000
  C   C600      1.0  0.83929  0.97963  0.32991  1.0000
  H   H722      1.0  0.82795  0.96126  0.34247  1.0000
  C   C601      1.0  0.58095  0.92659  0.13098  1.0000
  H   H723      1.0  0.58624  0.88288  0.08752  1.0000
  C   C602      1.0  0.67669  0.54056  0.30461  1.0000
  C   C603      1.0  0.86700  0.97091  0.31518  1.0000
  C   C604      1.0  0.60959  0.66923  0.03833  1.0000
  C   C605      1.0  0.57261  0.94553  0.10868  1.0000
  C   C606      1.0  0.82694  0.01164  0.32890  1.0000
  H   H724      1.0  0.66214  0.55081  0.28823  1.0000
  H   H725      1.0  0.00795  0.73323  0.08365  1.0000
  H   H726      1.0  0.55222  0.86687  0.12522  1.0000
  N   N41       1.0  0.01355  0.52479  0.16949  1.0000
  H   H727      1.0  0.76424  0.99912  0.31711  1.0000
  H   H728      1.0  0.00202  0.94601  0.21621  1.0000
  S   S168      1.0  0.98287  0.01817  0.30105  1.0000
  H   H729      1.0  0.55076  0.97792  0.17936  1.0000
  C   C607      1.0  0.99264  0.61750  0.13435  1.0000
  H   H730      1.0  0.98612  0.64083  0.12627  1.0000
  C   C608      1.0  0.01369  0.61649  0.15575  1.0000
  H   H731      1.0  0.63596  0.00868  0.33023  1.0000
  C   C609      1.0  0.00751  0.55674  0.15725  1.0000
  H   H732      1.0  0.53774  0.01040  0.13984  1.0000
  N   N42       1.0  0.79797  0.02043  0.34515  1.0000
  C   C610      1.0  0.02104  0.58670  0.16721  1.0000
  S   S169      1.0  0.00091  0.52302  0.30711  1.0000
  H   H733      1.0  0.02121  0.89991  0.18804  1.0000
  H   H734      1.0  0.96779  0.52541  0.19091  1.0000
  C   C611      1.0  0.99753  0.77900  0.02862  1.0000
  Fe  Fe85      1.0  0.77453  0.87182  0.66262  1.0000
  H   H735      1.0  0.66466  0.99367  0.37136  1.0000
  S   S170      1.0  0.79721  0.82239  0.66800  1.0000
  Fe  Fe86      1.0  0.76801  0.93074  0.62572  1.0000
  S   S171      1.0  0.74971  0.96348  0.65867  1.0000
  S   S172      1.0  0.77723  0.94012  0.58162  1.0000
  H   H736      1.0  0.64241  0.69461  0.66228  1.0000
  H   H737      1.0  0.87692  0.55155  0.68669  1.0000
  Fe  Fe87      1.0  0.71890  0.91973  0.67116  1.0000
  H   H738      1.0  0.69190  0.99741  0.45841  1.0000
  S   S173      1.0  0.80949  0.91167  0.64941  1.0000
  S   S174      1.0  0.73462  0.88830  0.63646  1.0000
  Fe  Fe88      1.0  0.76818  0.63706  0.64231  1.0000
  S   S175      1.0  0.74458  0.68315  0.62811  1.0000
  Fe  Fe89      1.0  0.78674  0.56650  0.63105  1.0000
  S   S176      1.0  0.79951  0.55826  0.67399  1.0000
  H   H739      1.0  0.82064  0.57894  0.55121  1.0000
  C   C612      1.0  0.64386  0.00647  0.49430  1.0000
  C   C613      1.0  0.85768  0.53178  0.50315  1.0000
  Fe  Fe90      1.0  0.82492  0.60722  0.67182  1.0000
  C   C614      1.0  0.56778  0.02121  0.65731  1.0000
  S   S177      1.0  0.73881  0.58962  0.64156  1.0000
  S   S178      1.0  0.81505  0.61439  0.62835  1.0000
  H   H740      1.0  0.81883  0.75779  0.67686  1.0000
  C   C615      1.0  0.67077  0.54117  0.38024  1.0000
  C   C616      1.0  0.88674  0.52884  0.46073  1.0000
  C   C617      1.0  0.59584  0.00475  0.66559  1.0000
  H   H741      1.0  0.64136  0.98287  0.65451  1.0000
  H   H742      1.0  0.65265  0.63484  0.65411  1.0000
  C   C618      1.0  0.75830  0.00470  0.57893  1.0000
  Fe  Fe91      1.0  0.78899  0.94093  0.68317  1.0000
  H   H743      1.0  0.80461  0.53092  0.46908  1.0000
  H   H744      1.0  0.64288  0.00412  0.43719  1.0000
  C   C619      1.0  0.66335  0.69409  0.67610  1.0000
  C   C620      1.0  0.77089  0.97767  0.56546  1.0000
  C   C621      1.0  0.77866  0.98031  0.53823  1.0000
  C   C622      1.0  0.91465  0.95675  0.68857  1.0000
  H   H745      1.0  0.78847  0.95959  0.52763  1.0000
  H   H746      1.0  0.63877  0.98651  0.47970  1.0000
  C   C623      1.0  0.78024  0.78388  0.65856  1.0000
  C   C624      1.0  0.79692  0.75568  0.66518  1.0000
  C   C625      1.0  0.78583  0.72467  0.65644  1.0000
  C   C626      1.0  0.75815  0.72161  0.64063  1.0000
  C   C627      1.0  0.74122  0.74978  0.63420  1.0000
  C   C628      1.0  0.75207  0.78081  0.64327  1.0000
  S   S179      1.0  0.66447  0.91601  0.68010  1.0000
  H   H747      1.0  0.79916  0.70321  0.66145  1.0000
  H   H748      1.0  0.71977  0.74760  0.62198  1.0000
  H   H749      1.0  0.73893  0.80231  0.63810  1.0000
  C   C629      1.0  0.86181  0.54917  0.55784  1.0000
  C   C630      1.0  0.68677  0.52754  0.40166  1.0000
  C   C631      1.0  0.80539  0.01717  0.37376  1.0000
  H   H750      1.0  0.63708  0.99645  0.60697  1.0000
  C   C632      1.0  0.82908  0.53717  0.46027  1.0000
  H   H751      1.0  0.64968  0.55557  0.38472  1.0000
  H   H752      1.0  0.92742  0.95215  0.66999  1.0000
  H   H753      1.0  0.66115  0.71497  0.69019  1.0000
  H   H754      1.0  0.90115  0.85114  0.68760  1.0000
  H   H755      1.0  0.69516  0.64343  0.65829  1.0000
  H   H756      1.0  0.62648  0.52520  0.68034  1.0000
  H   H757      1.0  0.86690  0.95316  0.67098  1.0000
  C   C633      1.0  0.67208  0.63717  0.66926  1.0000
  H   H758      1.0  0.68606  0.69907  0.66414  1.0000
  C   C634      1.0  0.76222  0.53155  0.55826  1.0000
  H   H759      1.0  0.81602  0.56455  0.50457  1.0000
  H   H760      1.0  0.68439  0.54451  0.68051  1.0000
  H   H761      1.0  0.75188  0.55259  0.56804  1.0000
  C   C635      1.0  0.61792  0.00341  0.62081  1.0000
  H   H762      1.0  0.65439  0.99471  0.51199  1.0000
  H   H763      1.0  0.73458  0.53661  0.52240  1.0000
  H   H764      1.0  0.82817  0.52873  0.43914  1.0000
  S   S180      1.0  0.78037  0.63387  0.68519  1.0000
  N   N43       1.0  0.80714  0.84285  0.57303  1.0000
  C   C636      1.0  0.80703  0.86007  0.54718  1.0000
  C   C637      1.0  0.77402  0.84492  0.58501  1.0000
  C   C638      1.0  0.83059  0.86072  0.59048  1.0000
  C   C639      1.0  0.81581  0.80808  0.57064  1.0000
  C   C640      1.0  0.82044  0.79195  0.54573  1.0000
  C   C641      1.0  0.81836  0.78886  0.59375  1.0000
  C   C642      1.0  0.82691  0.75860  0.54433  1.0000
  C   C643      1.0  0.82463  0.75556  0.59213  1.0000
  C   C644      1.0  0.82882  0.74043  0.56748  1.0000
  H   H765      1.0  0.78814  0.84956  0.53369  1.0000
  H   H766      1.0  0.80112  0.88634  0.54984  1.0000
  H   H767      1.0  0.83135  0.85954  0.53712  1.0000
  H   H768      1.0  0.75586  0.83012  0.57350  1.0000
  H   H769      1.0  0.76558  0.87052  0.58565  1.0000
  H   H770      1.0  0.77306  0.83600  0.60583  1.0000
  H   H771      1.0  0.85610  0.85803  0.58313  1.0000
  H   H772      1.0  0.82559  0.88734  0.59148  1.0000
  H   H773      1.0  0.82929  0.85218  0.61139  1.0000
  H   H774      1.0  0.81889  0.80442  0.52703  1.0000
  H   H775      1.0  0.81490  0.79935  0.61332  1.0000
  H   H776      1.0  0.83012  0.74665  0.52517  1.0000
  H   H777      1.0  0.82577  0.74130  0.61013  1.0000
  H   H778      1.0  0.83332  0.71450  0.56638  1.0000
  C   C645      1.0  0.83578  0.55408  0.51521  1.0000
  H   H779      1.0  0.81125  0.99181  0.37912  1.0000
  C   C646      1.0  0.83815  0.56270  0.54211  1.0000
  C   C647      1.0  0.62039  0.99588  0.64760  1.0000
  H   H780      1.0  0.59892  0.99835  0.68612  1.0000
  C   C648      1.0  0.52805  0.99916  0.68864  1.0000
  C   C649      1.0  0.88367  0.52734  0.54666  1.0000
  C   C650      1.0  0.77428  0.00971  0.52463  1.0000
  H   H781      1.0  0.67777  0.53128  0.42181  1.0000
  H   H782      1.0  0.88227  0.89051  0.69002  1.0000
  Fe  Fe92      1.0  0.75396  0.58536  0.68408  1.0000
  S   S181      1.0  0.87210  0.62236  0.69234  1.0000
  C   C651      1.0  0.69656  0.01663  0.47374  1.0000
  N   N44       1.0  0.66434  0.66223  0.68978  1.0000
  H   H783      1.0  0.78078  0.01145  0.50380  1.0000
  H   H784      1.0  0.83260  0.56415  0.46006  1.0000
  H   H785      1.0  0.67569  0.61291  0.67830  1.0000
  C   C652      1.0  0.88034  0.95716  0.68910  1.0000
  H   H786      1.0  0.75221  0.00304  0.59987  1.0000
  H   H787      1.0  0.86258  0.55498  0.57893  1.0000
  H   H788      1.0  0.85922  0.85541  0.67954  1.0000
  H   H789      1.0  0.62038  0.60798  0.68591  1.0000
  H   H790      1.0  0.89321  0.55533  0.46205  1.0000
  C   C653      1.0  0.66940  0.01732  0.36257  1.0000
  S   S182      1.0  0.79769  0.52271  0.60429  1.0000
  H   H791      1.0  0.71002  0.00527  0.49020  1.0000
  C   C654      1.0  0.75248  0.52241  0.53239  1.0000
  C   C655      1.0  0.59080  0.01971  0.61193  1.0000
  H   H792      1.0  0.62007  0.01689  0.50042  1.0000
  C   C656      1.0  0.87855  0.86394  0.69351  1.0000
  H   H793      1.0  0.55164  0.88582  0.83879  1.0000
  C   C657      1.0  0.59244  0.67220  0.73781  1.0000
  C   C658      1.0  0.92434  0.88370  0.73313  1.0000
  H   H794      1.0  0.76753  0.57081  0.77508  1.0000
  S   S183      1.0  0.97567  0.96295  0.70979  1.0000
  H   H795      1.0  0.69223  0.64028  0.72032  1.0000
  C   C659      1.0  0.57611  0.69545  0.00492  1.0000
  C   C660      1.0  0.55409  0.66192  0.96745  1.0000
  H   H796      1.0  0.92911  0.97269  0.75387  1.0000
  H   H797      1.0  0.58778  0.95960  0.81018  1.0000
  H   H798      1.0  0.97013  0.90544  0.74556  1.0000
  C   C661      1.0  0.68149  0.56490  0.72005  1.0000
  H   H799      1.0  0.80082  0.59087  0.79142  1.0000
  C   C662      1.0  0.65646  0.88521  0.75065  1.0000
  C   C663      1.0  0.61551  0.54324  0.71978  1.0000
  C   C664      1.0  0.62803  0.55977  0.74201  1.0000
  C   C665      1.0  0.66100  0.57033  0.74220  1.0000
  H   H800      1.0  0.90699  0.87137  0.80838  1.0000
  H   H801      1.0  0.93081  0.88851  0.71263  1.0000
  Fe  Fe93      1.0  0.52526  0.99476  0.76536  1.0000
  S   S184      1.0  0.58019  0.00149  0.76051  1.0000
  H   H802      1.0  0.92884  0.63112  0.72465  1.0000
  C   C666      1.0  0.94904  0.58358  0.72994  1.0000
  C   C667      1.0  0.94603  0.55023  0.72402  1.0000
  S   S185      1.0  0.72295  0.57775  0.72134  1.0000
  C   C668      1.0  0.88851  0.86448  0.76865  1.0000
  H   H803      1.0  0.64759  0.00635  0.74418  1.0000
  H   H804      1.0  0.96898  0.59261  0.74204  1.0000
  H   H805      1.0  0.56979  0.59933  0.71036  1.0000
  H   H806      1.0  0.68925  0.68367  0.72364  1.0000
  C   C669      1.0  0.91577  0.96874  0.73570  1.0000
  C   C670      1.0  0.93253  0.96279  0.71179  1.0000
  C   C671      1.0  0.98592  0.61895  0.91474  1.0000
  H   H807      1.0  0.63553  0.70001  0.72855  1.0000
  H   H808      1.0  0.91133  0.59433  0.79973  1.0000
  H   H809      1.0  0.67528  0.88027  0.73587  1.0000
  H   H810      1.0  0.55728  0.71693  0.94172  1.0000
  C   C672      1.0  0.57371  0.64403  0.73285  1.0000
  C   C673      1.0  0.63684  0.98523  0.73425  1.0000
  C   C674      1.0  0.60385  0.97673  0.73902  1.0000
  C   C675      1.0  0.59027  0.94936  0.72606  1.0000
  H   H811      1.0  0.59674  0.71179  0.95608  1.0000
  H   H812      1.0  0.56222  0.85779  0.81324  1.0000
  C   C676      1.0  0.83807  0.87412  0.72713  1.0000
  H   H813      1.0  0.01086  0.66202  0.98463  1.0000
  S   S186      1.0  0.01682  0.90251  0.82645  1.0000
  H   H814      1.0  0.79273  0.54816  0.79695  1.0000
  C   C677      1.0  0.94108  0.88931  0.77896  1.0000
  C   C678      1.0  0.79974  0.53012  0.74518  1.0000
  C   C679      1.0  0.91172  0.87470  0.78730  1.0000
  H   H815      1.0  0.54071  0.89173  0.77836  1.0000
  C   C680      1.0  0.86588  0.57858  0.78196  1.0000
  H   H816      1.0  0.52801  0.92017  0.80296  1.0000
  H   H817      1.0  0.56339  0.94219  0.83622  1.0000
  C   C681      1.0  0.89788  0.57439  0.79023  1.0000
  H   H818      1.0  0.99608  0.58463  0.88313  1.0000
  H   H819      1.0  0.55353  0.93387  0.77590  1.0000
  C   C682      1.0  0.66880  0.54901  0.69761  1.0000
  C   C683      1.0  0.90004  0.59399  0.70448  1.0000
  H   H820      1.0  0.86609  0.85332  0.77611  1.0000
  H   H821      1.0  0.63771  0.94263  0.79642  1.0000
  H   H822      1.0  0.82501  0.60954  0.74877  1.0000
  C   C684      1.0  0.58033  0.72501  0.01961  1.0000
  H   H823      1.0  0.57056  0.74341  0.96788  1.0000
  C   C685      1.0  0.57094  0.71766  0.96074  1.0000
  C   C686      1.0  0.00630  0.60134  0.89786  1.0000
  C   C687      1.0  0.84823  0.55330  0.76844  1.0000
  H   H824      1.0  0.83230  0.58063  0.72281  1.0000
  C   C688      1.0  0.65597  0.96681  0.71638  1.0000
  N   N45       1.0  0.57834  0.90773  0.80584  1.0000
  C   C689      1.0  0.54897  0.91354  0.79001  1.0000
  C   C690      1.0  0.57121  0.88002  0.82397  1.0000
  C   C691      1.0  0.58442  0.93732  0.82258  1.0000
  C   C692      1.0  0.60581  0.89999  0.78760  1.0000
  C   C693      1.0  0.60387  0.87199  0.77076  1.0000
  C   C694      1.0  0.63437  0.92027  0.78515  1.0000
  C   C695      1.0  0.62882  0.86487  0.75253  1.0000
  N   N46       1.0  0.81484  0.55889  0.75895  1.0000
  C   C696      1.0  0.92620  0.60534  0.72012  1.0000
  H   H825      1.0  0.81922  0.86739  0.71218  1.0000
  C   C697      1.0  0.52275  0.70463  0.98695  1.0000
  H   H826      1.0  0.53887  0.64521  0.87203  1.0000
  S   S187      1.0  0.00639  0.53640  0.80860  1.0000
  Fe  Fe94      1.0  0.00900  0.96994  0.74525  1.0000
  H   H827      1.0  0.67063  0.58262  0.75964  1.0000
  H   H828      1.0  0.95972  0.61544  0.91336  1.0000
  C   C698      1.0  0.81586  0.58620  0.73990  1.0000
  H   H829      1.0  0.98237  0.65471  0.94550  1.0000
  H   H830      1.0  0.58261  0.85584  0.77111  1.0000
  C   C699      1.0  0.89407  0.86868  0.74094  1.0000
  H   H831      1.0  0.59329  0.87353  0.83516  1.0000
  S   S188      1.0  0.99378  0.98145  0.78717  1.0000
  C   C700      1.0  0.65930  0.91271  0.76701  1.0000
  C   C701      1.0  0.86332  0.82171  0.72413  1.0000
  H   H832      1.0  0.62642  0.84392  0.73930  1.0000
  C   C702      1.0  0.60927  0.93113  0.70814  1.0000
  H   H833      1.0  0.53916  0.66239  0.94909  1.0000
  H   H834      1.0  0.79130  0.59095  0.73194  1.0000
  C   C703      1.0  0.69147  0.66342  0.70896  1.0000
  H   H835      1.0  0.85316  0.81490  0.74394  1.0000
  S   S189      1.0  0.57470  0.52831  0.71874  1.0000
  C   C704      1.0  0.58421  0.62152  0.71388  1.0000
  N   N47       1.0  0.55642  0.69461  0.98044  1.0000
  C   C705      1.0  0.88148  0.96968  0.73614  1.0000
  C   C706      1.0  0.99916  0.64153  0.93292  1.0000
  H   H836      1.0  0.82726  0.86791  0.74684  1.0000
  C   C707      1.0  0.86364  0.96398  0.71285  1.0000
  N   N48       1.0  0.86914  0.85743  0.72163  1.0000
  H   H837      1.0  0.86870  0.97484  0.75461  1.0000
  H   H838      1.0  0.60620  0.93467  0.83522  1.0000
  H   H839      1.0  0.58418  0.68948  0.75277  1.0000
  H   H840      1.0  0.00613  0.70477  0.95173  1.0000
  C   C708      1.0  0.91983  0.53888  0.70842  1.0000
  H   H841      1.0  0.56915  0.74723  0.01345  1.0000
  H   H842      1.0  0.77467  0.53519  0.73826  1.0000
  H   H843      1.0  0.61245  0.56393  0.75919  1.0000
  H   H844      1.0  0.85538  0.60211  0.78560  1.0000
  C   C709      1.0  0.94737  0.89373  0.75197  1.0000
  H   H845      1.0  0.56506  0.94231  0.72949  1.0000
  Fe  Fe95      1.0  0.53381  0.54108  0.74769  1.0000
  C   C710      1.0  0.79313  0.56756  0.78164  1.0000
  C   C711      1.0  0.62172  0.67799  0.72378  1.0000
  S   S190      1.0  0.53424  0.56235  0.78934  1.0000
  H   H846      1.0  0.68044  0.92897  0.76487  1.0000
  S   S191      1.0  0.82065  0.96663  0.71401  1.0000
  H   H847      1.0  0.57852  0.65327  0.96116  1.0000
  H   H848      1.0  0.95900  0.89732  0.79346  1.0000
  H   H849      1.0  0.84172  0.90110  0.72668  1.0000
  H   H850      1.0  0.55109  0.63949  0.74388  1.0000
  H   H851      1.0  0.53225  0.62662  0.82520  1.0000
  H   H852      1.0  0.54204  0.64364  0.98081  1.0000
  C   C712      1.0  0.89682  0.56060  0.69881  1.0000
  C   C713      1.0  0.63601  0.53803  0.69758  1.0000
  H   H853      1.0  0.68127  0.97368  0.71270  1.0000
  C   C714      1.0  0.63311  0.65560  0.70421  1.0000
  C   C715      1.0  0.91311  0.54494  0.78548  1.0000
  H   H854      1.0  0.84543  0.81222  0.70926  1.0000
  C   C716      1.0  0.61350  0.62695  0.69980  1.0000
  Fe  Fe96      1.0  0.01488  0.53598  0.76430  1.0000
  H   H855      1.0  0.88636  0.80832  0.72102  1.0000
  H   H856      1.0  0.58948  0.64385  0.00538  1.0000
  C   C717      1.0  0.59138  0.66745  0.01500  1.0000
  C   C718      1.0  0.64215  0.93971  0.70320  1.0000
  H   H857      1.0  0.71558  0.66693  0.69871  1.0000
  H   H858      1.0  0.54635  0.98572  0.69986  1.0000
  H   H859      1.0  0.59844  0.91015  0.69805  1.0000
  S   S192      1.0  0.75651  0.89987  0.69818  1.0000
  C   C719      1.0  0.52208  0.65739  0.85933  1.0000
  H   H860      1.0  0.93828  0.54209  0.79102  1.0000
  H   H861      1.0  0.98046  0.79552  0.02016  1.0000
  H   H862      1.0  0.96416  0.01904  0.74332  1.0000
  C   C720      1.0  0.86453  0.52347  0.76401  1.0000
  H   H863      1.0  0.52196  0.73055  0.99341  1.0000
  H   H864      1.0  0.81401  0.52321  0.72706  1.0000
