data_image0
_chemical_formula_structural       H2C3H5C2SPCH3C2HCHCHCSC2HPHSHFeHCH2SHCHFeCSCHC4HSC8SC2HCH3C3HC2H3C2H2CHCHCHFeH2CHCS2C2HC2HCHCH2SCHCHSCH2CHC6H3C5SCHCHC3SCHC2SC2H2SHCH2C2FeHC3FeC2FeH3CHFeC2HFeC2H2C2HC2H5C2PH2CHC2HC2H5C2HC2SCFeHC5H5CHCH7C5S2C4SH2SC4HC5HC2SCHC3HC5FeSCH3FeCHC2SH2C2HSCH3C7HCH2SFeHC3SHCH3FeCHSH3C2H2CPCH3C3PH5CFeC2HCHC4HCHCH2PC4HCS2C3HSH3C2HC2HC4HC3H3CHC6PCSCHCH2FeC3HC2HC4H3CH3C4HCHCHCHC4SCPC2H2C3HCHC5H3C3HCHCHC3HCH4PH2FeHC2HSC2H2C2HCFeCHCH3C3HCHCFeH5C2HSHSHC6HC2HCHSCHC2H3C3SH2CHC2HC2FeC3H3FeHC5H2PCHSHSH4CH3CH2C3HC2HC3H2SHC3H3C2HCSHC5S2CHC7H3CHSHCH2CH6C2HCH2CHC2SH3CFeCH2C3HCHC2HC2H3CFeHFeHC2HCSCSHSCHC2HCS2HFeCHC2S2HFeCFeH2C2H2C4HCHC2HCHCPCHCSHPCH2C2HC2HCHCH2SC2H2SC2FeCHC6HC2HCHCFeC3HSH2C4HCHCHCH4C2H2C2H2SCHCH3C5HSHCHC2H2CHC3HCHCHCSC2HCHCHC3HC2H2C3SC2HCHCSHC5H3C2H2Fe2C2PSFeHC2HCHCHSCPH4FeCH4CHC2HCSHC2HSC2PHPH3CFeH4S2C2HC2H2CHC2H2CHC3HC3HSC3HCH2Fe2H2CSHCHCSHCHCFeC4H5C3HC4H2FeSCH2SHCHC5HC7SH4CHCHC2FeCH2SH2C2HC3H2SHC2HCHCHC2S2H2CHC2FeCHC3HCHCFeCHC4HC2H3CH2CH2C4SCHC3HC3HC2SHC2HC2H3PCHC2PCHCH5CH2C2HC2H2CH3CH2CHC8H4CHC3HCHCHC3HC2H3C5H2C2H5CHFeC7HCH2CHC2H5C4H2C2HSC2PCHCH5C2HCHC7HFeC2H5SHC3HCHCH2C4HC3HCSHC2H2C2HC2SC3HC3HFeH3SHC4PCPC4HC3H2C2H2SC3HCHC2HCHCHC4HCFeSC4H2C2HSCHCHC6PCFeCH2CHSC2HCHCH2CHPC2H2C3HC2H3SCFeCH2C5HCH3CPCH2C3H3CHCHCHCH2CH2C3HCH3C3HSCH2CHC4H2FeH3C3SC2H3FeC3SC2HSH2CH3SH2C2H2CH2CHCH3PC2H2CH2CH2C2H2C2H3CH2C3H2CHC3H3C3FeC2H2C3H2C6H2CHC3FeHCHCH2SFeH2FeC2HC2PCH2C2HC3SH2C2HC2PH2CHCSCHC4H2CH2CH2SC4PC2SCHC4HCHSHC2HC2SCH5CHC2HCHPH2SHSHC8PCH3CHC4HCHSH3C4HCHCH3C3HFeH2CSCH2C3HC3HCFeH2CH2C2HSCHC7HCHCHCHCHC2H2C4H2C3FeSHFeSHCHSC2HC4HC6H2CH4CHFeH2CHCHC2HC4PCHC3HCH3CHC2H4C2SHC3H3C2SHFeHSHPC2SC3SCFeHPCHCHC2H2CH3CSHC2SCHC2HCH2CHCHCHCHCHCH2C6H2C2H2C5HC2H4CHC2SC2PCPH3C4SCHSCHCHC5HCHCHC2H2C2HCHCHPH2C2HCHC2H2CFeCH3CH2C2H2CHC6HC2H3CH2CH2CH2C6H2PCHC2HCHC2HCH4CHC8HFeH3C2H2CHCS2HCH2SCSC3HC2H2CSH3CHCSHCHFeHCHC3HPHC2HC2H2C3HC8HCHC2SH2CHSHCH2C4HCHCFeC2HC2HC2PC3HSCHCH2C3H2CH3CH2SH2SHC2SHC3HC2HCH2CH2CHC3SPSH2C3H3C4SC5H2CH2SCH2C2H2C3FeC2HC2H2CH2C2HFeCSPCHC2H3C2HC2FeCH3FeC3SHCH2C2H2CHC5HC4HCH3C2PSCS2HCHC3HC2HC3HCHCH2C2FeH3CHC6HCHC2H3C2HCFeCS2C2SH2SCH2C2HC2H2C2HPCH6C2H2FeH3CHCHC2HCHCHCH2CHC3HFeHCHCHCSC6H2FeHCHC4HC2H2SHCH2CH2CHCH5C3HCHC2SHCHSC2FeC3HCSCH3SC3HCHC4H4CHC2HCHCHCPH3CSHCH2C4H2C2SHC2SCPC3HCHC2HCH3CHCH2SCSH3CHCH2C2HCH3SPHCFeHC2H2CSHC2S2C2H2CH3C5HCHSC3HC3FeH2CH2CSCHCHC3H2SH2FeHCHCH2C2SHCHC2FeC2HCHCHC5SCH2C2FeHCHSCHC5HCH2CHCHC4H2CH2CHPC2HC2H4C3HC5HCH2CHC3H2PHCSHFeCHC2SC6HCHC7SCH3C2HC3SC2H2CHCHCHC2HC2H2C5HCH3C2FeCH2CH2CH2CSCHCHCHC2PCH2C2HCHC4H2CHC2H4C3HCHSCFeHC2SH3C2HCFeC2HCHCHP2CFeC2HSH2C3S2CHCSH2C3H4PHC2H2C5HC3H4C2H2C2H2C2HC2PSFeH2C4H3C2HSHC2HC2HPCHC2FeCFeC2HCHSCHCHFeSH2CHCHC2HC3S2FeHC5SHFeHSCHC2HCHC7H2C2HC3HC2HCH2C4HCHCH3CHSH2CHSCSH2CH4CHCHCHFeC3H3CHC2HC2HCHC2HC4FeHC2H2CHCHC3HCHC2HCH8C2H2CFeCSC2HCH3C3HC3HC3HCH2C2H2CHCSHCHC7H2SHFeCH2CH2FeHCH2CPHCHC2HC2SHSPCHSC4HCHCHCHSC4H2C3HC4HCHCH2CH2C3H2CH3CHC2H2FeHC3HFeSH2C5H3C4HC3HPCHCHCPHCHC2H2CHSCHSHCFeSC2HC2H3C5SCSPHFe2H2CSCFeC4Fe2H4SCFeHC4H2CHCH3CSH3CH3CH7CH6CSH3SC3H3C2H2CH2C2HCH2CH2CH2C3H2CHCH2C3SC3SHC3HCH2FeCH2CH2CSCH2CH2C4SHC5H2CSCHC2HC5H2SCHSHCH2C2HC4HCH3CHS2HCHCHC2SH2C2PSHC4HSCSHC4HCHCHC3HCHCHCPHC5FeHC3HFeHC6HFeC2HCFeHCHC2SH4C3HC2H2CFeHCH2C6FeH3CH2CPH2C3SCSHC2SH2C2H2C2SHC3SHCH2C3HCH5C2FeH3PCHSCHCSC2HCH2C3H2FeHC3H4FeHCHSC2H2CHC3HC2HC3H2SHSHC6SHCHC2FeCH3CHCH2CHCH2CSHCHCHPH4SC2H2SHC2HSHFeHC2SH2CHC2PCHCHCSC6SCFe2C3SC4H2C6SC4HCH2CH3SH3CHCH2CH3CHSHSC4HCHSHFeCHC2H2SH2C4SCHCHC4H6CH2CSHC2SFeSC3H4C2HCHC3HC3HPH4CSH3C2FeC2H3CH5CPC3H3C3SC2SC2PC7H2C3HFeC2HC3HFeCSC2H3CH2C2FeCSH3CH2C4HCH2CFeH2C2SCHC2FeCFeH2C3HC2SCFeHC3HCPCH2FeHSCH2CHS2C2FeH2CHCHC2SCSHCHC2H5SC4HC2H2CSC3H8PC3HC3FeC2H2C2SH4SHFeCHC5H2SCSHCHCH3CH2CSC3HSH2C2H2PHC3SC5HCHCH2C2HCHCSH2CH2C2SHCSFeCFeHCHC2HC3H2C2FeH5SCH2CHC2HCS2C2H2C2HC4HC2FeC2HCHC2H3C2FeHCH2FeC4H2CH3C3H2CHCHC3S2H2CPSC2H2CSH5CHCFeC2H2C2HCHC5HC3H3CHC2Fe2CSC3H2C2S2FeHC3H2C2H2CFeCS2FeS2FeH5CSHCH2C4HCHCHSH
_chemical_formula_sum              "H1728 C2160 S288 P72 Fe144"
_cell_length_a       38.38
_cell_length_b       38.2461
_cell_length_c       39.1682
_cell_angle_alpha    94.2219
_cell_angle_beta     85.9287
_cell_angle_gamma    81.9457

_space_group_name_H-M_alt    "P 1"
_space_group_IT_number       1

loop_
  _space_group_symop_operation_xyz
  'x, y, z'

loop_
  _atom_site_type_symbol
  _atom_site_label
  _atom_site_symmetry_multiplicity
  _atom_site_fract_x
  _atom_site_fract_y
  _atom_site_fract_z
  _atom_site_occupancy
  H   H1        1.0  0.30593  0.22228  0.15793  1.0000
  H   H2        1.0  0.39134  0.30670  0.29410  1.0000
  C   C1        1.0  0.29979  0.34294  0.34020  1.0000
  C   C2        1.0  0.22277  0.48227  0.02691  1.0000
  C   C3        1.0  0.18101  0.34762  0.11378  1.0000
  H   H3        1.0  0.34054  0.28822  0.17378  1.0000
  H   H4        1.0  0.23762  0.27088  0.24049  1.0000
  H   H5        1.0  0.28416  0.28981  0.44558  1.0000
  H   H6        1.0  0.33397  0.51467  0.44848  1.0000
  H   H7        1.0  0.29382  0.41477  0.06187  1.0000
  C   C4        1.0  0.21599  0.34798  0.41428  1.0000
  C   C5        1.0  0.21293  0.37577  0.39284  1.0000
  S   S1        1.0  0.39641  0.38886  0.37212  1.0000
  P   P1        1.0  0.24009  0.26099  0.05985  1.0000
  C   C6        1.0  0.20943  0.32215  0.10058  1.0000
  H   H8        1.0  0.29183  0.36215  0.01603  1.0000
  H   H9        1.0  0.31498  0.21387  0.42675  1.0000
  H   H10       1.0  0.18280  0.32412  0.27212  1.0000
  C   C7        1.0  0.19925  0.25522  0.16693  1.0000
  C   C8        1.0  0.28716  0.33374  0.27089  1.0000
  H   H11       1.0  0.28784  0.36664  0.45868  1.0000
  C   C9        1.0  0.27532  0.52674  0.24728  1.0000
  H   H12       1.0  0.18849  0.47199  0.06986  1.0000
  C   C10       1.0  0.25310  0.36108  0.50351  1.0000
  H   H13       1.0  0.33404  0.27230  0.40183  1.0000
  C   C11       1.0  0.21145  0.45313  0.35851  1.0000
  S   S2        1.0  0.32559  0.44343  0.40456  1.0000
  C   C12       1.0  0.30596  0.22025  0.25951  1.0000
  C   C13       1.0  0.18527  0.42513  0.28630  1.0000
  H   H14       1.0  0.28883  0.50914  0.35399  1.0000
  P   P2        1.0  0.17514  0.42750  0.35754  1.0000
  H   H15       1.0  0.18659  0.45325  0.28986  1.0000
  S   S3        1.0  0.33170  0.42165  0.12441  1.0000
  H   H16       1.0  0.26927  0.50542  0.19595  1.0000
  Fe  Fe1       1.0  0.33173  0.42920  0.18148  1.0000
  H   H17       1.0  0.29508  0.50501  0.25209  1.0000
  C   C14       1.0  0.26417  0.37766  0.47468  1.0000
  H   H18       1.0  0.18583  0.37184  0.12765  1.0000
  H   H19       1.0  0.24821  0.41292  0.32725  1.0000
  S   S4        1.0  0.23035  0.42389  0.10823  1.0000
  H   H20       1.0  0.18828  0.31663  0.44739  1.0000
  C   C15       1.0  0.23444  0.53316  0.11118  1.0000
  H   H21       1.0  0.24055  0.50462  0.11110  1.0000
  Fe  Fe2       1.0  0.27849  0.40541  0.13489  1.0000
  C   C16       1.0  0.19233  0.40783  0.25334  1.0000
  S   S5        1.0  0.27980  0.32556  0.22767  1.0000
  C   C17       1.0  0.20349  0.29141  0.08130  1.0000
  H   H22       1.0  0.32556  0.36891  0.26212  1.0000
  C   C18       1.0  0.37737  0.24303  0.15193  1.0000
  C   C19       1.0  0.21457  0.46566  0.05651  1.0000
  C   C20       1.0  0.23739  0.23959  0.35945  1.0000
  C   C21       1.0  0.26044  0.52682  0.21573  1.0000
  H   H23       1.0  0.37150  0.39415  0.06480  1.0000
  S   S6        1.0  0.27625  0.41843  0.19176  1.0000
  C   C22       1.0  0.24407  0.43931  0.34046  1.0000
  C   C23       1.0  0.38654  0.37461  0.04631  1.0000
  C   C24       1.0  0.18346  0.35235  0.27608  1.0000
  C   C25       1.0  0.24480  0.40915  0.46624  1.0000
  C   C26       1.0  0.33053  0.31570  0.01607  1.0000
  C   C27       1.0  0.18588  0.33830  0.43104  1.0000
  C   C28       1.0  0.39903  0.28000  0.30113  1.0000
  C   C29       1.0  0.35399  0.50651  0.07415  1.0000
  S   S7        1.0  0.39378  0.49005  0.35233  1.0000
  C   C30       1.0  0.40875  0.22090  0.15580  1.0000
  C   C31       1.0  0.35864  0.50447  0.10906  1.0000
  H   H24       1.0  0.38399  0.22871  0.36656  1.0000
  C   C32       1.0  0.17814  0.40591  0.31460  1.0000
  H   H25       1.0  0.39503  0.50311  0.14801  1.0000
  H   H26       1.0  0.21838  0.30079  0.19020  1.0000
  H   H27       1.0  0.20765  0.52626  0.46019  1.0000
  C   C33       1.0  0.24035  0.44181  0.06951  1.0000
  C   C34       1.0  0.37797  0.50944  0.25507  1.0000
  C   C35       1.0  0.42087  0.50876  0.09831  1.0000
  H   H28       1.0  0.24950  0.30066  0.28817  1.0000
  C   C36       1.0  0.36459  0.47955  0.24206  1.0000
  C   C37       1.0  0.27161  0.45960  0.33866  1.0000
  H   H29       1.0  0.17944  0.53248  0.10527  1.0000
  H   H30       1.0  0.24182  0.33380  0.41755  1.0000
  H   H31       1.0  0.20297  0.50128  0.01735  1.0000
  C   C38       1.0  0.27527  0.32148  0.33000  1.0000
  C   C39       1.0  0.24815  0.22138  0.32735  1.0000
  H   H32       1.0  0.39498  0.27950  0.41545  1.0000
  H   H33       1.0  0.18876  0.28400  0.01098  1.0000
  C   C40       1.0  0.31144  0.35582  0.28107  1.0000
  H   H34       1.0  0.36578  0.43384  0.31357  1.0000
  C   C41       1.0  0.17969  0.39427  0.38814  1.0000
  H   H35       1.0  0.34951  0.42906  0.25310  1.0000
  C   C42       1.0  0.22161  0.22090  0.22410  1.0000
  H   H36       1.0  0.25380  0.23594  0.38063  1.0000
  Fe  Fe3       1.0  0.35285  0.36525  0.13119  1.0000
  H   H37       1.0  0.37702  0.52081  0.49156  1.0000
  H   H38       1.0  0.35685  0.23769  0.25765  1.0000
  C   C43       1.0  0.41772  0.25739  0.20697  1.0000
  H   H39       1.0  0.33668  0.37725  0.32386  1.0000
  C   C44       1.0  0.19485  0.24888  0.30472  1.0000
  S   S8        1.0  0.30700  0.34702  0.38365  1.0000
  S   S9        1.0  0.29943  0.34799  0.13627  1.0000
  C   C45       1.0  0.33895  0.28200  0.42745  1.0000
  C   C46       1.0  0.41608  0.51089  0.06321  1.0000
  H   H40       1.0  0.23159  0.53390  0.38660  1.0000
  C   C47       1.0  0.40248  0.34230  0.05671  1.0000
  C   C48       1.0  0.20721  0.48748  0.37514  1.0000
  H   H41       1.0  0.37566  0.30102  0.22224  1.0000
  C   C49       1.0  0.19588  0.21965  0.16930  1.0000
  H   H42       1.0  0.28605  0.26482  0.11620  1.0000
  C   C50       1.0  0.35261  0.53315  0.44552  1.0000
  H   H43       1.0  0.19908  0.44850  0.47961  1.0000
  H   H44       1.0  0.23651  0.38247  0.37972  1.0000
  S   S10       1.0  0.36168  0.38154  0.45079  1.0000
  C   C51       1.0  0.38266  0.51008  0.05126  1.0000
  H   H45       1.0  0.26108  0.30830  0.34880  1.0000
  C   C52       1.0  0.33742  0.28108  0.02548  1.0000
  H   H46       1.0  0.36391  0.26642  0.02126  1.0000
  S   S11       1.0  0.35705  0.37396  0.18782  1.0000
  C   C53       1.0  0.31008  0.26513  0.04015  1.0000
  H   H47       1.0  0.39840  0.53486  0.29845  1.0000
  H   H48       1.0  0.18248  0.49923  0.38883  1.0000
  C   C54       1.0  0.29677  0.33498  0.02263  1.0000
  H   H49       1.0  0.24322  0.33415  0.04135  1.0000
  C   C55       1.0  0.38531  0.27862  0.20379  1.0000
  C   C56       1.0  0.17669  0.36946  0.30916  1.0000
  C   C57       1.0  0.25465  0.22983  0.09027  1.0000
  C   C58       1.0  0.39392  0.23600  0.34190  1.0000
  C   C59       1.0  0.21410  0.42421  0.48634  1.0000
  C   C60       1.0  0.35117  0.30907  0.49303  1.0000
  H   H50       1.0  0.19676  0.27621  0.38903  1.0000
  H   H51       1.0  0.29324  0.24434  0.27408  1.0000
  H   H52       1.0  0.19079  0.26823  0.14481  1.0000
  C   C61       1.0  0.39189  0.50560  0.12106  1.0000
  C   C62       1.0  0.36920  0.45487  0.29721  1.0000
  C   C63       1.0  0.36526  0.27143  0.17635  1.0000
  C   C64       1.0  0.31065  0.29209  0.45232  1.0000
  C   C65       1.0  0.23504  0.50753  0.37365  1.0000
  S   S12       1.0  0.31344  0.47241  0.49856  1.0000
  C   C66       1.0  0.22712  0.22611  0.29970  1.0000
  H   H53       1.0  0.29656  0.44872  0.32449  1.0000
  C   C67       1.0  0.36013  0.45213  0.26306  1.0000
  H   H54       1.0  0.40606  0.30235  0.47365  1.0000
  C   C68       1.0  0.26936  0.31901  0.03718  1.0000
  C   C69       1.0  0.31643  0.30633  0.48512  1.0000
  C   C70       1.0  0.38476  0.27037  0.33231  1.0000
  S   S13       1.0  0.35224  0.47833  0.19996  1.0000
  C   C71       1.0  0.22530  0.25654  0.22118  1.0000
  H   H55       1.0  0.33679  0.50114  0.12703  1.0000
  C   C72       1.0  0.37943  0.29894  0.46802  1.0000
  C   C73       1.0  0.28171  0.44894  0.02156  1.0000
  S   S14       1.0  0.39862  0.33260  0.09968  1.0000
  C   C74       1.0  0.26884  0.31703  0.29551  1.0000
  C   C75       1.0  0.20536  0.26238  0.36420  1.0000
  H   H56       1.0  0.37913  0.51136  0.02414  1.0000
  H   H57       1.0  0.23599  0.32702  0.10464  1.0000
  S   S15       1.0  0.40219  0.44898  0.43601  1.0000
  H   H58       1.0  0.19812  0.35796  0.22284  1.0000
  C   C76       1.0  0.27396  0.43347  0.05208  1.0000
  H   H59       1.0  0.19914  0.42242  0.23176  1.0000
  H   H60       1.0  0.25379  0.42180  0.44402  1.0000
  C   C77       1.0  0.21439  0.27358  0.19264  1.0000
  C   C78       1.0  0.22757  0.23973  0.02066  1.0000
  Fe  Fe4       1.0  0.34797  0.44045  0.45546  1.0000
  H   H61       1.0  0.28805  0.54131  0.11405  1.0000
  C   C79       1.0  0.42239  0.31732  0.03253  1.0000
  C   C80       1.0  0.19175  0.37143  0.24828  1.0000
  C   C81       1.0  0.26717  0.49370  0.35526  1.0000
  Fe  Fe5       1.0  0.34341  0.38506  0.39806  1.0000
  C   C82       1.0  0.31778  0.36045  0.31591  1.0000
  C   C83       1.0  0.27730  0.23906  0.11504  1.0000
  Fe  Fe6       1.0  0.30150  0.36207  0.19251  1.0000
  H   H62       1.0  0.31555  0.23798  0.04656  1.0000
  H   H63       1.0  0.32834  0.50467  0.06476  1.0000
  H   H64       1.0  0.38142  0.53068  0.23902  1.0000
  C   C84       1.0  0.37726  0.53666  0.46974  1.0000
  H   H65       1.0  0.36688  0.28981  0.34909  1.0000
  Fe  Fe7       1.0  0.41370  0.39004  0.42558  1.0000
  C   C85       1.0  0.37322  0.28613  0.43505  1.0000
  C   C86       1.0  0.27581  0.28381  0.04580  1.0000
  H   H66       1.0  0.36249  0.23808  0.13001  1.0000
  Fe  Fe8       1.0  0.38077  0.44728  0.38446  1.0000
  C   C87       1.0  0.38277  0.48494  0.30998  1.0000
  C   C88       1.0  0.38742  0.51194  0.28879  1.0000
  H   H67       1.0  0.17754  0.25210  0.28410  1.0000
  H   H68       1.0  0.26647  0.53867  0.47552  1.0000
  C   C89       1.0  0.28878  0.21503  0.13862  1.0000
  C   C90       1.0  0.39041  0.38183  0.01174  1.0000
  H   H69       1.0  0.37842  0.22202  0.45753  1.0000
  C   C91       1.0  0.18419  0.26710  0.33689  1.0000
  C   C92       1.0  0.34211  0.21674  0.24993  1.0000
  H   H70       1.0  0.30830  0.30553  0.72712  1.0000
  H   H71       1.0  0.35908  0.22590  0.51907  1.0000
  H   H72       1.0  0.31875  0.22421  0.62484  1.0000
  H   H73       1.0  0.30084  0.52217  0.55751  1.0000
  H   H74       1.0  0.28605  0.28666  0.58115  1.0000
  C   C93       1.0  0.31046  0.32143  0.61405  1.0000
  C   C94       1.0  0.32242  0.37621  0.59152  1.0000
  P   P3        1.0  0.27905  0.32155  0.51597  1.0000
  H   H75       1.0  0.40275  0.43237  0.57581  1.0000
  H   H76       1.0  0.36286  0.38386  0.80730  1.0000
  C   C95       1.0  0.20313  0.40818  0.51539  1.0000
  H   H77       1.0  0.30789  0.38432  0.54058  1.0000
  C   C96       1.0  0.19833  0.50031  0.78824  1.0000
  C   C97       1.0  0.21472  0.32907  0.65332  1.0000
  H   H78       1.0  0.20313  0.31418  0.51076  1.0000
  C   C98       1.0  0.22425  0.51269  0.76687  1.0000
  C   C99       1.0  0.29485  0.33423  0.55675  1.0000
  H   H79       1.0  0.18177  0.21888  0.76216  1.0000
  H   H80       1.0  0.41555  0.31037  0.54008  1.0000
  H   H81       1.0  0.21458  0.36546  0.54738  1.0000
  H   H82       1.0  0.19041  0.30083  0.83869  1.0000
  H   H83       1.0  0.30759  0.44220  0.00792  1.0000
  C   C100      1.0  0.30372  0.33316  0.77758  1.0000
  C   C101      1.0  0.26354  0.32460  0.90456  1.0000
  H   H84       1.0  0.22130  0.33906  0.98775  1.0000
  C   C102      1.0  0.24752  0.26044  0.77232  1.0000
  C   C103      1.0  0.41580  0.45128  0.80632  1.0000
  S   S16       1.0  0.36996  0.32416  0.69205  1.0000
  C   C104      1.0  0.29586  0.31178  0.58363  1.0000
  Fe  Fe9       1.0  0.32088  0.40704  0.87486  1.0000
  H   H85       1.0  0.39319  0.36323  0.75011  1.0000
  C   C105      1.0  0.32393  0.35346  0.61782  1.0000
  C   C106      1.0  0.26260  0.42254  0.76333  1.0000
  C   C107      1.0  0.21312  0.41408  0.89391  1.0000
  C   C108      1.0  0.18407  0.28382  0.62792  1.0000
  C   C109      1.0  0.22777  0.43108  0.75479  1.0000
  H   H86       1.0  0.18848  0.38230  0.65561  1.0000
  H   H87       1.0  0.40006  0.24903  0.94164  1.0000
  H   H88       1.0  0.31896  0.23904  0.86413  1.0000
  H   H89       1.0  0.25698  0.22505  0.91013  1.0000
  H   H90       1.0  0.38590  0.32755  0.84671  1.0000
  C   C110      1.0  0.20259  0.43777  0.82863  1.0000
  H   H91       1.0  0.31766  0.22117  0.68786  1.0000
  C   C111      1.0  0.32317  0.50268  0.56143  1.0000
  H   H92       1.0  0.31222  0.30380  0.63453  1.0000
  H   H93       1.0  0.22649  0.40293  0.99881  1.0000
  H   H94       1.0  0.21767  0.40482  0.91885  1.0000
  H   H95       1.0  0.38950  0.44473  0.81092  1.0000
  H   H96       1.0  0.19444  0.32085  0.73244  1.0000
  H   H97       1.0  0.33320  0.40093  0.59440  1.0000
  H   H98       1.0  0.34289  0.28448  0.93593  1.0000
  C   C112      1.0  0.20317  0.39498  0.98823  1.0000
  C   C113      1.0  0.35244  0.33348  0.73472  1.0000
  C   C114      1.0  0.41524  0.25680  0.77804  1.0000
  C   C115      1.0  0.39757  0.26568  0.92056  1.0000
  C   C116      1.0  0.35055  0.48365  0.75316  1.0000
  S   S17       1.0  0.31596  0.39992  0.93122  1.0000
  S   S18       1.0  0.39770  0.50255  0.85913  1.0000
  C   C117      1.0  0.33016  0.48653  0.78444  1.0000
  C   C118      1.0  0.20040  0.35910  0.98200  1.0000
  C   C119      1.0  0.19499  0.40423  0.83649  1.0000
  C   C120      1.0  0.18703  0.35515  0.64709  1.0000
  S   S19       1.0  0.26524  0.49320  0.97127  1.0000
  H   H99       1.0  0.27202  0.26081  0.96068  1.0000
  H   H100      1.0  0.37933  0.28376  0.58307  1.0000
  S   S20       1.0  0.41126  0.37545  0.62325  1.0000
  C   C121      1.0  0.23443  0.28007  0.74600  1.0000
  C   C122      1.0  0.17546  0.42072  0.98147  1.0000
  C   C123      1.0  0.22093  0.44736  0.88647  1.0000
  C   C124      1.0  0.31946  0.21776  0.84427  1.0000
  H   H101      1.0  0.33057  0.52626  0.61157  1.0000
  C   C125      1.0  0.36754  0.54134  0.76720  1.0000
  C   C126      1.0  0.20177  0.25771  0.00196  1.0000
  C   C127      1.0  0.28237  0.40827  0.70317  1.0000
  C   C128      1.0  0.21328  0.29345  0.64364  1.0000
  C   C129      1.0  0.28977  0.41176  0.73749  1.0000
  H   H102      1.0  0.39356  0.21988  0.59177  1.0000
  C   C130      1.0  0.25561  0.30436  0.87576  1.0000
  C   C131      1.0  0.20247  0.29403  0.81283  1.0000
  S   S21       1.0  0.41634  0.36484  0.94467  1.0000
  C   C132      1.0  0.35992  0.23623  0.76723  1.0000
  H   H103      1.0  0.27839  0.32546  0.78495  1.0000
  C   C133      1.0  0.26672  0.27320  0.93719  1.0000
  C   C134      1.0  0.25412  0.22183  0.52337  1.0000
  C   C135      1.0  0.36933  0.51092  0.74455  1.0000
  H   H104      1.0  0.19392  0.43555  0.71274  1.0000
  C   C136      1.0  0.36430  0.45008  0.54094  1.0000
  C   C137      1.0  0.36059  0.30792  0.89062  1.0000
  C   C138      1.0  0.18909  0.31319  0.78642  1.0000
  C   C139      1.0  0.19213  0.24164  0.97153  1.0000
  C   C140      1.0  0.32060  0.32194  0.74494  1.0000
  Fe  Fe10      1.0  0.40982  0.35945  0.67706  1.0000
  S   S22       1.0  0.29452  0.37281  0.83883  1.0000
  C   C141      1.0  0.25229  0.26850  0.87775  1.0000
  H   H105      1.0  0.22368  0.48441  0.84860  1.0000
  H   H106      1.0  0.25318  0.31662  0.85187  1.0000
  H   H107      1.0  0.42066  0.26261  0.69274  1.0000
  Fe  Fe11      1.0  0.37371  0.40444  0.92856  1.0000
  C   C142      1.0  0.17867  0.22800  0.86072  1.0000
  H   H108      1.0  0.23462  0.27333  0.64866  1.0000
  C   C143      1.0  0.21779  0.28884  0.51484  1.0000
  C   C144      1.0  0.38052  0.45191  0.57187  1.0000
  S   S23       1.0  0.30829  0.46623  0.88138  1.0000
  H   H109      1.0  0.30034  0.24716  0.52495  1.0000
  H   H110      1.0  0.24157  0.49503  0.74815  1.0000
  C   C145      1.0  0.25785  0.25310  0.90868  1.0000
  C   C146      1.0  0.41028  0.35663  0.98770  1.0000
  H   H111      1.0  0.31628  0.46504  0.79151  1.0000
  S   S24       1.0  0.37901  0.40674  0.87184  1.0000
  C   C147      1.0  0.19970  0.25956  0.51578  1.0000
  H   H112      1.0  0.27041  0.24067  0.76628  1.0000
  H   H113      1.0  0.31108  0.51883  0.83036  1.0000
  H   H114      1.0  0.24215  0.41403  0.66766  1.0000
  C   C148      1.0  0.25424  0.28484  0.51864  1.0000
  C   C149      1.0  0.35138  0.36598  0.79045  1.0000
  C   C150      1.0  0.37884  0.25877  0.78563  1.0000
  C   C151      1.0  0.33527  0.47518  0.53604  1.0000
  C   C152      1.0  0.36480  0.28579  0.91734  1.0000
  C   C153      1.0  0.21777  0.22610  0.52026  1.0000
  C   C154      1.0  0.22040  0.42778  0.72010  1.0000
  H   H115      1.0  0.26631  0.35219  0.90281  1.0000
  C   C155      1.0  0.33996  0.50502  0.59191  1.0000
  H   H116      1.0  0.18532  0.38691  0.81768  1.0000
  H   H117      1.0  0.24708  0.27499  0.72017  1.0000
  S   S25       1.0  0.36606  0.46330  0.94081  1.0000
  Fe  Fe12      1.0  0.36634  0.46521  0.88389  1.0000
  H   H118      1.0  0.33171  0.23845  0.77264  1.0000
  C   C156      1.0  0.30795  0.36669  0.56108  1.0000
  C   C157      1.0  0.32779  0.51707  0.80680  1.0000
  C   C158      1.0  0.36826  0.47933  0.59736  1.0000
  S   S26       1.0  0.38733  0.48158  0.63652  1.0000
  H   H119      1.0  0.18268  0.25620  0.62056  1.0000
  C   C159      1.0  0.20030  0.39245  0.86894  1.0000
  H   H120      1.0  0.17781  0.44834  0.98713  1.0000
  H   H121      1.0  0.23726  0.33646  0.66582  1.0000
  H   H122      1.0  0.30378  0.40017  0.68346  1.0000
  Fe  Fe13      1.0  0.30858  0.45941  0.93766  1.0000
  C   C160      1.0  0.38914  0.31002  0.86712  1.0000
  H   H123      1.0  0.33622  0.36038  0.64088  1.0000
  S   S27       1.0  0.40995  0.41459  0.70027  1.0000
  H   H124      1.0  0.33542  0.32390  0.88826  1.0000
  H   H125      1.0  0.27762  0.32435  0.95659  1.0000
  H   H126      1.0  0.35659  0.31989  0.51799  1.0000
  C   C161      1.0  0.21628  0.45898  0.85384  1.0000
  C   C162      1.0  0.20501  0.30620  0.75297  1.0000
  H   H127      1.0  0.26901  0.42549  0.78980  1.0000
  H   H128      1.0  0.23110  0.46396  0.90595  1.0000
  C   C163      1.0  0.24764  0.41603  0.69442  1.0000
  P   P4        1.0  0.19452  0.45345  0.78686  1.0000
  C   C164      1.0  0.27221  0.25100  0.52253  1.0000
  H   H129      1.0  0.19467  0.36645  0.87477  1.0000
  H   H130      1.0  0.37387  0.42898  0.52117  1.0000
  H   H131      1.0  0.17609  0.48713  0.64469  1.0000
  C   C165      1.0  0.26974  0.30891  0.93500  1.0000
  C   C166      1.0  0.23133  0.26682  0.80595  1.0000
  C   C167      1.0  0.40088  0.26739  0.56758  1.0000
  P   P5        1.0  0.24710  0.24047  0.83998  1.0000
  H   H132      1.0  0.31678  0.40660  0.74399  1.0000
  H   H133      1.0  0.17948  0.42006  0.53115  1.0000
  H   H134      1.0  0.35182  0.46024  0.73562  1.0000
  H   H135      1.0  0.35136  0.32759  0.00372  1.0000
  H   H136      1.0  0.38494  0.50843  0.72007  1.0000
  C   C168      1.0  0.22288  0.37708  0.52430  1.0000
  Fe  Fe14      1.0  0.41751  0.42933  0.64655  1.0000
  C   C169      1.0  0.31869  0.35579  0.80010  1.0000
  C   C170      1.0  0.36839  0.35461  0.75782  1.0000
  H   H137      1.0  0.36506  0.27832  0.80520  1.0000
  C   C171      1.0  0.17723  0.52446  0.81261  1.0000
  H   H138      1.0  0.34149  0.21963  0.97843  1.0000
  C   C172      1.0  0.40898  0.23148  0.57256  1.0000
  C   C173      1.0  0.34642  0.54485  0.79846  1.0000
  C   C174      1.0  0.42195  0.29001  0.87026  1.0000
  C   C175      1.0  0.42121  0.28235  0.54324  1.0000
  H   H139      1.0  0.42135  0.27726  0.63314  1.0000
  C   C176      1.0  0.29644  0.21555  0.63870  1.0000
  H   H140      1.0  0.37818  0.40682  0.00376  1.0000
  C   C177      1.0  0.25615  0.47358  0.00919  1.0000
  H   H141      1.0  0.27491  0.83240  0.40964  1.0000
  H   H142      1.0  0.18946  0.67336  0.41730  1.0000
  P   P6        1.0  0.23570  0.66944  0.47380  1.0000
  C   C178      1.0  0.38847  0.61422  0.31331  1.0000
  C   C179      1.0  0.30724  0.79607  0.11466  1.0000
  C   C180      1.0  0.26127  0.55408  0.11332  1.0000
  C   C181      1.0  0.40634  0.64070  0.32717  1.0000
  H   H143      1.0  0.33029  0.64190  0.38587  1.0000
  C   C182      1.0  0.26446  0.55435  0.27282  1.0000
  S   S28       1.0  0.35213  0.65522  0.22828  1.0000
  S   S29       1.0  0.33143  0.80220  0.15028  1.0000
  C   C183      1.0  0.22288  0.58182  0.23553  1.0000
  C   C184      1.0  0.29742  0.76123  0.06288  1.0000
  C   C185      1.0  0.24629  0.56038  0.47098  1.0000
  H   H144      1.0  0.21598  0.83216  0.43931  1.0000
  S   S30       1.0  0.23639  0.77174  0.03088  1.0000
  H   H145      1.0  0.30142  0.86866  0.50122  1.0000
  H   H146      1.0  0.35291  0.76477  0.50321  1.0000
  H   H147      1.0  0.36450  0.64720  0.48465  1.0000
  C   C186      1.0  0.28507  0.61457  0.38069  1.0000
  C   C187      1.0  0.36573  0.84934  0.36690  1.0000
  H   H148      1.0  0.35864  0.83275  0.48280  1.0000
  C   C188      1.0  0.37503  0.64859  0.26499  1.0000
  C   C189      1.0  0.19167  0.58580  0.11007  1.0000
  H   H149      1.0  0.32368  0.66605  0.06818  1.0000
  C   C190      1.0  0.23410  0.55435  0.20992  1.0000
  C   C191      1.0  0.27488  0.66203  0.12673  1.0000
  C   C192      1.0  0.30628  0.65173  0.33896  1.0000
  C   C193      1.0  0.25428  0.81139  0.08561  1.0000
  H   H150      1.0  0.20099  0.79880  0.27412  1.0000
  C   C194      1.0  0.29706  0.81258  0.28630  1.0000
  C   C195      1.0  0.18075  0.60772  0.03107  1.0000
  C   C196      1.0  0.25822  0.73395  0.15020  1.0000
  H   H151      1.0  0.25069  0.67769  0.08111  1.0000
  H   H152      1.0  0.29658  0.65613  0.17615  1.0000
  H   H153      1.0  0.25327  0.76201  0.15826  1.0000
  C   C197      1.0  0.25807  0.60777  0.36005  1.0000
  H   H154      1.0  0.24967  0.79393  0.46978  1.0000
  C   C198      1.0  0.23903  0.68780  0.43249  1.0000
  C   C199      1.0  0.22214  0.81423  0.22598  1.0000
  C   C200      1.0  0.39532  0.69883  0.03715  1.0000
  C   C201      1.0  0.26670  0.78974  0.49027  1.0000
  C   C202      1.0  0.20528  0.82067  0.25902  1.0000
  C   C203      1.0  0.30419  0.77955  0.26735  1.0000
  P   P7        1.0  0.29765  0.85907  0.34468  1.0000
  C   C204      1.0  0.30465  0.61518  0.06434  1.0000
  S   S31       1.0  0.39717  0.70225  0.45001  1.0000
  C   C205      1.0  0.39146  0.81141  0.06934  1.0000
  H   H155      1.0  0.22188  0.55426  0.18580  1.0000
  C   C206      1.0  0.37869  0.80670  0.03704  1.0000
  H   H156      1.0  0.32611  0.72447  0.26753  1.0000
  H   H157      1.0  0.21198  0.63523  0.11154  1.0000
  Fe  Fe15      1.0  0.37097  0.75397  0.15482  1.0000
  C   C207      1.0  0.28274  0.67396  0.15974  1.0000
  C   C208      1.0  0.39125  0.85537  0.38954  1.0000
  C   C209      1.0  0.21443  0.61329  0.01906  1.0000
  H   H158      1.0  0.31065  0.64288  0.45482  1.0000
  C   C210      1.0  0.26645  0.70712  0.42365  1.0000
  C   C211      1.0  0.19082  0.87292  0.36913  1.0000
  H   H159      1.0  0.23128  0.78729  0.21552  1.0000
  C   C212      1.0  0.20181  0.65494  0.28398  1.0000
  C   C213      1.0  0.21830  0.84366  0.41501  1.0000
  C   C214      1.0  0.19825  0.69653  0.49783  1.0000
  C   C215      1.0  0.25164  0.84421  0.39825  1.0000
  H   H160      1.0  0.24994  0.65178  0.01345  1.0000
  H   H161      1.0  0.28738  0.86519  0.18507  1.0000
  H   H162      1.0  0.22342  0.71059  0.22420  1.0000
  C   C216      1.0  0.40981  0.67044  0.30915  1.0000
  H   H163      1.0  0.28849  0.73828  0.38631  1.0000
  H   H164      1.0  0.38564  0.59126  0.32719  1.0000
  H   H165      1.0  0.23458  0.74028  0.10244  1.0000
  C   C217      1.0  0.17522  0.71863  0.25701  1.0000
  C   C218      1.0  0.33043  0.86499  0.37467  1.0000
  C   C219      1.0  0.25337  0.59533  0.47435  1.0000
  C   C220      1.0  0.31735  0.58370  0.16425  1.0000
  H   H166      1.0  0.20169  0.60231  0.23093  1.0000
  C   C221      1.0  0.18791  0.85818  0.40056  1.0000
  H   H167      1.0  0.23997  0.59045  0.36867  1.0000
  C   C222      1.0  0.18698  0.58126  0.45715  1.0000
  H   H168      1.0  0.17496  0.70681  0.18026  1.0000
  C   C223      1.0  0.37752  0.57545  0.41212  1.0000
  H   H169      1.0  0.19130  0.70192  0.36307  1.0000
  C   C224      1.0  0.26498  0.78260  0.06131  1.0000
  C   C225      1.0  0.27501  0.70995  0.17112  1.0000
  C   C226      1.0  0.22136  0.66848  0.25754  1.0000
  C   C227      1.0  0.30708  0.81652  0.32005  1.0000
  S   S32       1.0  0.31989  0.77742  0.43975  1.0000
  C   C228      1.0  0.24043  0.72120  0.37082  1.0000
  P   P8        1.0  0.21975  0.61444  0.30188  1.0000
  C   C229      1.0  0.40208  0.57939  0.43632  1.0000
  C   C230      1.0  0.21523  0.87770  0.21970  1.0000
  H   H170      1.0  0.17744  0.63837  0.36674  1.0000
  H   H171      1.0  0.24104  0.73411  0.34710  1.0000
  C   C231      1.0  0.30917  0.63659  0.37014  1.0000
  C   C232      1.0  0.32812  0.64349  0.01596  1.0000
  C   C233      1.0  0.32876  0.75338  0.31638  1.0000
  H   H172      1.0  0.28693  0.71061  0.44066  1.0000
  C   C234      1.0  0.25372  0.59104  0.11313  1.0000
  H   H173      1.0  0.28408  0.83503  0.27442  1.0000
  C   C235      1.0  0.22639  0.84251  0.20613  1.0000
  C   C236      1.0  0.19100  0.73284  0.49317  1.0000
  C   C237      1.0  0.19897  0.67583  0.03682  1.0000
  C   C238      1.0  0.25480  0.62309  0.32866  1.0000
  C   C239      1.0  0.17608  0.56291  0.31525  1.0000
  H   H174      1.0  0.29014  0.56330  0.05088  1.0000
  H   H175      1.0  0.27906  0.59965  0.48174  1.0000
  H   H176      1.0  0.34120  0.73044  0.32792  1.0000
  C   C240      1.0  0.32017  0.74999  0.28234  1.0000
  C   C241      1.0  0.38653  0.59412  0.14568  1.0000
  C   C242      1.0  0.22358  0.64736  0.02202  1.0000
  H   H177      1.0  0.33786  0.56210  0.20905  1.0000
  C   C243      1.0  0.24836  0.72185  0.11834  1.0000
  H   H178      1.0  0.35758  0.59836  0.27250  1.0000
  C   C244      1.0  0.20822  0.70032  0.24442  1.0000
  H   H179      1.0  0.27889  0.65610  0.29371  1.0000
  C   C245      1.0  0.22739  0.62372  0.46871  1.0000
  C   C246      1.0  0.37247  0.61831  0.28245  1.0000
  C   C247      1.0  0.22406  0.87381  0.35241  1.0000
  H   H180      1.0  0.17297  0.63728  0.45707  1.0000
  C   C248      1.0  0.21187  0.68628  0.41042  1.0000
  H   H181      1.0  0.35048  0.80964  0.03466  1.0000
  H   H182      1.0  0.20838  0.74517  0.47634  1.0000
  H   H183      1.0  0.32523  0.66850  0.33063  1.0000
  H   H184      1.0  0.41305  0.59932  0.13906  1.0000
  P   P9        1.0  0.28952  0.61682  0.10937  1.0000
  H   H185      1.0  0.29783  0.77695  0.24084  1.0000
  H   H186      1.0  0.36626  0.61690  0.10146  1.0000
  Fe  Fe16      1.0  0.37686  0.75460  0.43141  1.0000
  H   H187      1.0  0.37379  0.83272  0.34327  1.0000
  C   C249      1.0  0.26723  0.72343  0.39284  1.0000
  C   C250      1.0  0.27958  0.64474  0.31810  1.0000
  H   H188      1.0  0.30557  0.73877  0.04423  1.0000
  S   S33       1.0  0.35999  0.69869  0.14185  1.0000
  C   C251      1.0  0.34415  0.57328  0.18517  1.0000
  C   C252      1.0  0.23805  0.58208  0.26713  1.0000
  H   H189      1.0  0.29052  0.58099  0.17274  1.0000
  H   H190      1.0  0.41845  0.84324  0.38335  1.0000
  C   C253      1.0  0.40254  0.55954  0.46513  1.0000
  C   C254      1.0  0.19315  0.85541  0.27233  1.0000
  H   H191      1.0  0.24664  0.65429  0.24675  1.0000
  C   C255      1.0  0.31939  0.64357  0.05126  1.0000
  Fe  Fe17      1.0  0.41680  0.68741  0.12206  1.0000
  C   C256      1.0  0.37865  0.57882  0.17612  1.0000
  H   H192      1.0  0.26810  0.84165  0.12970  1.0000
  C   C257      1.0  0.32190  0.78643  0.33534  1.0000
  H   H193      1.0  0.37318  0.81827  0.09192  1.0000
  H   H194      1.0  0.39681  0.69746  0.26440  1.0000
  H   H195      1.0  0.20754  0.70146  0.04099  1.0000
  C   C258      1.0  0.35982  0.60407  0.12436  1.0000
  C   C259      1.0  0.21262  0.70281  0.37971  1.0000
  C   C260      1.0  0.25475  0.85985  0.36705  1.0000
  H   H196      1.0  0.37824  0.58956  0.38923  1.0000
  C   C261      1.0  0.30289  0.77944  0.48261  1.0000
  H   H197      1.0  0.28339  0.71927  0.19558  1.0000
  C   C262      1.0  0.19406  0.61618  0.46023  1.0000
  Fe  Fe18      1.0  0.37979  0.68809  0.19307  1.0000
  H   H198      1.0  0.39887  0.57218  0.19334  1.0000
  H   H199      1.0  0.34278  0.75070  0.09198  1.0000
  H   H200      1.0  0.22919  0.82780  0.08427  1.0000
  H   H201      1.0  0.34849  0.87451  0.17173  1.0000
  H   H202      1.0  0.23791  0.83677  0.18004  1.0000
  C   C263      1.0  0.27529  0.67293  0.49563  1.0000
  C   C264      1.0  0.18626  0.59551  0.32657  1.0000
  H   H203      1.0  0.28736  0.60276  0.40483  1.0000
  S   S34       1.0  0.38625  0.74433  0.20768  1.0000
  H   H204      1.0  0.17450  0.58097  0.03036  1.0000
  S   S35       1.0  0.42242  0.78183  0.44600  1.0000
  H   H205      1.0  0.18713  0.54882  0.29109  1.0000
  C   C265      1.0  0.31826  0.76768  0.08998  1.0000
  C   C266      1.0  0.21313  0.55334  0.46239  1.0000
  C   C267      1.0  0.30842  0.65701  0.48006  1.0000
  C   C268      1.0  0.32498  0.59909  0.13366  1.0000
  C   C269      1.0  0.27597  0.81880  0.11164  1.0000
  C   C270      1.0  0.21860  0.60686  0.11186  1.0000
  H   H206      1.0  0.37894  0.70587  0.06085  1.0000
  C   C271      1.0  0.25703  0.68620  0.10647  1.0000
  C   C272      1.0  0.30082  0.58589  0.04174  1.0000
  H   H207      1.0  0.42110  0.59724  0.43174  1.0000
  C   C273      1.0  0.38193  0.87746  0.41978  1.0000
  H   H208      1.0  0.32842  0.78852  0.36183  1.0000
  S   S36       1.0  0.39821  0.73994  0.37696  1.0000
  C   C274      1.0  0.39446  0.67420  0.27791  1.0000
  H   H209      1.0  0.34098  0.86601  0.28140  1.0000
  C   C275      1.0  0.33906  0.65961  0.49676  1.0000
  C   C276      1.0  0.35307  0.55213  0.41651  1.0000
  H   H210      1.0  0.27613  0.55351  0.29717  1.0000
  H   H211      1.0  0.17897  0.86035  0.29742  1.0000
  H   H212      1.0  0.17860  0.77150  0.18619  1.0000
  C   C277      1.0  0.35399  0.84534  0.50877  1.0000
  C   C278      1.0  0.32489  0.77290  0.50917  1.0000
  C   C279      1.0  0.19984  0.54894  0.10856  1.0000
  S   S37       1.0  0.42246  0.63698  0.36779  1.0000
  H   H213      1.0  0.33538  0.54782  0.39677  1.0000
  H   H214      1.0  0.17749  0.73986  0.01336  1.0000
  C   C280      1.0  0.32286  0.61490  0.99354  1.0000
  H   H215      1.0  0.21031  0.60005  0.79566  1.0000
  C   C281      1.0  0.18713  0.75997  0.59900  1.0000
  C   C282      1.0  0.24719  0.58036  0.90568  1.0000
  H   H216      1.0  0.37210  0.65133  0.61512  1.0000
  C   C283      1.0  0.33709  0.67911  0.52858  1.0000
  C   C284      1.0  0.18373  0.83905  0.88657  1.0000
  Fe  Fe19      1.0  0.30882  0.81154  0.70592  1.0000
  C   C285      1.0  0.23547  0.70815  0.76449  1.0000
  C   C286      1.0  0.37951  0.59044  0.54588  1.0000
  C   C287      1.0  0.17569  0.68167  0.52064  1.0000
  H   H217      1.0  0.32906  0.61527  0.96613  1.0000
  H   H218      1.0  0.41509  0.56089  0.81483  1.0000
  H   H219      1.0  0.18073  0.65389  0.52499  1.0000
  Fe  Fe20      1.0  0.26662  0.76230  0.97958  1.0000
  H   H220      1.0  0.28586  0.62838  0.72022  1.0000
  C   C288      1.0  0.32132  0.86566  0.51941  1.0000
  C   C289      1.0  0.27350  0.69193  0.52797  1.0000
  C   C290      1.0  0.20602  0.61853  0.59080  1.0000
  C   C291      1.0  0.36442  0.61128  0.57552  1.0000
  C   C292      1.0  0.39825  0.63196  0.89236  1.0000
  H   H221      1.0  0.21487  0.72766  0.63412  1.0000
  H   H222      1.0  0.36439  0.57189  0.53380  1.0000
  P   P10       1.0  0.33827  0.58704  0.82411  1.0000
  C   C293      1.0  0.17749  0.87783  0.51528  1.0000
  H   H223      1.0  0.33522  0.55316  0.88828  1.0000
  S   S38       1.0  0.31446  0.75155  0.88866  1.0000
  H   H224      1.0  0.37588  0.61157  0.70866  1.0000
  S   S39       1.0  0.31090  0.79248  0.96627  1.0000
  H   H225      1.0  0.28437  0.86292  0.61931  1.0000
  H   H226      1.0  0.19165  0.65489  0.67377  1.0000
  H   H227      1.0  0.39360  0.65149  0.91425  1.0000
  H   H228      1.0  0.35118  0.82032  0.90904  1.0000
  C   C294      1.0  0.25261  0.79539  0.52439  1.0000
  H   H229      1.0  0.35477  0.66001  0.81754  1.0000
  H   H230      1.0  0.33796  0.60889  0.58560  1.0000
  H   H231      1.0  0.17746  0.75782  0.84857  1.0000
  C   C295      1.0  0.30258  0.58564  0.85637  1.0000
  H   H232      1.0  0.39390  0.85224  0.58326  1.0000
  H   H233      1.0  0.27060  0.73901  0.83604  1.0000
  C   C296      1.0  0.25689  0.64365  0.60889  1.0000
  C   C297      1.0  0.40236  0.79779  0.00793  1.0000
  C   C298      1.0  0.19354  0.80666  0.86713  1.0000
  H   H234      1.0  0.26909  0.74781  0.77414  1.0000
  C   C299      1.0  0.30131  0.85917  0.78289  1.0000
  C   C300      1.0  0.40370  0.82265  0.88678  1.0000
  H   H235      1.0  0.17885  0.87468  0.64296  1.0000
  C   C301      1.0  0.19336  0.86327  0.73478  1.0000
  C   C302      1.0  0.36158  0.87400  0.90859  1.0000
  C   C303      1.0  0.18363  0.77413  0.66052  1.0000
  H   H236      1.0  0.39522  0.56110  0.92067  1.0000
  H   H237      1.0  0.38167  0.56259  0.75988  1.0000
  S   S40       1.0  0.32621  0.75676  0.72075  1.0000
  H   H238      1.0  0.19990  0.78572  0.79339  1.0000
  C   C304      1.0  0.41792  0.73189  0.55483  1.0000
  C   C305      1.0  0.37371  0.85610  0.56537  1.0000
  C   C306      1.0  0.33996  0.65242  0.79642  1.0000
  H   H239      1.0  0.30586  0.80231  0.77971  1.0000
  H   H240      1.0  0.33867  0.66582  0.00592  1.0000
  H   H241      1.0  0.22586  0.57836  0.92479  1.0000
  C   C307      1.0  0.21705  0.67888  0.81416  1.0000
  C   C308      1.0  0.38555  0.87029  0.77637  1.0000
  H   H242      1.0  0.31107  0.68428  0.72296  1.0000
  C   C309      1.0  0.31552  0.66637  0.74286  1.0000
  S   S41       1.0  0.23778  0.77545  0.93368  1.0000
  H   H243      1.0  0.41384  0.71361  0.75514  1.0000
  C   C310      1.0  0.24028  0.62609  0.58365  1.0000
  C   C311      1.0  0.25554  0.72351  0.82030  1.0000
  C   C312      1.0  0.22853  0.54847  0.76963  1.0000
  C   C313      1.0  0.40641  0.72020  0.84249  1.0000
  C   C314      1.0  0.41694  0.55717  0.93690  1.0000
  S   S42       1.0  0.39487  0.72226  0.93796  1.0000
  S   S43       1.0  0.25757  0.79903  0.68850  1.0000
  C   C315      1.0  0.37996  0.84003  0.53187  1.0000
  H   H244      1.0  0.37268  0.84726  0.77982  1.0000
  C   C316      1.0  0.37556  0.59754  0.84650  1.0000
  C   C317      1.0  0.27470  0.79096  0.55108  1.0000
  C   C318      1.0  0.31084  0.77921  0.54360  1.0000
  C   C319      1.0  0.38364  0.63483  0.59226  1.0000
  C   C320      1.0  0.41821  0.63679  0.57977  1.0000
  C   C321      1.0  0.25471  0.72845  0.78518  1.0000
  C   C322      1.0  0.30431  0.69497  0.54429  1.0000
  H   H245      1.0  0.25394  0.61843  0.55845  1.0000
  H   H246      1.0  0.26947  0.87017  0.68183  1.0000
  H   H247      1.0  0.20131  0.66808  0.76319  1.0000
  C   C323      1.0  0.23947  0.65319  0.64142  1.0000
  H   H248      1.0  0.19421  0.60471  0.57072  1.0000
  S   S44       1.0  0.30231  0.72784  0.64568  1.0000
  H   H249      1.0  0.39006  0.73437  0.86422  1.0000
  C   C324      1.0  0.37043  0.83730  0.90231  1.0000
  H   H250      1.0  0.19134  0.76695  0.68536  1.0000
  H   H251      1.0  0.21450  0.61349  0.87477  1.0000
  C   C325      1.0  0.40236  0.73212  0.58855  1.0000
  H   H252      1.0  0.32800  0.77594  0.56422  1.0000
  H   H253      1.0  0.40393  0.59573  0.64954  1.0000
  H   H254      1.0  0.36103  0.68243  0.54079  1.0000
  H   H255      1.0  0.37563  0.74524  0.80481  1.0000
  H   H256      1.0  0.40479  0.82324  0.52385  1.0000
  H   H257      1.0  0.22906  0.83827  0.80758  1.0000
  C   C326      1.0  0.28132  0.56376  0.90955  1.0000
  C   C327      1.0  0.18777  0.62898  0.62324  1.0000
  H   H258      1.0  0.19827  0.74310  0.57637  1.0000
  C   C328      1.0  0.41990  0.70820  0.78105  1.0000
  H   H259      1.0  0.25256  0.66666  0.66093  1.0000
  H   H260      1.0  0.24862  0.70524  0.54040  1.0000
  C   C329      1.0  0.30123  0.82635  0.79646  1.0000
  H   H261      1.0  0.22051  0.79936  0.85606  1.0000
  C   C330      1.0  0.26828  0.60221  0.85261  1.0000
  C   C331      1.0  0.21629  0.68370  0.77911  1.0000
  S   S45       1.0  0.25596  0.80157  0.59318  1.0000
  H   H262      1.0  0.39299  0.59671  0.97695  1.0000
  H   H263      1.0  0.26287  0.61768  0.83109  1.0000
  H   H264      1.0  0.37400  0.73804  0.59364  1.0000
  C   C332      1.0  0.21329  0.86421  0.76321  1.0000
  Fe  Fe21      1.0  0.33667  0.74093  0.93886  1.0000
  C   C333      1.0  0.32702  0.61982  0.79428  1.0000
  H   H265      1.0  0.29286  0.79941  0.84190  1.0000
  H   H266      1.0  0.34369  0.70086  0.77244  1.0000
  C   C334      1.0  0.24072  0.59968  0.87729  1.0000
  C   C335      1.0  0.23728  0.69820  0.83466  1.0000
  C   C336      1.0  0.19664  0.75138  0.63146  1.0000
  H   H267      1.0  0.22461  0.80393  0.53014  1.0000
  C   C337      1.0  0.28719  0.85581  0.85384  1.0000
  H   H268      1.0  0.41304  0.78374  0.75544  1.0000
  C   C338      1.0  0.41551  0.57697  0.96855  1.0000
  C   C339      1.0  0.19804  0.80740  0.77710  1.0000
  H   H269      1.0  0.30648  0.56317  0.98935  1.0000
  C   C340      1.0  0.17845  0.80616  0.74850  1.0000
  C   C341      1.0  0.29415  0.82468  0.83188  1.0000
  H   H270      1.0  0.20281  0.85712  0.89004  1.0000
  H   H271      1.0  0.28630  0.54841  0.93129  1.0000
  H   H272      1.0  0.20222  0.65997  0.82540  1.0000
  C   C342      1.0  0.39833  0.72620  0.80901  1.0000
  Fe  Fe22      1.0  0.28685  0.78487  0.63688  1.0000
  H   H273      1.0  0.34356  0.63690  0.88270  1.0000
  Fe  Fe23      1.0  0.34990  0.74702  0.66634  1.0000
  H   H274      1.0  0.29656  0.58675  0.76501  1.0000
  C   C343      1.0  0.20709  0.57230  0.79366  1.0000
  C   C344      1.0  0.33412  0.67557  0.77072  1.0000
  H   H275      1.0  0.28321  0.65005  0.60331  1.0000
  C   C345      1.0  0.40680  0.70446  0.97617  1.0000
  S   S46       1.0  0.27623  0.85452  0.89792  1.0000
  C   C346      1.0  0.20501  0.64616  0.64861  1.0000
  S   S47       1.0  0.23994  0.68930  0.87778  1.0000
  H   H276      1.0  0.40748  0.64109  0.75234  1.0000
  S   S48       1.0  0.33664  0.80304  0.65298  1.0000
  C   C347      1.0  0.21483  0.83675  0.78485  1.0000
  H   H277      1.0  0.24830  0.55771  0.75288  1.0000
  C   C348      1.0  0.30141  0.63468  0.74125  1.0000
  C   C349      1.0  0.38559  0.71383  0.00691  1.0000
  H   H278      1.0  0.40986  0.79414  0.88198  1.0000
  C   C350      1.0  0.30897  0.56657  0.88516  1.0000
  S   S49       1.0  0.29433  0.70959  0.95630  1.0000
  S   S50       1.0  0.40498  0.71859  0.65661  1.0000
  H   H279      1.0  0.40165  0.73795  0.53401  1.0000
  Fe  Fe24      1.0  0.28466  0.80067  0.91754  1.0000
  C   C351      1.0  0.36992  0.62337  0.87454  1.0000
  H   H280      1.0  0.41821  0.79593  0.81758  1.0000
  C   C352      1.0  0.30710  0.61150  0.76686  1.0000
  C   C353      1.0  0.18153  0.56026  0.81515  1.0000
  S   S51       1.0  0.30995  0.86189  0.73862  1.0000
  S   S52       1.0  0.23624  0.71151  0.72005  1.0000
  H   H281      1.0  0.30285  0.71072  0.56864  1.0000
  Fe  Fe25      1.0  0.27660  0.74348  0.69892  1.0000
  C   C354      1.0  0.17511  0.83451  0.72760  1.0000
  Fe  Fe26      1.0  0.26926  0.72553  0.90860  1.0000
  H   H282      1.0  0.18116  0.68767  0.94764  1.0000
  H   H283      1.0  0.39622  0.85777  0.72233  1.0000
  C   C355      1.0  0.41009  0.58115  0.83605  1.0000
  C   C356      1.0  0.40188  0.61814  0.70185  1.0000
  H   H284      1.0  0.39252  0.79375  0.98287  1.0000
  H   H285      1.0  0.18374  0.57309  0.67206  1.0000
  C   C357      1.0  0.41974  0.63528  0.72645  1.0000
  C   C358      1.0  0.41401  0.59304  0.53270  1.0000
  C   C359      1.0  0.30999  0.58574  0.00654  1.0000
  C   C360      1.0  0.39930  0.87627  0.74369  1.0000
  H   H286      1.0  0.40116  0.85820  0.66049  1.0000
  C   C361      1.0  0.41765  0.60927  0.66852  1.0000
  H   H287      1.0  0.21643  0.87466  0.59022  1.0000
  C   C362      1.0  0.18281  0.87133  0.54926  1.0000
  C   C363      1.0  0.34142  0.87730  0.57581  1.0000
  H   H288      1.0  0.36182  0.73281  0.00743  1.0000
  C   C364      1.0  0.21277  0.88037  0.56400  1.0000
  H   H289      1.0  0.23357  0.59101  0.00814  1.0000
  C   C365      1.0  0.29939  0.89490  0.31723  1.0000
  P   P11       1.0  0.23974  0.99730  0.05557  1.0000
  C   C366      1.0  0.34698  0.89354  0.42748  1.0000
  H   H290      1.0  0.27263  0.20324  0.32410  1.0000
  C   C367      1.0  0.22214  0.96685  0.02579  1.0000
  S   S53       1.0  0.35486  0.08143  0.06517  1.0000
  H   H291      1.0  0.40416  0.93682  0.01868  1.0000
  P   P12       1.0  0.21944  0.91409  0.19322  1.0000
  C   C368      1.0  0.25464  0.17266  0.11365  1.0000
  H   H292      1.0  0.21450  0.05174  0.41743  1.0000
  H   H293      1.0  0.25024  0.91610  0.49575  1.0000
  C   C369      1.0  0.22187  0.01323  0.12605  1.0000
  C   C370      1.0  0.17994  0.13973  0.37950  1.0000
  H   H294      1.0  0.30217  0.02615  0.07938  1.0000
  C   C371      1.0  0.22347  0.10551  0.41073  1.0000
  C   C372      1.0  0.18639  0.96196  0.02872  1.0000
  H   H295      1.0  0.21674  0.98388  0.36536  1.0000
  C   C373      1.0  0.32982  0.99072  0.40622  1.0000
  H   H296      1.0  0.33985  0.91089  0.45081  1.0000
  C   C374      1.0  0.31995  0.18410  0.37738  1.0000
  H   H297      1.0  0.26778  0.19358  0.01901  1.0000
  H   H298      1.0  0.18428  0.04582  0.50287  1.0000
  S   S54       1.0  0.37112  0.06827  0.38567  1.0000
  C   C375      1.0  0.27792  0.18163  0.13752  1.0000
  C   C376      1.0  0.34813  0.06409  0.24248  1.0000
  H   H299      1.0  0.37414  0.93259  0.09089  1.0000
  H   H300      1.0  0.40190  0.88232  0.43705  1.0000
  S   S55       1.0  0.40954  0.05999  0.12463  1.0000
  C   C377      1.0  0.22865  0.10459  0.29795  1.0000
  C   C378      1.0  0.20761  0.20220  0.19741  1.0000
  Fe  Fe27      1.0  0.37824  0.13186  0.06394  1.0000
  C   C379      1.0  0.39736  0.99269  0.01192  1.0000
  H   H301      1.0  0.38690  0.18407  0.22184  1.0000
  C   C380      1.0  0.28488  0.05671  0.21314  1.0000
  C   C381      1.0  0.30865  0.96000  0.17416  1.0000
  C   C382      1.0  0.32133  0.88754  0.40492  1.0000
  C   C383      1.0  0.29436  0.16462  0.42973  1.0000
  C   C384      1.0  0.41674  0.02072  0.46559  1.0000
  C   C385      1.0  0.28645  0.19329  0.24961  1.0000
  H   H302      1.0  0.22565  0.88552  0.32813  1.0000
  C   C386      1.0  0.31945  0.05548  0.26258  1.0000
  C   C387      1.0  0.26517  0.92054  0.18510  1.0000
  H   H303      1.0  0.26017  0.05460  0.20210  1.0000
  C   C388      1.0  0.33564  0.93112  0.17069  1.0000
  H   H304      1.0  0.34685  0.96571  0.39943  1.0000
  C   C389      1.0  0.19526  0.95538  0.21333  1.0000
  Fe  Fe28      1.0  0.42185  0.03129  0.37619  1.0000
  C   C390      1.0  0.22058  0.11803  0.49281  1.0000
  C   C391      1.0  0.30337  0.16342  0.22885  1.0000
  C   C392      1.0  0.27850  0.92793  0.32609  1.0000
  H   H305      1.0  0.19771  0.89938  0.46994  1.0000
  S   S56       1.0  0.36560  0.17745  0.03176  1.0000
  H   H306      1.0  0.18859  0.91035  0.26402  1.0000
  H   H307      1.0  0.40471  0.91718  0.34553  1.0000
  C   C393      1.0  0.18847  0.15395  0.26211  1.0000
  C   C394      1.0  0.20987  0.01344  0.09303  1.0000
  C   C395      1.0  0.38611  0.16529  0.45136  1.0000
  C   C396      1.0  0.28195  0.97664  0.06794  1.0000
  H   H308      1.0  0.26997  0.13650  0.29177  1.0000
  C   C397      1.0  0.34509  0.06896  0.20755  1.0000
  H   H309      1.0  0.18769  0.13008  0.07766  1.0000
  C   C398      1.0  0.36548  0.20026  0.50482  1.0000
  H   H310      1.0  0.17503  0.11943  0.13840  1.0000
  C   C399      1.0  0.28073  0.95592  0.30531  1.0000
  H   H311      1.0  0.29449  0.90074  0.41098  1.0000
  H   H312      1.0  0.39177  0.10866  0.45335  1.0000
  H   H313      1.0  0.20638  0.17411  0.19763  1.0000
  H   H314      1.0  0.31209  0.05521  0.47126  1.0000
  C   C400      1.0  0.21686  0.90952  0.12176  1.0000
  C   C401      1.0  0.30992  0.19000  0.41256  1.0000
  H   H315      1.0  0.34706  0.99681  0.45703  1.0000
  H   H316      1.0  0.18297  0.07771  0.30032  1.0000
  C   C402      1.0  0.19820  0.97961  0.41787  1.0000
  C   C403      1.0  0.30867  0.00602  0.38216  1.0000
  H   H317      1.0  0.37242  0.06744  0.25391  1.0000
  H   H318      1.0  0.22033  0.98998  0.42844  1.0000
  S   S57       1.0  0.40024  0.16452  0.40781  1.0000
  C   C404      1.0  0.20989  0.13762  0.39793  1.0000
  H   H319      1.0  0.18546  0.20529  0.14856  1.0000
  C   C405      1.0  0.20046  0.03078  0.15435  1.0000
  H   H320      1.0  0.36275  0.93519  0.16491  1.0000
  H   H321      1.0  0.33229  0.20352  0.36412  1.0000
  H   H322      1.0  0.34514  0.91582  0.24543  1.0000
  C   C406      1.0  0.31299  0.06659  0.19327  1.0000
  C   C407      1.0  0.20521  0.07634  0.40680  1.0000
  C   C408      1.0  0.17639  0.03203  0.08887  1.0000
  C   C409      1.0  0.29261  0.89179  0.18198  1.0000
  C   C410      1.0  0.17422  0.12460  0.27308  1.0000
  H   H323      1.0  0.30984  0.11535  0.48708  1.0000
  S   S58       1.0  0.17327  0.97758  0.48435  1.0000
  H   H324      1.0  0.26072  0.93219  0.34919  1.0000
  C   C411      1.0  0.34040  0.98164  0.08646  1.0000
  H   H325      1.0  0.24538  0.14717  0.11384  1.0000
  C   C412      1.0  0.24276  0.19675  0.09025  1.0000
  C   C413      1.0  0.35893  0.18675  0.22963  1.0000
  H   H326      1.0  0.19893  0.11493  0.47731  1.0000
  H   H327      1.0  0.19857  0.01484  0.28175  1.0000
  C   C414      1.0  0.25526  0.11348  0.47757  1.0000
  H   H328      1.0  0.31484  0.98649  0.17107  1.0000
  C   C415      1.0  0.32367  0.89083  0.28813  1.0000
  C   C416      1.0  0.22340  0.15817  0.26777  1.0000
  C   C417      1.0  0.29881  0.12749  0.37635  1.0000
  H   H329      1.0  0.36718  0.07573  0.19206  1.0000
  C   C418      1.0  0.32619  0.91902  0.26770  1.0000
  H   H330      1.0  0.40139  0.88181  0.29028  1.0000
  C   C419      1.0  0.41591  0.02452  0.50161  1.0000
  H   H331      1.0  0.23078  0.95895  0.25345  1.0000
  C   C420      1.0  0.20073  0.90300  0.15349  1.0000
  S   S59       1.0  0.39954  0.11083  0.32204  1.0000
  C   C421      1.0  0.28836  0.05043  0.24752  1.0000
  C   C422      1.0  0.28292  0.11787  0.49836  1.0000
  H   H332      1.0  0.22278  0.16090  0.40136  1.0000
  C   C423      1.0  0.24773  0.06864  0.05536  1.0000
  H   H333      1.0  0.36018  0.99800  0.09331  1.0000
  C   C424      1.0  0.32294  0.92373  0.07575  1.0000
  H   H334      1.0  0.21456  0.90509  0.06671  1.0000
  C   C425      1.0  0.37359  0.13623  0.50300  1.0000
  C   C426      1.0  0.32761  0.89705  0.17457  1.0000
  C   C427      1.0  0.25530  0.09880  0.04005  1.0000
  H   H335      1.0  0.21008  0.03136  0.17967  1.0000
  C   C428      1.0  0.38439  0.13417  0.46772  1.0000
  C   C429      1.0  0.24333  0.13334  0.28605  1.0000
  H   H336      1.0  0.26652  0.04268  0.26268  1.0000
  H   H337      1.0  0.26437  0.98131  0.31212  1.0000
  C   C430      1.0  0.37677  0.19814  0.47003  1.0000
  C   C431      1.0  0.18938  0.00336  0.25858  1.0000
  C   C432      1.0  0.33946  0.16041  0.21874  1.0000
  S   S60       1.0  0.37297  0.14305  0.12115  1.0000
  C   C433      1.0  0.24787  0.03660  0.03518  1.0000
  C   C434      1.0  0.34826  0.94477  0.08508  1.0000
  H   H338      1.0  0.32907  0.89510  0.07465  1.0000
  C   C435      1.0  0.28788  0.03907  0.39032  1.0000
  H   H339      1.0  0.24832  0.00105  0.12978  1.0000
  C   C436      1.0  0.33010  0.00842  0.43860  1.0000
  S   S61       1.0  0.30655  0.07750  0.15132  1.0000
  H   H340      1.0  0.35236  0.13791  0.20199  1.0000
  C   C437      1.0  0.19636  0.97581  0.38223  1.0000
  C   C438      1.0  0.31449  0.15280  0.35932  1.0000
  C   C439      1.0  0.41600  0.21079  0.31963  1.0000
  C   C440      1.0  0.20166  0.90115  0.09130  1.0000
  C   C441      1.0  0.27364  0.95475  0.18133  1.0000
  H   H341      1.0  0.22421  0.18959  0.07236  1.0000
  H   H342      1.0  0.27232  0.05051  0.37084  1.0000
  H   H343      1.0  0.32251  0.14797  0.33207  1.0000
  C   C442      1.0  0.30468  0.95153  0.27622  1.0000
  C   C443      1.0  0.30739  0.99754  0.07812  1.0000
  H   H344      1.0  0.28639  0.17025  0.45679  1.0000
  H   H345      1.0  0.25332  0.97755  0.18397  1.0000
  Fe  Fe29      1.0  0.41062  0.05520  0.06725  1.0000
  Fe  Fe30      1.0  0.40434  0.11127  0.37871  1.0000
  C   C444      1.0  0.17531  0.07848  0.38819  1.0000
  C   C445      1.0  0.20230  0.89328  0.49596  1.0000
  P   P13       1.0  0.23933  0.19920  0.25978  1.0000
  S   S62       1.0  0.32094  0.05244  0.30683  1.0000
  Fe  Fe31      1.0  0.35520  0.08969  0.12217  1.0000
  H   H346      1.0  0.24407  0.08584  0.31243  1.0000
  C   C446      1.0  0.28859  0.05763  0.42256  1.0000
  C   C447      1.0  0.20752  0.97148  0.24260  1.0000
  H   H347      1.0  0.29404  0.10388  0.36166  1.0000
  C   C448      1.0  0.30989  0.04178  0.44664  1.0000
  H   H348      1.0  0.28864  0.14283  0.21985  1.0000
  C   C449      1.0  0.19427  0.09998  0.29111  1.0000
  H   H349      1.0  0.30957  0.99298  0.35660  1.0000
  S   S63       1.0  0.42084  0.02407  0.31902  1.0000
  C   C450      1.0  0.28997  0.93956  0.06715  1.0000
  P   P14       1.0  0.26411  0.10202  0.43179  1.0000
  H   H350      1.0  0.27113  0.92269  0.05935  1.0000
  H   H351      1.0  0.24281  0.07028  0.08305  1.0000
  H   H352      1.0  0.25604  0.12318  0.05557  1.0000
  H   H353      1.0  0.24124  0.92070  0.12049  1.0000
  Fe  Fe32      1.0  0.37154  0.06364  0.32819  1.0000
  C   C451      1.0  0.28896  0.13289  0.41176  1.0000
  H   H354      1.0  0.28707  0.16282  0.15550  1.0000
  H   H355      1.0  0.30696  0.97351  0.26060  1.0000
  H   H356      1.0  0.41796  0.19860  0.13713  1.0000
  H   H357      1.0  0.41003  0.04361  0.45145  1.0000
  C   C452      1.0  0.19851  0.88382  0.25306  1.0000
  H   H358      1.0  0.42247  0.18394  0.32685  1.0000
  C   C453      1.0  0.20897  0.20811  0.95879  1.0000
  C   C454      1.0  0.37753  0.21053  0.74239  1.0000
  H   H359      1.0  0.29760  0.12785  0.54986  1.0000
  C   C455      1.0  0.21369  0.12618  0.52830  1.0000
  S   S64       1.0  0.32970  0.98152  0.84153  1.0000
  H   H360      1.0  0.21879  0.18598  0.62446  1.0000
  C   C456      1.0  0.29157  0.18506  0.80126  1.0000
  C   C457      1.0  0.41126  0.12922  0.91981  1.0000
  H   H361      1.0  0.31690  0.20425  0.92353  1.0000
  S   S65       1.0  0.41871  0.10206  0.59892  1.0000
  C   C458      1.0  0.26793  0.20084  0.69181  1.0000
  C   C459      1.0  0.19875  0.15579  0.86579  1.0000
  P   P15       1.0  0.20390  0.17407  0.69692  1.0000
  H   H362      1.0  0.18680  0.12981  0.53991  1.0000
  P   P16       1.0  0.27419  0.91182  0.56524  1.0000
  H   H363      1.0  0.26851  0.18059  0.78815  1.0000
  H   H364      1.0  0.19200  0.88527  0.71893  1.0000
  H   H365      1.0  0.37563  0.07611  0.71746  1.0000
  C   C460      1.0  0.27061  0.04288  0.68698  1.0000
  Fe  Fe33      1.0  0.36466  0.02354  0.83709  1.0000
  H   H366      1.0  0.37485  0.89036  0.82920  1.0000
  H   H367      1.0  0.35109  0.11056  0.00069  1.0000
  H   H368      1.0  0.23516  0.12050  0.64185  1.0000
  H   H369      1.0  0.22433  0.97319  0.54988  1.0000
  S   S66       1.0  0.34746  0.17344  0.56455  1.0000
  S   S67       1.0  0.35630  0.04326  0.89252  1.0000
  C   C461      1.0  0.24019  0.19013  0.67405  1.0000
  C   C462      1.0  0.41378  0.20885  0.73447  1.0000
  H   H370      1.0  0.29315  0.04922  0.52828  1.0000
  C   C463      1.0  0.27607  0.12515  0.53391  1.0000
  C   C464      1.0  0.23656  0.19127  0.97565  1.0000
  H   H371      1.0  0.18595  0.90371  0.95861  1.0000
  H   H372      1.0  0.31484  0.97594  0.62599  1.0000
  C   C465      1.0  0.29775  0.03608  0.70871  1.0000
  H   H373      1.0  0.36319  0.19219  0.72876  1.0000
  C   C466      1.0  0.35925  0.94064  0.69052  1.0000
  C   C467      1.0  0.20753  0.11804  0.64662  1.0000
  H   H374      1.0  0.39600  0.14971  0.93728  1.0000
  H   H375      1.0  0.24932  0.91100  0.95380  1.0000
  C   C468      1.0  0.26315  0.06584  0.98441  1.0000
  H   H376      1.0  0.23638  0.13456  0.57649  1.0000
  C   C469      1.0  0.39729  0.07142  0.73351  1.0000
  C   C470      1.0  0.25093  0.97963  0.54636  1.0000
  C   C471      1.0  0.23594  0.03982  0.69847  1.0000
  H   H377      1.0  0.40447  0.94338  0.82164  1.0000
  C   C472      1.0  0.39336  0.93295  0.67372  1.0000
  C   C473      1.0  0.24606  0.20696  0.00644  1.0000
  C   C474      1.0  0.33103  0.95545  0.67304  1.0000
  H   H378      1.0  0.37492  0.96171  0.59571  1.0000
  S   S68       1.0  0.34303  0.12657  0.64678  1.0000
  C   C475      1.0  0.22388  0.17678  0.85556  1.0000
  C   C476      1.0  0.26333  0.91699  0.61128  1.0000
  C   C477      1.0  0.33767  0.19262  0.97169  1.0000
  H   H379      1.0  0.20134  0.19563  0.93530  1.0000
  C   C478      1.0  0.24033  0.19331  0.63855  1.0000
  H   H380      1.0  0.33786  0.03441  0.96263  1.0000
  H   H381      1.0  0.37370  0.19777  0.85041  1.0000
  Fe  Fe34      1.0  0.36287  0.12459  0.59142  1.0000
  Fe  Fe35      1.0  0.28692  0.02404  0.82984  1.0000
  H   H382      1.0  0.37822  0.92456  0.90293  1.0000
  H   H383      1.0  0.22745  0.88635  0.76858  1.0000
  C   C479      1.0  0.23504  0.10885  0.78705  1.0000
  S   S69       1.0  0.38387  0.04487  0.64549  1.0000
  H   H384      1.0  0.20661  0.10087  0.92614  1.0000
  C   C480      1.0  0.35090  0.19436  0.83645  1.0000
  H   H385      1.0  0.21193  0.07077  0.61219  1.0000
  C   C481      1.0  0.33660  0.96316  0.63894  1.0000
  S   S70       1.0  0.31516  0.96905  0.93863  1.0000
  H   H386      1.0  0.23762  0.97156  0.61302  1.0000
  C   C482      1.0  0.28028  0.95455  0.55101  1.0000
  H   H387      1.0  0.32572  0.09550  0.94624  1.0000
  C   C483      1.0  0.35273  0.16630  0.81114  1.0000
  Fe  Fe36      1.0  0.33139  0.07173  0.63310  1.0000
  C   C484      1.0  0.25580  0.03546  0.99953  1.0000
  C   C485      1.0  0.18561  0.14167  0.67074  1.0000
  C   C486      1.0  0.34726  0.16623  0.99361  1.0000
  C   C487      1.0  0.31901  0.99740  0.53690  1.0000
  H   H388      1.0  0.21292  0.91362  0.83172  1.0000
  H   H389      1.0  0.34544  0.00422  0.53328  1.0000
  H   H390      1.0  0.23831  0.92699  0.71002  1.0000
  H   H391      1.0  0.25087  0.16426  0.85042  1.0000
  H   H392      1.0  0.37293  0.03451  0.76284  1.0000
  C   C488      1.0  0.32920  0.12253  0.95315  1.0000
  C   C489      1.0  0.29496  0.89027  0.80493  1.0000
  C   C490      1.0  0.31439  0.96356  0.54575  1.0000
  H   H393      1.0  0.33754  0.94482  0.54891  1.0000
  C   C491      1.0  0.19598  0.92113  0.97744  1.0000
  C   C492      1.0  0.32323  0.16195  0.79326  1.0000
  C   C493      1.0  0.31915  0.14897  0.93154  1.0000
  C   C494      1.0  0.40183  0.12382  0.88631  1.0000
  H   H394      1.0  0.25063  0.16621  0.96441  1.0000
  H   H395      1.0  0.27246  0.95039  0.99622  1.0000
  Fe  Fe37      1.0  0.31733  0.00492  0.89594  1.0000
  S   S71       1.0  0.27904  0.05437  0.64504  1.0000
  C   C495      1.0  0.36313  0.95105  0.98512  1.0000
  H   H396      1.0  0.25695  0.01128  0.98320  1.0000
  H   H397      1.0  0.18978  0.06184  0.87869  1.0000
  S   S72       1.0  0.24404  0.01487  0.79585  1.0000
  H   H398      1.0  0.29535  0.91576  0.79465  1.0000
  C   C496      1.0  0.40346  0.92436  0.79996  1.0000
  H   H399      1.0  0.28652  0.09710  0.76001  1.0000
  C   C497      1.0  0.25514  0.02347  0.75344  1.0000
  C   C498      1.0  0.29003  0.02598  0.74190  1.0000
  C   C499      1.0  0.24469  0.92405  0.68243  1.0000
  C   C500      1.0  0.32367  0.18397  0.94066  1.0000
  C   C501      1.0  0.26020  0.11166  0.76026  1.0000
  H   H400      1.0  0.38489  0.04674  0.99967  1.0000
  C   C502      1.0  0.21680  0.15036  0.73312  1.0000
  C   C503      1.0  0.19448  0.08961  0.62992  1.0000
  C   C504      1.0  0.23164  0.92517  0.97475  1.0000
  C   C505      1.0  0.24492  0.94901  0.62739  1.0000
  C   C506      1.0  0.34488  0.97851  0.96874  1.0000
  C   C507      1.0  0.36360  0.16941  0.52134  1.0000
  C   C508      1.0  0.24468  0.94769  0.99887  1.0000
  S   S73       1.0  0.30078  0.13875  0.89318  1.0000
  H   H401      1.0  0.40823  0.96821  0.92784  1.0000
  H   H402      1.0  0.28270  0.91279  0.85723  1.0000
  H   H403      1.0  0.18545  0.04894  0.97944  1.0000
  H   H404      1.0  0.21312  0.94892  0.88717  1.0000
  C   C509      1.0  0.25103  0.13170  0.73299  1.0000
  H   H405      1.0  0.18051  0.12226  0.80623  1.0000
  C   C510      1.0  0.19565  0.93868  0.83691  1.0000
  H   H406      1.0  0.30492  0.96176  0.68633  1.0000
  C   C511      1.0  0.22827  0.02981  0.73147  1.0000
  C   C512      1.0  0.26247  0.89205  0.66657  1.0000
  Fe  Fe38      1.0  0.40023  0.04928  0.59030  1.0000
  C   C513      1.0  0.39857  0.93974  0.63909  1.0000
  H   H407      1.0  0.21490  0.04491  0.68178  1.0000
  H   H408      1.0  0.31100  0.02024  0.75855  1.0000
  S   S74       1.0  0.34656  0.07202  0.57699  1.0000
  H   H409      1.0  0.22080  0.97676  0.67491  1.0000
  H   H410      1.0  0.24201  0.09237  0.80761  1.0000
  C   C514      1.0  0.26868  0.20541  0.62089  1.0000
  C   C515      1.0  0.23541  0.95229  0.66273  1.0000
  H   H411      1.0  0.37694  0.14783  0.80534  1.0000
  C   C516      1.0  0.37035  0.95512  0.62192  1.0000
  C   C517      1.0  0.41538  0.90645  0.73884  1.0000
  C   C518      1.0  0.20049  0.12582  0.78639  1.0000
  H   H412      1.0  0.26818  0.19884  0.71916  1.0000
  H   H413      1.0  0.20694  0.12780  0.86754  1.0000
  S   S75       1.0  0.42068  0.01493  0.81410  1.0000
  H   H414      1.0  0.32469  0.03795  0.69983  1.0000
  C   C519      1.0  0.25567  0.01367  0.53811  1.0000
  C   C520      1.0  0.34318  0.13116  0.98425  1.0000
  H   H415      1.0  0.35418  0.93568  0.71717  1.0000
  C   C521      1.0  0.38720  0.89443  0.80439  1.0000
  H   H416      1.0  0.35742  0.92427  0.98059  1.0000
  C   C522      1.0  0.28783  0.88859  0.84033  1.0000
  H   H417      1.0  0.26947  0.12060  0.99328  1.0000
  C   C523      1.0  0.26290  0.09739  0.00470  1.0000
  C   C524      1.0  0.41710  0.93063  0.76728  1.0000
  S   S76       1.0  0.32282  0.06449  0.82077  1.0000
  S   S77       1.0  0.27114  0.04390  0.88475  1.0000
  H   H418      1.0  0.27005  0.06464  0.95707  1.0000
  H   H419      1.0  0.27035  0.13148  0.71139  1.0000
  C   C525      1.0  0.19576  0.95866  0.86820  1.0000
  H   H420      1.0  0.20144  0.02733  0.74010  1.0000
  C   C526      1.0  0.35232  0.01306  0.97462  1.0000
  C   C527      1.0  0.28963  0.02262  0.53371  1.0000
  Fe  Fe39      1.0  0.39756  0.09975  0.65340  1.0000
  C   C528      1.0  0.27135  0.88829  0.63114  1.0000
  H   H421      1.0  0.37882  0.13968  0.87811  1.0000
  C   C529      1.0  0.17352  0.99108  0.87500  1.0000
  C   C530      1.0  0.39562  0.04811  0.75937  1.0000
  C   C531      1.0  0.37857  0.02014  0.99609  1.0000
  H   H422      1.0  0.17320  0.00540  0.89987  1.0000
  C   C532      1.0  0.38583  0.89612  0.89901  1.0000
  H   H423      1.0  0.37246  0.11227  0.51577  1.0000
  C   C533      1.0  0.42122  0.09695  0.86390  1.0000
  Fe  Fe40      1.0  0.31114  0.08054  0.87683  1.0000
  C   C534      1.0  0.29590  0.21361  0.67421  1.0000
  H   H424      1.0  0.32494  0.14011  0.77370  1.0000
  C   C535      1.0  0.19131  0.14641  0.75954  1.0000
  C   C536      1.0  0.17900  0.09888  0.92349  1.0000
  C   C537      1.0  0.24151  0.12916  0.54892  1.0000
  C   C538      1.0  0.23729  0.89693  0.54513  1.0000
  H   H425      1.0  0.26957  0.20644  0.59329  1.0000
  C   C539      1.0  0.17339  0.93939  0.00449  1.0000
  C   C540      1.0  0.17305  0.95090  0.81251  1.0000
  H   H426      1.0  0.41325  0.09214  0.83822  1.0000
  H   H427      1.0  0.23301  0.03324  0.53562  1.0000
  H   H428      1.0  0.40883  0.05046  0.51526  1.0000
  C   C541      1.0  0.38974  0.95807  0.00636  1.0000
  H   H429      1.0  0.33765  0.89048  0.60149  1.0000
  H   H430      1.0  0.26853  0.19598  0.52643  1.0000
  C   C542      1.0  0.31466  0.88174  0.55307  1.0000
  H   H431      1.0  0.20359  0.20355  0.52115  1.0000
  H   H432      1.0  0.33564  0.88551  0.92033  1.0000
  C   C543      1.0  0.41916  0.88166  0.88348  1.0000
  C   C544      1.0  0.21413  0.21308  0.85238  1.0000
  C   C545      1.0  0.28922  0.21297  0.82715  1.0000
  C   C546      1.0  0.23205  0.90292  0.51078  1.0000
  S   S78       1.0  0.62800  0.48244  0.46750  1.0000
  C   C547      1.0  0.66656  0.49180  0.40775  1.0000
  H   H433      1.0  0.45769  0.31856  0.29780  1.0000
  C   C548      1.0  0.45532  0.49060  0.48772  1.0000
  C   C549      1.0  0.47538  0.21388  0.01247  1.0000
  C   C550      1.0  0.47270  0.39554  0.09957  1.0000
  H   H434      1.0  0.54148  0.48130  0.21695  1.0000
  C   C551      1.0  0.44098  0.37225  0.21880  1.0000
  C   C552      1.0  0.63960  0.36437  0.04997  1.0000
  C   C553      1.0  0.46794  0.54587  0.36163  1.0000
  H   H435      1.0  0.48625  0.34776  0.02957  1.0000
  C   C554      1.0  0.66914  0.28551  0.22413  1.0000
  C   C555      1.0  0.60035  0.52922  0.17273  1.0000
  S   S79       1.0  0.46635  0.35797  0.43059  1.0000
  H   H436      1.0  0.44929  0.47601  0.17976  1.0000
  C   C556      1.0  0.55163  0.53250  0.06171  1.0000
  C   C557      1.0  0.50700  0.24347  0.19999  1.0000
  H   H437      1.0  0.43822  0.51219  0.04489  1.0000
  C   C558      1.0  0.50290  0.24148  0.39635  1.0000
  C   C559      1.0  0.65516  0.40765  0.17536  1.0000
  H   H438      1.0  0.43632  0.38739  0.19680  1.0000
  H   H439      1.0  0.64460  0.32238  0.50497  1.0000
  H   H440      1.0  0.62129  0.26794  0.13017  1.0000
  P   P17       1.0  0.66343  0.34337  0.43695  1.0000
  C   C560      1.0  0.62154  0.45387  0.40294  1.0000
  H   H441      1.0  0.50449  0.25207  0.37148  1.0000
  C   C561      1.0  0.50389  0.38427  0.11446  1.0000
  C   C562      1.0  0.47930  0.51814  0.38132  1.0000
  P   P18       1.0  0.46462  0.50418  0.11316  1.0000
  C   C563      1.0  0.44136  0.33549  0.21567  1.0000
  H   H442      1.0  0.63770  0.45538  0.26517  1.0000
  C   C564      1.0  0.48983  0.24675  0.23321  1.0000
  H   H443      1.0  0.59688  0.44069  0.22183  1.0000
  H   H444      1.0  0.43453  0.29226  0.04043  1.0000
  H   H445      1.0  0.45592  0.38353  0.30319  1.0000
  H   H446      1.0  0.44818  0.23482  0.39496  1.0000
  H   H447      1.0  0.56772  0.41847  0.03888  1.0000
  C   C565      1.0  0.45617  0.50236  0.18459  1.0000
  H   H448      1.0  0.61334  0.41148  0.14143  1.0000
  H   H449      1.0  0.49662  0.23679  0.28635  1.0000
  C   C566      1.0  0.63176  0.24627  0.43813  1.0000
  C   C567      1.0  0.46401  0.52257  0.15724  1.0000
  H   H450      1.0  0.50490  0.52834  0.46585  1.0000
  C   C568      1.0  0.66196  0.50475  0.16061  1.0000
  C   C569      1.0  0.45676  0.51620  0.21859  1.0000
  H   H451      1.0  0.54474  0.31127  0.01937  1.0000
  H   H452      1.0  0.46476  0.27358  0.50471  1.0000
  C   C570      1.0  0.60825  0.39491  0.46500  1.0000
  H   H453      1.0  0.57953  0.52261  0.05830  1.0000
  H   H454      1.0  0.54724  0.40055  0.14058  1.0000
  H   H455      1.0  0.49379  0.25491  0.17900  1.0000
  C   C571      1.0  0.62376  0.24365  0.47311  1.0000
  H   H456      1.0  0.58935  0.35676  0.03313  1.0000
  H   H457      1.0  0.52669  0.32017  0.45684  1.0000
  C   C572      1.0  0.53996  0.52094  0.36126  1.0000
  H   H458      1.0  0.43654  0.43942  0.08703  1.0000
  C   C573      1.0  0.49840  0.21482  0.46122  1.0000
  C   C574      1.0  0.64209  0.24696  0.13453  1.0000
  C   C575      1.0  0.55934  0.48767  0.23589  1.0000
  C   C576      1.0  0.59172  0.50748  0.14512  1.0000
  C   C577      1.0  0.44571  0.38959  0.25044  1.0000
  C   C578      1.0  0.50839  0.23314  0.26018  1.0000
  C   C579      1.0  0.65350  0.48378  0.13247  1.0000
  C   C580      1.0  0.49290  0.52668  0.08596  1.0000
  H   H459      1.0  0.45724  0.37619  0.08924  1.0000
  H   H460      1.0  0.44444  0.41819  0.25308  1.0000
  H   H461      1.0  0.45995  0.50584  0.39588  1.0000
  H   H462      1.0  0.65151  0.27739  0.39995  1.0000
  C   C581      1.0  0.64559  0.27579  0.42718  1.0000
  H   H463      1.0  0.65123  0.43577  0.18322  1.0000
  C   C582      1.0  0.60409  0.22412  0.02307  1.0000
  C   C583      1.0  0.44596  0.31586  0.24440  1.0000
  C   C584      1.0  0.63910  0.22789  0.16347  1.0000
  H   H464      1.0  0.55372  0.22111  0.46153  1.0000
  C   C585      1.0  0.65520  0.26491  0.24826  1.0000
  H   H465      1.0  0.43737  0.32267  0.19092  1.0000
  C   C586      1.0  0.50817  0.33110  0.47839  1.0000
  H   H466      1.0  0.54393  0.36998  0.39819  1.0000
  C   C587      1.0  0.52318  0.40922  0.12877  1.0000
  C   C588      1.0  0.46096  0.43172  0.09854  1.0000
  C   C589      1.0  0.43013  0.22027  0.28832  1.0000
  H   H467      1.0  0.45087  0.50041  0.23956  1.0000
  C   C590      1.0  0.56216  0.37735  0.41643  1.0000
  C   C591      1.0  0.51127  0.44544  0.12827  1.0000
  H   H468      1.0  0.62147  0.27459  0.02941  1.0000
  H   H469      1.0  0.61300  0.21661  0.04742  1.0000
  H   H470      1.0  0.56459  0.50891  0.13919  1.0000
  C   C592      1.0  0.45269  0.33325  0.27561  1.0000
  C   C593      1.0  0.61843  0.48507  0.12471  1.0000
  C   C594      1.0  0.59735  0.36109  0.41307  1.0000
  C   C595      1.0  0.52867  0.51315  0.07888  1.0000
  C   C596      1.0  0.63550  0.52766  0.18060  1.0000
  H   H471      1.0  0.57212  0.53750  0.50397  1.0000
  H   H472      1.0  0.45384  0.49319  0.46050  1.0000
  C   C597      1.0  0.48036  0.45711  0.11263  1.0000
  C   C598      1.0  0.55723  0.43239  0.01792  1.0000
  H   H473      1.0  0.62788  0.22508  0.41951  1.0000
  H   H474      1.0  0.52639  0.53565  0.25621  1.0000
  H   H475      1.0  0.52617  0.46433  0.14023  1.0000
  H   H476      1.0  0.60593  0.34066  0.39239  1.0000
  H   H477      1.0  0.66517  0.23496  0.29189  1.0000
  C   C599      1.0  0.55104  0.51864  0.25786  1.0000
  H   H478      1.0  0.65548  0.37064  0.36896  1.0000
  Fe  Fe41      1.0  0.64439  0.47448  0.04531  1.0000
  C   C600      1.0  0.54103  0.22447  0.19340  1.0000
  C   C601      1.0  0.47594  0.35093  0.47271  1.0000
  C   C602      1.0  0.66661  0.33547  0.15400  1.0000
  C   C603      1.0  0.66422  0.45535  0.35473  1.0000
  C   C604      1.0  0.45198  0.37005  0.27872  1.0000
  C   C605      1.0  0.61363  0.47322  0.26297  1.0000
  C   C606      1.0  0.46442  0.45699  0.49914  1.0000
  H   H479      1.0  0.50506  0.44548  0.04312  1.0000
  C   C607      1.0  0.63955  0.35778  0.14117  1.0000
  H   H480      1.0  0.56766  0.50988  0.36024  1.0000
  H   H481      1.0  0.52272  0.41468  0.44643  1.0000
  C   C608      1.0  0.64173  0.30099  0.48613  1.0000
  H   H482      1.0  0.62873  0.25847  0.24667  1.0000
  C   C609      1.0  0.47109  0.23213  0.40971  1.0000
  C   C610      1.0  0.51533  0.50566  0.38115  1.0000
  H   H483      1.0  0.62844  0.38098  0.07277  1.0000
  H   H484      1.0  0.61625  0.23452  0.18168  1.0000
  H   H485      1.0  0.46934  0.43379  0.48090  1.0000
  H   H486      1.0  0.62541  0.40154  0.48449  1.0000
  H   H487      1.0  0.61431  0.22013  0.48157  1.0000
  C   C611      1.0  0.63442  0.44291  0.36901  1.0000
  C   C612      1.0  0.59062  0.46491  0.23851  1.0000
  C   C613      1.0  0.62081  0.37005  0.43711  1.0000
  C   C614      1.0  0.62858  0.27112  0.49705  1.0000
  H   H488      1.0  0.59900  0.44356  0.41396  1.0000
  H   H489      1.0  0.56379  0.43096  0.48938  1.0000
  C   C615      1.0  0.55003  0.40241  0.44395  1.0000
  C   C616      1.0  0.63387  0.39396  0.15177  1.0000
  H   H490      1.0  0.51278  0.35620  0.11529  1.0000
  S   S80       1.0  0.60872  0.46009  0.08827  1.0000
  C   C617      1.0  0.57428  0.52754  0.28210  1.0000
  C   C618      1.0  0.57304  0.41125  0.46822  1.0000
  P   P19       1.0  0.44462  0.26861  0.24105  1.0000
  C   C619      1.0  0.45212  0.36517  0.50059  1.0000
  H   H491      1.0  0.52419  0.48358  0.39576  1.0000
  C   C620      1.0  0.60549  0.50437  0.28487  1.0000
  H   H492      1.0  0.53923  0.48788  0.08704  1.0000
  H   H493      1.0  0.62331  0.50997  0.30411  1.0000
  H   H494      1.0  0.55372  0.22107  0.16753  1.0000
  H   H495      1.0  0.62190  0.42396  0.35417  1.0000
  H   H496      1.0  0.62344  0.34691  0.12265  1.0000
  C   C621      1.0  0.63892  0.47656  0.42299  1.0000
  C   C622      1.0  0.65140  0.30297  0.45127  1.0000
  H   H497      1.0  0.65274  0.29511  0.20456  1.0000
  C   C623      1.0  0.67225  0.23928  0.11155  1.0000
  H   H498      1.0  0.55716  0.24492  0.40504  1.0000
  C   C624      1.0  0.61748  0.35122  0.02691  1.0000
  C   C625      1.0  0.54241  0.21415  0.25350  1.0000
  C   C626      1.0  0.53255  0.23740  0.41524  1.0000
  C   C627      1.0  0.42854  0.22756  0.18355  1.0000
  C   C628      1.0  0.52203  0.44830  0.02065  1.0000
  C   C629      1.0  0.53042  0.22395  0.44746  1.0000
  C   C630      1.0  0.46873  0.21929  0.44216  1.0000
  H   H499      1.0  0.50699  0.25593  0.01788  1.0000
  Fe  Fe42      1.0  0.66134  0.51678  0.49548  1.0000
  C   C631      1.0  0.60898  0.25728  0.01261  1.0000
  C   C632      1.0  0.42316  0.25545  0.27965  1.0000
  H   H500      1.0  0.67137  0.30773  0.14490  1.0000
  H   H501      1.0  0.42728  0.38069  0.49627  1.0000
  H   H502      1.0  0.57981  0.54697  0.18811  1.0000
  H   H503      1.0  0.47738  0.26767  0.59586  1.0000
  H   H504      1.0  0.47451  0.36142  0.77166  1.0000
  S   S81       1.0  0.50075  0.41889  0.73867  1.0000
  H   H505      1.0  0.53735  0.22088  0.85876  1.0000
  C   C633      1.0  0.54950  0.53325  0.88304  1.0000
  C   C634      1.0  0.57886  0.43458  0.98818  1.0000
  C   C635      1.0  0.44536  0.25752  0.67696  1.0000
  H   H506      1.0  0.53794  0.35576  0.78134  1.0000
  C   C636      1.0  0.42647  0.26767  0.89704  1.0000
  H   H507      1.0  0.42927  0.27459  0.79250  1.0000
  C   C637      1.0  0.42654  0.47902  0.82616  1.0000
  H   H508      1.0  0.60854  0.32552  0.70588  1.0000
  H   H509      1.0  0.47682  0.31610  0.91083  1.0000
  C   C638      1.0  0.66819  0.27486  0.58651  1.0000
  C   C639      1.0  0.44789  0.52064  0.51130  1.0000
  C   C640      1.0  0.45739  0.22512  0.52799  1.0000
  C   C641      1.0  0.53701  0.44959  0.87395  1.0000
  H   H510      1.0  0.45084  0.40781  0.87560  1.0000
  C   C642      1.0  0.48481  0.51752  0.64783  1.0000
  C   C643      1.0  0.62431  0.31098  0.92479  1.0000
  C   C644      1.0  0.66428  0.48879  0.88570  1.0000
  H   H511      1.0  0.54173  0.31031  0.51610  1.0000
  C   C645      1.0  0.59532  0.50923  0.63802  1.0000
  S   S82       1.0  0.60337  0.25290  0.68210  1.0000
  H   H512      1.0  0.56924  0.26755  0.57156  1.0000
  C   C646      1.0  0.56440  0.54178  0.94186  1.0000
  C   C647      1.0  0.65378  0.34771  0.68620  1.0000
  H   H513      1.0  0.63161  0.36606  0.93189  1.0000
  H   H514      1.0  0.58051  0.49508  0.54782  1.0000
  C   C648      1.0  0.44916  0.26133  0.52329  1.0000
  C   C649      1.0  0.53095  0.47186  0.96534  1.0000
  H   H515      1.0  0.57640  0.38320  0.73168  1.0000
  C   C650      1.0  0.52712  0.50004  0.68862  1.0000
  C   C651      1.0  0.53358  0.42190  0.84965  1.0000
  S   S83       1.0  0.46832  0.34405  0.67719  1.0000
  C   C652      1.0  0.63418  0.44317  0.86001  1.0000
  C   C653      1.0  0.54745  0.52894  0.58792  1.0000
  C   C654      1.0  0.55893  0.54421  0.52947  1.0000
  H   H516      1.0  0.61531  0.45243  0.81051  1.0000
  C   C655      1.0  0.49616  0.27223  0.75338  1.0000
  C   C656      1.0  0.47282  0.22978  0.94372  1.0000
  C   C657      1.0  0.53351  0.24909  0.86580  1.0000
  H   H517      1.0  0.60324  0.43800  0.72628  1.0000
  Fe  Fe43      1.0  0.63982  0.22714  0.71798  1.0000
  H   H518      1.0  0.51561  0.25905  0.54368  1.0000
  H   H519      1.0  0.47841  0.52191  0.62193  1.0000
  H   H520      1.0  0.66942  0.31393  0.83298  1.0000
  S   S84       1.0  0.50396  0.33138  0.58142  1.0000
  H   H521      1.0  0.45596  0.45723  0.91793  1.0000
  C   C658      1.0  0.65155  0.34332  0.88146  1.0000
  C   C659      1.0  0.61754  0.41273  0.71529  1.0000
  C   C660      1.0  0.47277  0.44090  0.77339  1.0000
  C   C661      1.0  0.58111  0.24471  0.96049  1.0000
  P   P20       1.0  0.60387  0.31093  0.96796  1.0000
  C   C662      1.0  0.64734  0.28139  0.86900  1.0000
  P   P21       1.0  0.47742  0.23516  0.73490  1.0000
  C   C663      1.0  0.49966  0.30255  0.89484  1.0000
  C   C664      1.0  0.44982  0.51651  0.54654  1.0000
  C   C665      1.0  0.59875  0.26736  0.98064  1.0000
  C   C666      1.0  0.56031  0.33641  0.97394  1.0000
  H   H522      1.0  0.44107  0.30508  0.97927  1.0000
  C   C667      1.0  0.48414  0.46754  0.79445  1.0000
  C   C668      1.0  0.54790  0.44089  0.57582  1.0000
  C   C669      1.0  0.50888  0.24810  0.63570  1.0000
  H   H523      1.0  0.63753  0.37947  0.55836  1.0000
  H   H524      1.0  0.43063  0.53046  0.66862  1.0000
  C   C670      1.0  0.62532  0.54513  0.67654  1.0000
  C   C671      1.0  0.56344  0.52005  0.55445  1.0000
  H   H525      1.0  0.62273  0.26931  0.52417  1.0000
  H   H526      1.0  0.53449  0.52180  0.86388  1.0000
  S   S85       1.0  0.63561  0.51823  0.79352  1.0000
  C   C672      1.0  0.43270  0.23283  0.75132  1.0000
  C   C673      1.0  0.65924  0.49903  0.63725  1.0000
  C   C674      1.0  0.47762  0.44815  0.89864  1.0000
  H   H527      1.0  0.52161  0.35056  0.88843  1.0000
  C   C675      1.0  0.56581  0.45438  0.96199  1.0000
  H   H528      1.0  0.56482  0.53726  0.78108  1.0000
  C   C676      1.0  0.54961  0.36248  0.95200  1.0000
  C   C677      1.0  0.61499  0.28804  0.62522  1.0000
  H   H529      1.0  0.58229  0.25565  0.83803  1.0000
  C   C678      1.0  0.65160  0.45633  0.88724  1.0000
  H   H530      1.0  0.65290  0.25769  0.85154  1.0000
  C   C679      1.0  0.46623  0.45316  0.53415  1.0000
  H   H531      1.0  0.66098  0.36729  0.87408  1.0000
  C   C680      1.0  0.51664  0.32550  0.51190  1.0000
  C   C681      1.0  0.46074  0.35969  0.53420  1.0000
  C   C682      1.0  0.60244  0.38188  0.71848  1.0000
  C   C683      1.0  0.47690  0.24423  0.69056  1.0000
  H   H532      1.0  0.44855  0.51918  0.90027  1.0000
  C   C684      1.0  0.43883  0.43235  0.77992  1.0000
  Fe  Fe44      1.0  0.46889  0.40073  0.69620  1.0000
  S   S86       1.0  0.63721  0.24984  0.77253  1.0000
  C   C685      1.0  0.45868  0.48280  0.55783  1.0000
  C   C686      1.0  0.53701  0.33094  0.00177  1.0000
  C   C687      1.0  0.55209  0.40465  0.56556  1.0000
  C   C688      1.0  0.46075  0.48718  0.82031  1.0000
  H   H533      1.0  0.49922  0.38604  0.83104  1.0000
  H   H534      1.0  0.58307  0.45647  0.93935  1.0000
  C   C689      1.0  0.63175  0.28007  0.90219  1.0000
  C   C690      1.0  0.47727  0.26069  0.62209  1.0000
  H   H535      1.0  0.44463  0.52083  0.72862  1.0000
  S   S87       1.0  0.65908  0.51883  0.55284  1.0000
  C   C691      1.0  0.65066  0.41119  0.69736  1.0000
  H   H536      1.0  0.57107  0.25273  0.93667  1.0000
  C   C692      1.0  0.54709  0.29925  0.76909  1.0000
  H   H537      1.0  0.48115  0.47899  0.99665  1.0000
  C   C693      1.0  0.50387  0.35166  0.00780  1.0000
  C   C694      1.0  0.56049  0.45275  0.60675  1.0000
  C   C695      1.0  0.49045  0.33562  0.76878  1.0000
  C   C696      1.0  0.53692  0.23721  0.54210  1.0000
  C   C697      1.0  0.49337  0.37738  0.98567  1.0000
  C   C698      1.0  0.50014  0.50599  0.71500  1.0000
  P   P22       1.0  0.51449  0.49704  0.93126  1.0000
  C   C699      1.0  0.49290  0.33968  0.53986  1.0000
  Fe  Fe45      1.0  0.46993  0.36390  0.62465  1.0000
  C   C700      1.0  0.50873  0.46357  0.89807  1.0000
  H   H538      1.0  0.49564  0.54428  0.99360  1.0000
  H   H539      1.0  0.53355  0.23098  0.68023  1.0000
  C   C701      1.0  0.64205  0.49476  0.82968  1.0000
  H   H540      1.0  0.44869  0.30971  0.75054  1.0000
  S   S88       1.0  0.62374  0.49966  0.99953  1.0000
  C   C702      1.0  0.53229  0.26921  0.75853  1.0000
  C   C703      1.0  0.51982  0.50654  0.65492  1.0000
  H   H541      1.0  0.66645  0.32225  0.67419  1.0000
  C   C704      1.0  0.47509  0.52723  0.94623  1.0000
  H   H542      1.0  0.55519  0.41192  0.83055  1.0000
  C   C705      1.0  0.50873  0.46767  0.99435  1.0000
  H   H543      1.0  0.54956  0.24424  0.75274  1.0000
  H   H544      1.0  0.47310  0.42721  0.54313  1.0000
  C   C706      1.0  0.54598  0.52496  0.91738  1.0000
  H   H545      1.0  0.43044  0.41064  0.76518  1.0000
  P   P23       1.0  0.55513  0.49920  0.62116  1.0000
  C   C707      1.0  0.49163  0.24880  0.96621  1.0000
  C   C708      1.0  0.55492  0.30541  0.86194  1.0000
  H   H546      1.0  0.60610  0.42174  0.98574  1.0000
  H   H547      1.0  0.59008  0.37242  0.63489  1.0000
  C   C709      1.0  0.65982  0.50787  0.85669  1.0000
  C   C710      1.0  0.52619  0.33237  0.77434  1.0000
  C   C711      1.0  0.50338  0.26585  0.88621  1.0000
  H   H548      1.0  0.57070  0.35205  0.57875  1.0000
  C   C712      1.0  0.62906  0.46254  0.83141  1.0000
  C   C713      1.0  0.47571  0.30595  0.75748  1.0000
  H   H549      1.0  0.56186  0.45987  0.87407  1.0000
  H   H550      1.0  0.56690  0.36766  0.93058  1.0000
  H   H551      1.0  0.44245  0.37093  0.55562  1.0000
  S   S89       1.0  0.47656  0.41932  0.64351  1.0000
  C   C714      1.0  0.65685  0.31308  0.85852  1.0000
  Fe  Fe46      1.0  0.66307  0.53657  0.00718  1.0000
  C   C715      1.0  0.49293  0.24080  0.00046  1.0000
  H   H552      1.0  0.57504  0.29719  0.77196  1.0000
  H   H553      1.0  0.58973  0.30409  0.63295  1.0000
  C   C716      1.0  0.50874  0.23998  0.66984  1.0000
  C   C717      1.0  0.52510  0.32222  0.88232  1.0000
  C   C718      1.0  0.62759  0.26037  0.64454  1.0000
  C   C719      1.0  0.44697  0.53294  0.92549  1.0000
  C   C720      1.0  0.45768  0.52270  0.67431  1.0000
  H   H554      1.0  0.55363  0.49025  0.69467  1.0000
  C   C721      1.0  0.63516  0.34238  0.91432  1.0000
  H   H555      1.0  0.45890  0.47933  0.58501  1.0000
  H   H556      1.0  0.43265  0.22208  0.83866  1.0000
  H   H557      1.0  0.44381  0.29212  0.85185  1.0000
  C   C722      1.0  0.44561  0.26572  0.64287  1.0000
  P   P24       1.0  0.46886  0.24110  0.90000  1.0000
  C   C723      1.0  0.46542  0.51718  0.70799  1.0000
  H   H558      1.0  0.46952  0.50780  0.83648  1.0000
  H   H559      1.0  0.46769  0.39352  0.99026  1.0000
  C   C724      1.0  0.47461  0.41992  0.87480  1.0000
  C   C725      1.0  0.50223  0.40725  0.84995  1.0000
  C   C726      1.0  0.59424  0.53737  0.66332  1.0000
  H   H560      1.0  0.50624  0.50103  0.74075  1.0000
  H   H561      1.0  0.50446  0.27047  0.95777  1.0000
  H   H562      1.0  0.51097  0.47302  0.79074  1.0000
  C   C727      1.0  0.55917  0.26882  0.85383  1.0000
  H   H563      1.0  0.50783  0.40236  0.94060  1.0000
  C   C728      1.0  0.51607  0.38247  0.95765  1.0000
  H   H564      1.0  0.57478  0.32068  0.85249  1.0000
  C   C729      1.0  0.57535  0.42778  0.62816  1.0000
  H   H565      1.0  0.58391  0.43625  0.65278  1.0000
  C   C730      1.0  0.57896  0.39159  0.61811  1.0000
  H   H566      1.0  0.54243  0.39536  0.54169  1.0000
  H   H567      1.0  0.53371  0.24559  0.62034  1.0000
  C   C731      1.0  0.56785  0.38010  0.58658  1.0000
  H   H568      1.0  0.62962  0.46922  0.60448  1.0000
  H   H569      1.0  0.62644  0.25473  0.90992  1.0000
  C   C732      1.0  0.63547  0.29541  0.59630  1.0000
  C   C733      1.0  0.56754  0.24218  0.55789  1.0000
  C   C734      1.0  0.63187  0.33081  0.99660  1.0000
  H   H570      1.0  0.53468  0.45941  0.55973  1.0000
  C   C735      1.0  0.62804  0.49011  0.62498  1.0000
  H   H571      1.0  0.66076  0.43571  0.69435  1.0000
  H   H572      1.0  0.62601  0.31688  0.58137  1.0000
  H   H573      1.0  0.62398  0.41832  0.86125  1.0000
  C   C736      1.0  0.62055  0.34941  0.70394  1.0000
  C   C737      1.0  0.65785  0.52613  0.66339  1.0000
  C   C738      1.0  0.65887  0.39020  0.57010  1.0000
  H   H574      1.0  0.65708  0.35867  0.61306  1.0000
  S   S90       1.0  0.65714  0.43168  0.92284  1.0000
  C   C739      1.0  0.65987  0.23920  0.63411  1.0000
  H   H575      1.0  0.61949  0.21883  0.56839  1.0000
  H   H576      1.0  0.44404  0.53903  0.56546  1.0000
  C   C740      1.0  0.66953  0.37859  0.68307  1.0000
  H   H577      1.0  0.56109  0.53690  0.96868  1.0000
  C   C741      1.0  0.59579  0.21465  0.55617  1.0000
  C   C742      1.0  0.42614  0.32448  0.99806  1.0000
  C   C743      1.0  0.66867  0.32414  0.98967  1.0000
  C   C744      1.0  0.67017  0.37829  0.60093  1.0000
  H   H578      1.0  0.66589  0.42579  0.53088  1.0000
  H   H579      1.0  0.66967  0.53290  0.85541  1.0000
  Fe  Fe47      1.0  0.66827  0.46374  0.96985  1.0000
  H   H580      1.0  0.66905  0.21695  0.64814  1.0000
  H   H581      1.0  0.50017  0.54489  0.79471  1.0000
  H   H582      1.0  0.67199  0.45197  0.75535  1.0000
  C   C745      1.0  0.52882  0.54945  0.34195  1.0000
  C   C746      1.0  0.58045  0.84678  0.29478  1.0000
  C   C747      1.0  0.53758  0.80972  0.15462  1.0000
  S   S91       1.0  0.47277  0.71015  0.40875  1.0000
  C   C748      1.0  0.51555  0.66145  0.25636  1.0000
  C   C749      1.0  0.46399  0.55067  0.22568  1.0000
  H   H583      1.0  0.47961  0.85025  0.10326  1.0000
  H   H584      1.0  0.53868  0.77353  0.24443  1.0000
  H   H585      1.0  0.43682  0.81036  0.09803  1.0000
  Fe  Fe48      1.0  0.44456  0.72810  0.46057  1.0000
  C   C750      1.0  0.51120  0.83463  0.14409  1.0000
  C   C751      1.0  0.62321  0.59415  0.31307  1.0000
  C   C752      1.0  0.53142  0.60550  0.44526  1.0000
  S   S92       1.0  0.64654  0.55396  0.21549  1.0000
  C   C753      1.0  0.43872  0.79365  0.01115  1.0000
  C   C754      1.0  0.65554  0.60325  0.36312  1.0000
  H   H586      1.0  0.62787  0.86674  0.43929  1.0000
  S   S93       1.0  0.43598  0.67144  0.17217  1.0000
  H   H587      1.0  0.65238  0.75813  0.39862  1.0000
  H   H588      1.0  0.52550  0.66522  0.03383  1.0000
  C   C755      1.0  0.52976  0.68940  0.02241  1.0000
  H   H589      1.0  0.65691  0.72976  0.13743  1.0000
  H   H590      1.0  0.45609  0.84882  0.25899  1.0000
  H   H591      1.0  0.62098  0.59638  0.28585  1.0000
  S   S94       1.0  0.42645  0.74365  0.13031  1.0000
  H   H592      1.0  0.63275  0.70187  0.27090  1.0000
  H   H593      1.0  0.60237  0.59392  0.13335  1.0000
  C   C756      1.0  0.60315  0.81623  0.28163  1.0000
  C   C757      1.0  0.47260  0.57996  0.47617  1.0000
  H   H594      1.0  0.49002  0.68313  0.30561  1.0000
  H   H595      1.0  0.50487  0.68382  0.24304  1.0000
  C   C758      1.0  0.61284  0.78936  0.30283  1.0000
  H   H596      1.0  0.51415  0.63209  0.33620  1.0000
  H   H597      1.0  0.67087  0.61810  0.31288  1.0000
  C   C759      1.0  0.45734  0.75249  0.26633  1.0000
  H   H598      1.0  0.57110  0.58383  0.24153  1.0000
  C   C760      1.0  0.58063  0.61377  0.12854  1.0000
  H   H599      1.0  0.57321  0.76160  0.14044  1.0000
  H   H600      1.0  0.47777  0.59762  0.20423  1.0000
  H   H601      1.0  0.50060  0.65721  0.45544  1.0000
  P   P25       1.0  0.56060  0.56535  0.31273  1.0000
  C   C761      1.0  0.47229  0.55678  0.16468  1.0000
  C   C762      1.0  0.61599  0.82814  0.47402  1.0000
  H   H602      1.0  0.54273  0.57750  0.13175  1.0000
  H   H603      1.0  0.55589  0.55090  0.43908  1.0000
  C   C763      1.0  0.45174  0.79835  0.04352  1.0000
  H   H604      1.0  0.65457  0.71665  0.50779  1.0000
  H   H605      1.0  0.63422  0.58533  0.40990  1.0000
  C   C764      1.0  0.62266  0.69457  0.06689  1.0000
  H   H606      1.0  0.49518  0.72277  0.06086  1.0000
  H   H607      1.0  0.50104  0.68433  0.11409  1.0000
  C   C765      1.0  0.51814  0.62986  0.12241  1.0000
  C   C766      1.0  0.51521  0.77045  0.26028  1.0000
  H   H608      1.0  0.49368  0.60415  0.04786  1.0000
  H   H609      1.0  0.55706  0.58011  0.03712  1.0000
  C   C767      1.0  0.50119  0.62902  0.45747  1.0000
  C   C768      1.0  0.42574  0.67389  0.03645  1.0000
  H   H610      1.0  0.66099  0.77806  0.09996  1.0000
  H   H611      1.0  0.58311  0.56528  0.38391  1.0000
  H   H612      1.0  0.48342  0.85671  0.45643  1.0000
  C   C769      1.0  0.50300  0.87030  0.44390  1.0000
  H   H613      1.0  0.43098  0.76056  0.31718  1.0000
  H   H614      1.0  0.45292  0.57160  0.08051  1.0000
  C   C770      1.0  0.50322  0.57856  0.05635  1.0000
  C   C771      1.0  0.53897  0.56505  0.05012  1.0000
  C   C772      1.0  0.59815  0.57898  0.33277  1.0000
  H   H615      1.0  0.46309  0.56185  0.25207  1.0000
  H   H616      1.0  0.44255  0.58770  0.01346  1.0000
  C   C773      1.0  0.60213  0.57618  0.36790  1.0000
  H   H617      1.0  0.63005  0.73880  0.45306  1.0000
  C   C774      1.0  0.59847  0.69062  0.19367  1.0000
  C   C775      1.0  0.62954  0.76683  0.45094  1.0000
  C   C776      1.0  0.62819  0.83887  0.44251  1.0000
  H   H618      1.0  0.49180  0.62302  0.12173  1.0000
  H   H619      1.0  0.63016  0.76565  0.29243  1.0000
  H   H620      1.0  0.47819  0.57296  0.14433  1.0000
  C   C777      1.0  0.51268  0.78045  0.29560  1.0000
  C   C778      1.0  0.66312  0.68409  0.22295  1.0000
  C   C779      1.0  0.59961  0.79278  0.33721  1.0000
  Fe  Fe49      1.0  0.66427  0.82687  0.20632  1.0000
  C   C780      1.0  0.55713  0.67395  0.11834  1.0000
  C   C781      1.0  0.50464  0.87157  0.40825  1.0000
  H   H621      1.0  0.54610  0.63459  0.21140  1.0000
  H   H622      1.0  0.67269  0.63643  0.06379  1.0000
  C   C782      1.0  0.64133  0.81369  0.41537  1.0000
  C   C783      1.0  0.53998  0.77544  0.09976  1.0000
  C   C784      1.0  0.53850  0.63350  0.23845  1.0000
  H   H623      1.0  0.42444  0.69051  0.31916  1.0000
  H   H624      1.0  0.51339  0.85203  0.28163  1.0000
  C   C785      1.0  0.48232  0.77719  0.31630  1.0000
  C   C786      1.0  0.45469  0.76292  0.30163  1.0000
  C   C787      1.0  0.52070  0.63186  0.30880  1.0000
  C   C788      1.0  0.49906  0.82993  0.11146  1.0000
  C   C789      1.0  0.63564  0.85385  0.12963  1.0000
  C   C790      1.0  0.48930  0.86331  0.02250  1.0000
  H   H625      1.0  0.65176  0.65254  0.50323  1.0000
  H   H626      1.0  0.55415  0.61551  0.43368  1.0000
  C   C791      1.0  0.66362  0.62540  0.11697  1.0000
  H   H627      1.0  0.47455  0.81695  0.50441  1.0000
  C   C792      1.0  0.60816  0.86626  0.15489  1.0000
  C   C793      1.0  0.55228  0.60454  0.25558  1.0000
  C   C794      1.0  0.47213  0.57084  0.19871  1.0000
  Fe  Fe50      1.0  0.44106  0.72880  0.18226  1.0000
  H   H628      1.0  0.61732  0.71980  0.01970  1.0000
  C   C795      1.0  0.48025  0.55980  0.07461  1.0000
  H   H629      1.0  0.61215  0.67123  0.05718  1.0000
  C   C796      1.0  0.64772  0.72734  0.11201  1.0000
  H   H630      1.0  0.50064  0.85787  0.16111  1.0000
  H   H631      1.0  0.48253  0.58175  0.32591  1.0000
  S   S95       1.0  0.61104  0.85580  0.19759  1.0000
  Fe  Fe51      1.0  0.42299  0.68976  0.39648  1.0000
  H   H632      1.0  0.44845  0.63514  0.48125  1.0000
  H   H633      1.0  0.61288  0.81309  0.25480  1.0000
  Fe  Fe52      1.0  0.44627  0.76158  0.39298  1.0000
  C   C797      1.0  0.57624  0.82292  0.35036  1.0000
  C   C798      1.0  0.47176  0.61636  0.47246  1.0000
  H   H634      1.0  0.57303  0.69338  0.18314  1.0000
  C   C799      1.0  0.51250  0.79967  0.08937  1.0000
  C   C800      1.0  0.51271  0.72209  0.03776  1.0000
  P   P26       1.0  0.43461  0.56375  0.49633  1.0000
  C   C801      1.0  0.53233  0.56922  0.44823  1.0000
  H   H635      1.0  0.57319  0.86723  0.27777  1.0000
  H   H636      1.0  0.64139  0.77349  0.04110  1.0000
  C   C802      1.0  0.65157  0.60651  0.32828  1.0000
  C   C803      1.0  0.55217  0.78033  0.13236  1.0000
  H   H637      1.0  0.56532  0.82415  0.37673  1.0000
  C   C804      1.0  0.49010  0.86621  0.29614  1.0000
  C   C805      1.0  0.59956  0.69944  0.22884  1.0000
  C   C806      1.0  0.50703  0.66089  0.29159  1.0000
  S   S96       1.0  0.49096  0.74434  0.20124  1.0000
  H   H638      1.0  0.55272  0.75321  0.08262  1.0000
  H   H639      1.0  0.56890  0.81197  0.02663  1.0000
  C   C807      1.0  0.45741  0.86459  0.28291  1.0000
  C   C808      1.0  0.52336  0.66455  0.11764  1.0000
  H   H640      1.0  0.43623  0.74104  0.25535  1.0000
  C   C809      1.0  0.61684  0.79199  0.47864  1.0000
  C   C810      1.0  0.56624  0.85014  0.32914  1.0000
  P   P27       1.0  0.62863  0.66231  0.12835  1.0000
  H   H641      1.0  0.57530  0.70884  0.24477  1.0000
  H   H642      1.0  0.53420  0.79093  0.30685  1.0000
  C   C811      1.0  0.63916  0.75219  0.05754  1.0000
  H   H643      1.0  0.54718  0.81349  0.17984  1.0000
  C   C812      1.0  0.66225  0.67607  0.18769  1.0000
  S   S97       1.0  0.43718  0.65353  0.07361  1.0000
  C   C813      1.0  0.58609  0.64859  0.12345  1.0000
  H   H644      1.0  0.56043  0.70127  0.11597  1.0000
  C   C814      1.0  0.54254  0.60289  0.29066  1.0000
  C   C815      1.0  0.62554  0.72199  0.04556  1.0000
  C   C816      1.0  0.48737  0.75674  0.24552  1.0000
  C   C817      1.0  0.50312  0.55647  0.46361  1.0000
  H   H645      1.0  0.60667  0.77152  0.35336  1.0000
  H   H646      1.0  0.48663  0.85832  0.39374  1.0000
  C   C818      1.0  0.63360  0.69716  0.10040  1.0000
  H   H647      1.0  0.53335  0.78281  0.48792  1.0000
  H   H648      1.0  0.60615  0.84804  0.49487  1.0000
  C   C819      1.0  0.54970  0.83419  0.02156  1.0000
  H   H649      1.0  0.65724  0.83470  0.13537  1.0000
  H   H650      1.0  0.65132  0.82193  0.39113  1.0000
  S   S98       1.0  0.47905  0.79216  0.36007  1.0000
  C   C820      1.0  0.54670  0.60445  0.12795  1.0000
  C   C821      1.0  0.42781  0.80706  0.07267  1.0000
  C   C822      1.0  0.63093  0.58794  0.38290  1.0000
  C   C823      1.0  0.51345  0.83314  0.02725  1.0000
  P   P28       1.0  0.49882  0.79568  0.04610  1.0000
  C   C824      1.0  0.64192  0.77771  0.41960  1.0000
  C   C825      1.0  0.63560  0.86702  0.09710  1.0000
  S   S99       1.0  0.47555  0.72066  0.50654  1.0000
  C   C826      1.0  0.49246  0.56133  0.34186  1.0000
  H   H651      1.0  0.66096  0.60514  0.16721  1.0000
  C   C827      1.0  0.65023  0.75480  0.09072  1.0000
  C   C828      1.0  0.63183  0.69566  0.24356  1.0000
  C   C829      1.0  0.51881  0.75371  0.02385  1.0000
  C   C830      1.0  0.62983  0.67803  0.17292  1.0000
  H   H652      1.0  0.46119  0.86387  0.02805  1.0000
  C   C831      1.0  0.62758  0.67120  0.50804  1.0000
  H   H653      1.0  0.43994  0.55489  0.36101  1.0000
  S   S100      1.0  0.64624  0.57479  0.49363  1.0000
  H   H654      1.0  0.65786  0.85889  0.07834  1.0000
  C   C832      1.0  0.56163  0.86441  0.01024  1.0000
  C   C833      1.0  0.48158  0.81138  0.63391  1.0000
  H   H655      1.0  0.52701  0.82744  0.90456  1.0000
  C   C834      1.0  0.51967  0.85177  0.56716  1.0000
  C   C835      1.0  0.48799  0.86579  0.66721  1.0000
  S   S101      1.0  0.63428  0.83648  0.68585  1.0000
  C   C836      1.0  0.50309  0.83407  0.64845  1.0000
  H   H656      1.0  0.56951  0.55358  0.67273  1.0000
  H   H657      1.0  0.45415  0.67283  0.95192  1.0000
  H   H658      1.0  0.50927  0.82594  0.73287  1.0000
  H   H659      1.0  0.53715  0.59705  0.51909  1.0000
  H   H660      1.0  0.49331  0.78715  0.61878  1.0000
  C   C837      1.0  0.47800  0.77790  0.90706  1.0000
  H   H661      1.0  0.44238  0.69232  0.87420  1.0000
  C   C838      1.0  0.50952  0.71807  0.89737  1.0000
  C   C839      1.0  0.45135  0.61741  0.65980  1.0000
  H   H662      1.0  0.51916  0.57169  0.62274  1.0000
  C   C840      1.0  0.65432  0.74626  0.76964  1.0000
  H   H663      1.0  0.66249  0.59725  0.62201  1.0000
  P   P29       1.0  0.47117  0.82582  0.85632  1.0000
  H   H664      1.0  0.57693  0.56144  0.84634  1.0000
  H   H665      1.0  0.57469  0.71818  0.95437  1.0000
  S   S102      1.0  0.58794  0.81477  0.76960  1.0000
  H   H666      1.0  0.45671  0.78713  0.98836  1.0000
  S   S103      1.0  0.61866  0.80171  0.92428  1.0000
  H   H667      1.0  0.46354  0.61052  0.63399  1.0000
  C   C841      1.0  0.46046  0.80451  0.74019  1.0000
  C   C842      1.0  0.49284  0.82551  0.78644  1.0000
  C   C843      1.0  0.49642  0.82145  0.51939  1.0000
  C   C844      1.0  0.43837  0.58968  0.85418  1.0000
  C   C845      1.0  0.45460  0.72323  0.54816  1.0000
  C   C846      1.0  0.59353  0.78094  0.86420  1.0000
  C   C847      1.0  0.46684  0.81806  0.81078  1.0000
  C   C848      1.0  0.53995  0.74966  0.71335  1.0000
  P   P30       1.0  0.47819  0.66247  0.75033  1.0000
  C   C849      1.0  0.46940  0.63434  0.68439  1.0000
  H   H668      1.0  0.45771  0.79977  0.71297  1.0000
  H   H669      1.0  0.57164  0.76586  0.81728  1.0000
  H   H670      1.0  0.66797  0.56026  0.93742  1.0000
  C   C850      1.0  0.46011  0.71531  0.60857  1.0000
  H   H671      1.0  0.57425  0.83585  0.57434  1.0000
  C   C851      1.0  0.60981  0.62562  0.62304  1.0000
  C   C852      1.0  0.64170  0.61495  0.63711  1.0000
  C   C853      1.0  0.48922  0.81954  0.75134  1.0000
  C   C854      1.0  0.47356  0.54741  0.97786  1.0000
  H   H672      1.0  0.47229  0.70635  0.69145  1.0000
  C   C855      1.0  0.43534  0.79536  0.76419  1.0000
  H   H673      1.0  0.55510  0.76969  0.70466  1.0000
  S   S104      1.0  0.66969  0.86869  0.75347  1.0000
  H   H674      1.0  0.55833  0.65692  0.63160  1.0000
  H   H675      1.0  0.58347  0.76057  0.87812  1.0000
  H   H676      1.0  0.56813  0.74254  0.75841  1.0000
  C   C856      1.0  0.66596  0.64644  0.96661  1.0000
  C   C857      1.0  0.43340  0.61603  0.55025  1.0000
  C   C858      1.0  0.51302  0.73923  0.69446  1.0000
  C   C859      1.0  0.51769  0.72359  0.86304  1.0000
  H   H677      1.0  0.54124  0.73719  0.52833  1.0000
  C   C860      1.0  0.52838  0.70813  0.75504  1.0000
  H   H678      1.0  0.51882  0.69292  0.90707  1.0000
  C   C861      1.0  0.47556  0.71550  0.57522  1.0000
  H   H679      1.0  0.43352  0.65415  0.59321  1.0000
  H   H680      1.0  0.49591  0.63964  0.67746  1.0000
  H   H681      1.0  0.65807  0.66429  0.98938  1.0000
  C   C862      1.0  0.52410  0.58713  0.57139  1.0000
  C   C863      1.0  0.59194  0.57215  0.89751  1.0000
  C   C864      1.0  0.51215  0.56590  0.78368  1.0000
  H   H682      1.0  0.46299  0.79878  0.92454  1.0000
  Fe  Fe53      1.0  0.66882  0.56172  0.79078  1.0000
  H   H683      1.0  0.64180  0.84846  0.87503  1.0000
  H   H684      1.0  0.56597  0.66265  0.98092  1.0000
  C   C865      1.0  0.58803  0.66107  0.67592  1.0000
  S   S105      1.0  0.62495  0.66685  0.73226  1.0000
  C   C866      1.0  0.44938  0.68370  0.78652  1.0000
  H   H685      1.0  0.55589  0.63900  0.74099  1.0000
  H   H686      1.0  0.66968  0.78860  0.74161  1.0000
  C   C867      1.0  0.54325  0.61931  0.75358  1.0000
  C   C868      1.0  0.66039  0.80101  0.54633  1.0000
  C   C869      1.0  0.58719  0.56530  0.93194  1.0000
  H   H687      1.0  0.54471  0.77566  0.98084  1.0000
  C   C870      1.0  0.43247  0.61514  0.88223  1.0000
  C   C871      1.0  0.49137  0.84655  0.54775  1.0000
  C   C872      1.0  0.57299  0.55623  0.87308  1.0000
  H   H688      1.0  0.51622  0.83557  0.79433  1.0000
  C   C873      1.0  0.52868  0.56306  0.59641  1.0000
  Fe  Fe54      1.0  0.66399  0.63114  0.75836  1.0000
  H   H689      1.0  0.42820  0.80238  0.62745  1.0000
  H   H690      1.0  0.46480  0.57607  0.84701  1.0000
  C   C874      1.0  0.54863  0.56153  0.77588  1.0000
  H   H691      1.0  0.67131  0.61946  0.68160  1.0000
  H   H692      1.0  0.53367  0.70283  0.84612  1.0000
  C   C875      1.0  0.62662  0.83034  0.86239  1.0000
  C   C876      1.0  0.54723  0.73446  0.74387  1.0000
  H   H693      1.0  0.61039  0.58970  0.88974  1.0000
  S   S106      1.0  0.60249  0.61102  0.58126  1.0000
  C   C877      1.0  0.45111  0.87484  0.67210  1.0000
  H   H694      1.0  0.66635  0.81061  0.52163  1.0000
  C   C878      1.0  0.45342  0.64402  0.71775  1.0000
  C   C879      1.0  0.52643  0.85029  0.88978  1.0000
  C   C880      1.0  0.58636  0.78423  0.83000  1.0000
  C   C881      1.0  0.55085  0.87357  0.89560  1.0000
  C   C882      1.0  0.61325  0.80423  0.88054  1.0000
  C   C883      1.0  0.56420  0.58829  0.76104  1.0000
  C   C884      1.0  0.50656  0.62412  0.76180  1.0000
  H   H695      1.0  0.58964  0.86481  0.00623  1.0000
  C   C885      1.0  0.62336  0.77232  0.58477  1.0000
  H   H696      1.0  0.48072  0.66018  0.82516  1.0000
  C   C886      1.0  0.53914  0.57767  0.53790  1.0000
  H   H697      1.0  0.62850  0.85454  0.81442  1.0000
  C   C887      1.0  0.55793  0.80574  0.53063  1.0000
  H   H698      1.0  0.51597  0.87153  0.58892  1.0000
  C   C888      1.0  0.44489  0.82014  0.63853  1.0000
  H   H699      1.0  0.59259  0.58489  0.75509  1.0000
  C   C889      1.0  0.66233  0.61065  0.96717  1.0000
  C   C890      1.0  0.44373  0.57200  0.98909  1.0000
  H   H700      1.0  0.60030  0.75952  0.58995  1.0000
  H   H701      1.0  0.64473  0.70522  0.80224  1.0000
  C   C891      1.0  0.43830  0.80242  0.79937  1.0000
  C   C892      1.0  0.45750  0.67805  0.82025  1.0000
  C   C893      1.0  0.50249  0.85616  0.86458  1.0000
  C   C894      1.0  0.64670  0.77543  0.61032  1.0000
  H   H702      1.0  0.53483  0.69634  0.77851  1.0000
  H   H703      1.0  0.51115  0.61396  0.57847  1.0000
  C   C895      1.0  0.43599  0.69628  0.84810  1.0000
  C   C896      1.0  0.63006  0.78509  0.55258  1.0000
  C   C897      1.0  0.61966  0.65042  0.69028  1.0000
  Fe  Fe55      1.0  0.64811  0.57753  0.55069  1.0000
  S   S107      1.0  0.64631  0.59505  0.00535  1.0000
  H   H704      1.0  0.62415  0.56682  0.69611  1.0000
  Fe  Fe56      1.0  0.65123  0.84091  0.94568  1.0000
  S   S108      1.0  0.64674  0.61713  0.81073  1.0000
  H   H705      1.0  0.51179  0.75965  0.82374  1.0000
  C   C898      1.0  0.49374  0.71323  0.70584  1.0000
  H   H706      1.0  0.50698  0.75134  0.67109  1.0000
  S   S109      1.0  0.66596  0.83158  0.99882  1.0000
  C   C899      1.0  0.55735  0.71921  0.97769  1.0000
  C   C900      1.0  0.49117  0.59702  0.77660  1.0000
  H   H707      1.0  0.64152  0.76532  0.63502  1.0000
  C   C901      1.0  0.61908  0.83381  0.82812  1.0000
  C   C902      1.0  0.54051  0.75198  0.99310  1.0000
  C   C903      1.0  0.55279  0.83133  0.55883  1.0000
  C   C904      1.0  0.42969  0.85177  0.65738  1.0000
  H   H708      1.0  0.63287  0.74219  0.75397  1.0000
  C   C905      1.0  0.59865  0.81089  0.81205  1.0000
  C   C906      1.0  0.66086  0.72560  0.79702  1.0000
  C   C907      1.0  0.58295  0.64853  0.64252  1.0000
  C   C908      1.0  0.50234  0.69642  0.73545  1.0000
  C   C909      1.0  0.64651  0.62717  0.67093  1.0000
  C   C910      1.0  0.50546  0.75600  0.85050  1.0000
  H   H709      1.0  0.50387  0.70887  0.57041  1.0000
  H   H710      1.0  0.60130  0.57805  0.95106  1.0000
  C   C911      1.0  0.43764  0.68006  0.97563  1.0000
  H   H711      1.0  0.46563  0.86203  0.55466  1.0000
  H   H712      1.0  0.46283  0.59976  0.78208  1.0000
  H   H713      1.0  0.56734  0.67889  0.69069  1.0000
  H   H714      1.0  0.53162  0.82763  0.64456  1.0000
  C   C912      1.0  0.48583  0.78355  0.87248  1.0000
  H   H715      1.0  0.46044  0.61775  0.54158  1.0000
  Fe  Fe57      1.0  0.61823  0.85114  0.74168  1.0000
  H   H716      1.0  0.48255  0.74042  0.94570  1.0000
  H   H717      1.0  0.45430  0.62149  0.89647  1.0000
  C   C913      1.0  0.67163  0.58774  0.93739  1.0000
  H   H718      1.0  0.47659  0.70811  0.62895  1.0000
  C   C914      1.0  0.48936  0.74506  0.91926  1.0000
  H   H719      1.0  0.56965  0.86842  0.91467  1.0000
  C   C915      1.0  0.42857  0.84471  0.87755  1.0000
  C   C916      1.0  0.56548  0.71936  0.52174  1.0000
  H   H720      1.0  0.53894  0.67335  0.52243  1.0000
  C   C917      1.0  0.55233  0.68796  0.99254  1.0000
  C   C918      1.0  0.59789  0.73198  0.51665  1.0000
  C   C919      1.0  0.52977  0.80183  0.51030  1.0000
  C   C920      1.0  0.42353  0.72324  0.61530  1.0000
  P   P31       1.0  0.60044  0.77887  0.51954  1.0000
  C   C921      1.0  0.44683  0.66443  0.00561  1.0000
  H   H721      1.0  0.47046  0.64527  0.00489  1.0000
  C   C922      1.0  0.56404  0.68301  0.51887  1.0000
  C   C923      1.0  0.59495  0.65902  0.51184  1.0000
  C   C924      1.0  0.62908  0.70757  0.51072  1.0000
  H   H722      1.0  0.59337  0.63102  0.51035  1.0000
  C   C925      1.0  0.51033  0.11991  0.23390  1.0000
  H   H723      1.0  0.57399  0.91742  0.39846  1.0000
  H   H724      1.0  0.57094  0.14064  0.12759  1.0000
  H   H725      1.0  0.60660  0.15317  0.32657  1.0000
  C   C926      1.0  0.52699  0.10238  0.02548  1.0000
  H   H726      1.0  0.55721  0.89817  0.16570  1.0000
  C   C927      1.0  0.58728  0.01056  0.08309  1.0000
  C   C928      1.0  0.59908  0.09878  0.09194  1.0000
  H   H727      1.0  0.49371  0.03264  0.17678  1.0000
  H   H728      1.0  0.57137  0.91446  0.46138  1.0000
  H   H729      1.0  0.45222  0.20934  0.18632  1.0000
  H   H730      1.0  0.66583  0.13625  0.29594  1.0000
  C   C929      1.0  0.45621  0.09404  0.23398  1.0000
  C   C930      1.0  0.47285  0.09983  0.47110  1.0000
  S   S110      1.0  0.61087  0.91617  0.05347  1.0000
  H   H731      1.0  0.62495  0.96189  0.31011  1.0000
  C   C931      1.0  0.42846  0.90264  0.33174  1.0000
  C   C932      1.0  0.62981  0.95685  0.41320  1.0000
  C   C933      1.0  0.59711  0.96127  0.31630  1.0000
  H   H732      1.0  0.64616  0.90354  0.39028  1.0000
  H   H733      1.0  0.53366  0.12512  0.24606  1.0000
  H   H734      1.0  0.59286  0.07137  0.16652  1.0000
  C   C934      1.0  0.59199  0.13352  0.10721  1.0000
  C   C935      1.0  0.63396  0.99258  0.41221  1.0000
  S   S111      1.0  0.43408  0.10489  0.06060  1.0000
  H   H735      1.0  0.64196  0.09300  0.45584  1.0000
  Fe  Fe58      1.0  0.44894  0.07165  0.31885  1.0000
  H   H736      1.0  0.58093  0.09926  0.46812  1.0000
  S   S112      1.0  0.65949  0.15839  0.43783  1.0000
  H   H737      1.0  0.55773  0.11992  0.31166  1.0000
  P   P32       1.0  0.61149  0.02613  0.44408  1.0000
  C   C936      1.0  0.47631  0.13580  0.47246  1.0000
  C   C937      1.0  0.53685  0.99110  0.32319  1.0000
  S   S113      1.0  0.42976  0.00198  0.03916  1.0000
  C   C938      1.0  0.64303  0.96496  0.22549  1.0000
  C   C939      1.0  0.57895  0.88917  0.14654  1.0000
  C   C940      1.0  0.43558  0.95761  0.46617  1.0000
  S   S114      1.0  0.47118  0.13558  0.14295  1.0000
  C   C941      1.0  0.42716  0.98729  0.44793  1.0000
  Fe  Fe59      1.0  0.42760  0.11267  0.11803  1.0000
  H   H738      1.0  0.58392  0.02896  0.37651  1.0000
  P   P33       1.0  0.49474  0.19856  0.50336  1.0000
  C   C942      1.0  0.42660  0.88291  0.30064  1.0000
  H   H739      1.0  0.46200  0.91843  0.36966  1.0000
  C   C943      1.0  0.49217  0.88515  0.32788  1.0000
  H   H740      1.0  0.56257  0.15262  0.50681  1.0000
  C   C944      1.0  0.65818  0.00220  0.38745  1.0000
  C   C945      1.0  0.57649  0.05466  0.17909  1.0000
  H   H741      1.0  0.49730  0.96003  0.33907  1.0000
  H   H742      1.0  0.52604  0.88461  0.49069  1.0000
  C   C946      1.0  0.48678  0.10001  0.24961  1.0000
  H   H743      1.0  0.44379  0.21269  0.45237  1.0000
  H   H744      1.0  0.44360  0.93179  0.45248  1.0000
  H   H745      1.0  0.46893  0.15036  0.45084  1.0000
  C   C947      1.0  0.43565  0.96153  0.50193  1.0000
  S   S115      1.0  0.43163  0.98178  0.40312  1.0000
  H   H746      1.0  0.56875  0.06933  0.26820  1.0000
  C   C948      1.0  0.48192  0.07999  0.49847  1.0000
  C   C949      1.0  0.56568  0.01403  0.22189  1.0000
  S   S116      1.0  0.63932  0.91845  0.49255  1.0000
  C   C950      1.0  0.52988  0.88907  0.39153  1.0000
  H   H747      1.0  0.56948  0.02094  0.06489  1.0000
  C   C951      1.0  0.48915  0.15220  0.50131  1.0000
  C   C952      1.0  0.59678  0.97862  0.13345  1.0000
  H   H748      1.0  0.64936  0.97332  0.14972  1.0000
  C   C953      1.0  0.61122  0.13122  0.30690  1.0000
  H   H749      1.0  0.58469  0.19416  0.21491  1.0000
  H   H750      1.0  0.50248  0.97420  0.46509  1.0000
  C   C954      1.0  0.65093  0.09316  0.26444  1.0000
  H   H751      1.0  0.66645  0.10881  0.03365  1.0000
  C   C955      1.0  0.46103  0.90348  0.34538  1.0000
  H   H752      1.0  0.55640  0.92041  0.10787  1.0000
  C   C956      1.0  0.50424  0.13243  0.20188  1.0000
  H   H753      1.0  0.53313  0.06951  0.14835  1.0000
  C   C957      1.0  0.66636  0.20137  0.16955  1.0000
  H   H754      1.0  0.57353  0.99948  0.24339  1.0000
  C   C958      1.0  0.52028  0.03272  0.18450  1.0000
  H   H755      1.0  0.42748  0.10039  0.18890  1.0000
  C   C959      1.0  0.62368  0.07396  0.25614  1.0000
  H   H756      1.0  0.44705  0.20028  0.27125  1.0000
  H   H757      1.0  0.55024  0.99259  0.42852  1.0000
  C   C960      1.0  0.63906  0.14974  0.07006  1.0000
  C   C961      1.0  0.66208  0.05024  0.18916  1.0000
  C   C962      1.0  0.57274  0.99181  0.31498  1.0000
  C   C963      1.0  0.64630  0.03869  0.46902  1.0000
  C   C964      1.0  0.45040  0.10613  0.20157  1.0000
  C   C965      1.0  0.57634  0.05467  0.39045  1.0000
  H   H758      1.0  0.55626  0.20277  0.27416  1.0000
  H   H759      1.0  0.60497  0.90658  0.32664  1.0000
  C   C966      1.0  0.57479  0.09425  0.44184  1.0000
  C   C967      1.0  0.54945  0.92872  0.33325  1.0000
  H   H760      1.0  0.66214  0.02959  0.38702  1.0000
  H   H761      1.0  0.52667  0.13405  0.38187  1.0000
  C   C968      1.0  0.53182  0.01299  0.21120  1.0000
  C   C969      1.0  0.51790  0.06823  0.02394  1.0000
  C   C970      1.0  0.55076  0.99576  0.45620  1.0000
  C   C971      1.0  0.54367  0.11390  0.39340  1.0000
  C   C972      1.0  0.55385  0.90461  0.41096  1.0000
  H   H762      1.0  0.54535  0.07491  0.35050  1.0000
  C   C973      1.0  0.62275  0.01605  0.08067  1.0000
  C   C974      1.0  0.58559  0.92986  0.32552  1.0000
  H   H763      1.0  0.65484  0.16944  0.06193  1.0000
  H   H764      1.0  0.58672  0.96415  0.15381  1.0000
  H   H765      1.0  0.60751  0.98307  0.01792  1.0000
  H   H766      1.0  0.66045  0.98580  0.48462  1.0000
  C   C975      1.0  0.62669  0.08903  0.06589  1.0000
  H   H767      1.0  0.63575  0.10421  0.18853  1.0000
  C   C976      1.0  0.65782  0.08458  0.17808  1.0000
  C   C977      1.0  0.61236  0.15887  0.09663  1.0000
  S   S117      1.0  0.66307  0.17881  0.20655  1.0000
  C   C978      1.0  0.63206  0.98393  0.13123  1.0000
  C   C979      1.0  0.47495  0.12452  0.18520  1.0000
  P   P34       1.0  0.53431  0.88822  0.34521  1.0000
  C   C980      1.0  0.57859  0.90186  0.11391  1.0000
  P   P35       1.0  0.63850  0.04317  0.04880  1.0000
  H   H768      1.0  0.51411  0.99770  0.22433  1.0000
  H   H769      1.0  0.51789  0.01482  0.32229  1.0000
  H   H770      1.0  0.46283  0.08732  0.44890  1.0000
  C   C981      1.0  0.52341  0.98559  0.47689  1.0000
  C   C982      1.0  0.54257  0.05358  0.16851  1.0000
  C   C983      1.0  0.55411  0.12075  0.42639  1.0000
  C   C984      1.0  0.58852  0.03467  0.20577  1.0000
  S   S118      1.0  0.49708  0.08108  0.28768  1.0000
  C   C985      1.0  0.57441  0.99183  0.10932  1.0000
  H   H771      1.0  0.43790  0.07876  0.24612  1.0000
  S   S119      1.0  0.45537  0.07462  0.37518  1.0000
  C   C986      1.0  0.55445  0.08070  0.37560  1.0000
  H   H772      1.0  0.47908  0.05220  0.49731  1.0000
  C   C987      1.0  0.64924  0.93117  0.38925  1.0000
  H   H773      1.0  0.54710  0.98739  0.11088  1.0000
  C   C988      1.0  0.59027  0.08353  0.27392  1.0000
  C   C989      1.0  0.66382  0.10854  0.38326  1.0000
  C   C990      1.0  0.55246  0.90289  0.44657  1.0000
  C   C991      1.0  0.60780  0.89244  0.08992  1.0000
  C   C992      1.0  0.58707  0.06140  0.42354  1.0000
  H   H774      1.0  0.54556  0.14634  0.44027  1.0000
  C   C993      1.0  0.65529  0.07302  0.47024  1.0000
  H   H775      1.0  0.52309  0.14685  0.18936  1.0000
  C   C994      1.0  0.52522  0.95977  0.33248  1.0000
  H   H776      1.0  0.61243  0.94864  0.43297  1.0000
  C   C995      1.0  0.58396  0.11225  0.29888  1.0000
  C   C996      1.0  0.64573  0.11522  0.05424  1.0000
  H   H777      1.0  0.62344  0.96307  0.20719  1.0000
  H   H778      1.0  0.60752  0.18559  0.10901  1.0000
  C   C997      1.0  0.57837  0.01007  0.47116  1.0000
  C   C998      1.0  0.57763  0.01507  0.50711  1.0000
  H   H779      1.0  0.58316  0.07972  0.10106  1.0000
  C   C999      1.0  0.65072  0.99805  0.23853  1.0000
  H   H780      1.0  0.63867  0.10259  0.39357  1.0000
  C   C1000     1.0  0.64504  0.00269  0.10504  1.0000
  H   H781      1.0  0.58166  0.01610  0.30778  1.0000
  P   P36       1.0  0.63108  0.03857  0.22196  1.0000
  H   H782      1.0  0.51649  0.05432  0.04701  1.0000
  H   H783      1.0  0.53325  0.11470  0.04967  1.0000
  C   C1001     1.0  0.64462  0.12172  0.28958  1.0000
  C   C1002     1.0  0.55853  0.20941  0.22007  1.0000
  H   H784      1.0  0.65484  0.90817  0.22559  1.0000
  C   C1003     1.0  0.66116  0.93357  0.23553  1.0000
  H   H785      1.0  0.66963  0.06757  0.34143  1.0000
  C   C1004     1.0  0.66614  0.01278  0.48618  1.0000
  C   C1005     1.0  0.52694  0.88593  0.46310  1.0000
  H   H786      1.0  0.67237  0.00682  0.10403  1.0000
  H   H787      1.0  0.47562  0.20824  0.03921  1.0000
  C   C1006     1.0  0.50147  0.89398  0.01210  1.0000
  Fe  Fe60      1.0  0.64864  0.88980  0.01004  1.0000
  C   C1007     1.0  0.62135  0.91133  0.53338  1.0000
  H   H788      1.0  0.50665  0.14428  0.55199  1.0000
  H   H789      1.0  0.51948  0.02168  0.71816  1.0000
  H   H790      1.0  0.53326  0.96343  0.74176  1.0000
  C   C1008     1.0  0.45339  0.05865  0.77498  1.0000
  H   H791      1.0  0.66334  0.91081  0.87609  1.0000
  H   H792      1.0  0.44256  0.17431  0.99972  1.0000
  C   C1009     1.0  0.42687  0.08863  0.72868  1.0000
  C   C1010     1.0  0.64704  0.07423  0.69989  1.0000
  H   H793      1.0  0.56867  0.93055  0.52169  1.0000
  H   H794      1.0  0.56393  0.19352  0.95470  1.0000
  C   C1011     1.0  0.58510  0.92100  0.54120  1.0000
  H   H795      1.0  0.44493  0.11103  0.95797  1.0000
  C   C1012     1.0  0.66489  0.17439  0.90193  1.0000
  C   C1013     1.0  0.46004  0.94278  0.93691  1.0000
  C   C1014     1.0  0.55016  0.00493  0.52770  1.0000
  C   C1015     1.0  0.48980  0.94198  0.72026  1.0000
  C   C1016     1.0  0.60254  0.03577  0.70761  1.0000
  C   C1017     1.0  0.62329  0.05350  0.68575  1.0000
  H   H796      1.0  0.49653  0.08310  0.61491  1.0000
  C   C1018     1.0  0.50362  0.19236  0.73637  1.0000
  C   C1019     1.0  0.55195  0.90259  0.87608  1.0000
  H   H797      1.0  0.48426  0.89178  0.82686  1.0000
  H   H798      1.0  0.66394  0.19628  0.85297  1.0000
  H   H799      1.0  0.46436  0.05438  0.85733  1.0000
  C   C1020     1.0  0.45020  0.07560  0.87491  1.0000
  H   H800      1.0  0.63480  0.08292  0.98796  1.0000
  H   H801      1.0  0.54193  0.92680  0.58013  1.0000
  C   C1021     1.0  0.64243  0.89765  0.55842  1.0000
  H   H802      1.0  0.52754  0.97279  0.62713  1.0000
  H   H803      1.0  0.61584  0.17869  0.64409  1.0000
  C   C1022     1.0  0.53771  0.89452  0.00601  1.0000
  H   H804      1.0  0.50070  0.08059  0.54879  1.0000
  H   H805      1.0  0.43703  0.89958  0.87577  1.0000
  C   C1023     1.0  0.65033  0.99532  0.58933  1.0000
  C   C1024     1.0  0.57724  0.04011  0.63054  1.0000
  C   C1025     1.0  0.59381  0.18237  0.53776  1.0000
  C   C1026     1.0  0.51731  0.10558  0.96528  1.0000
  C   C1027     1.0  0.61660  0.14235  0.91700  1.0000
  C   C1028     1.0  0.47955  0.13965  0.82648  1.0000
  H   H806      1.0  0.48288  0.11614  0.80877  1.0000
  H   H807      1.0  0.51423  0.92500  0.94486  1.0000
  P   P37       1.0  0.49552  0.05159  0.92346  1.0000
  C   C1029     1.0  0.50335  0.00112  0.71310  1.0000
  H   H808      1.0  0.44241  0.18255  0.55702  1.0000
  C   C1030     1.0  0.65819  0.93695  0.82929  1.0000
  C   C1031     1.0  0.50437  0.16619  0.70903  1.0000
  H   H809      1.0  0.48947  0.17136  0.68701  1.0000
  C   C1032     1.0  0.61892  0.04834  0.94837  1.0000
  H   H810      1.0  0.55674  0.09483  0.62401  1.0000
  C   C1033     1.0  0.50012  0.14083  0.85441  1.0000
  C   C1034     1.0  0.65427  0.01283  0.62131  1.0000
  H   H811      1.0  0.42597  0.02655  0.92257  1.0000
  C   C1035     1.0  0.62079  0.03502  0.00796  1.0000
  H   H812      1.0  0.52016  0.20304  0.78743  1.0000
  H   H813      1.0  0.48194  0.02197  0.61514  1.0000
  H   H814      1.0  0.62463  0.06517  0.92831  1.0000
  H   H815      1.0  0.50542  0.88317  0.67724  1.0000
  C   C1036     1.0  0.51684  0.06143  0.61891  1.0000
  H   H816      1.0  0.60438  0.00742  0.91358  1.0000
  C   C1037     1.0  0.48114  0.00936  0.92966  1.0000
  C   C1038     1.0  0.43552  0.97142  0.93006  1.0000
  C   C1039     1.0  0.45969  0.08081  0.90868  1.0000
  C   C1040     1.0  0.49417  0.09609  0.52748  1.0000
  C   C1041     1.0  0.47414  0.00783  0.69407  1.0000
  C   C1042     1.0  0.49523  0.94723  0.93972  1.0000
  C   C1043     1.0  0.54082  0.15021  0.76634  1.0000
  C   C1044     1.0  0.43701  0.21033  0.55280  1.0000
  H   H817      1.0  0.55703  0.09880  0.73964  1.0000
  Fe  Fe61      1.0  0.63912  0.19357  0.78503  1.0000
  H   H818      1.0  0.47518  0.05351  0.79084  1.0000
  H   H819      1.0  0.42676  0.18995  0.71398  1.0000
  H   H820      1.0  0.49560  0.91702  0.73158  1.0000
  C   C1045     1.0  0.43957  0.10745  0.93127  1.0000
  C   C1046     1.0  0.52771  0.90911  0.85151  1.0000
  H   H821      1.0  0.42473  0.93438  0.62575  1.0000
  H   H822      1.0  0.59337  0.96818  0.95915  1.0000
  C   C1047     1.0  0.62729  0.89535  0.59177  1.0000
  H   H823      1.0  0.62634  0.00117  0.57655  1.0000
  C   C1048     1.0  0.53154  0.01584  0.86383  1.0000
  S   S120      1.0  0.59129  0.90541  0.73476  1.0000
  S   S121      1.0  0.43079  0.99958  0.56373  1.0000
  H   H824      1.0  0.52384  0.11255  0.68915  1.0000
  C   C1049     1.0  0.56854  0.00565  0.63118  1.0000
  H   H825      1.0  0.47765  0.09559  0.74575  1.0000
  H   H826      1.0  0.53255  0.14795  0.99759  1.0000
  S   S122      1.0  0.57151  0.90517  0.64125  1.0000
  C   C1050     1.0  0.50890  0.07090  0.96326  1.0000
  S   S123      1.0  0.66174  0.91458  0.68499  1.0000
  C   C1051     1.0  0.52313  0.99007  0.51264  1.0000
  C   C1052     1.0  0.57657  0.21129  0.97087  1.0000
  C   C1053     1.0  0.52658  0.12109  0.99616  1.0000
  H   H827      1.0  0.59801  0.02686  0.51943  1.0000
  C   C1054     1.0  0.47162  0.20085  0.87208  1.0000
  C   C1055     1.0  0.50287  0.88624  0.84601  1.0000
  H   H828      1.0  0.58617  0.17451  0.00957  1.0000
  H   H829      1.0  0.58531  0.01824  0.69744  1.0000
  C   C1056     1.0  0.42642  0.99502  0.51959  1.0000
  S   S124      1.0  0.65160  0.97216  0.77078  1.0000
  H   H830      1.0  0.55446  0.14356  0.78874  1.0000
  H   H831      1.0  0.53330  0.98329  0.93765  1.0000
  H   H832      1.0  0.55996  0.98696  0.81849  1.0000
  C   C1057     1.0  0.49617  0.17125  0.87722  1.0000
  H   H833      1.0  0.51033  0.99988  0.86331  1.0000
  C   C1058     1.0  0.62711  0.06185  0.75707  1.0000
  S   S125      1.0  0.43031  0.11604  0.69515  1.0000
  H   H834      1.0  0.55943  0.08537  0.90834  1.0000
  C   C1059     1.0  0.55937  0.00858  0.83817  1.0000
  H   H835      1.0  0.57712  0.14161  0.88064  1.0000
  Fe  Fe62      1.0  0.64418  0.92193  0.74119  1.0000
  H   H836      1.0  0.60339  0.12743  0.93498  1.0000
  C   C1060     1.0  0.55108  0.06797  0.62431  1.0000
  H   H837      1.0  0.50216  0.98177  0.52872  1.0000
  C   C1061     1.0  0.50883  0.05253  0.99307  1.0000
  C   C1062     1.0  0.51109  0.96828  0.72632  1.0000
  C   C1063     1.0  0.65053  0.18156  0.87088  1.0000
  H   H838      1.0  0.42974  0.98822  0.67417  1.0000
  P   P38       1.0  0.43077  0.91577  0.69619  1.0000
  H   H839      1.0  0.59806  0.12341  0.66349  1.0000
  C   C1064     1.0  0.61608  0.12212  0.64069  1.0000
  C   C1065     1.0  0.58671  0.02904  0.83792  1.0000
  H   H840      1.0  0.57170  0.91985  0.87990  1.0000
  C   C1066     1.0  0.61894  0.16964  0.86323  1.0000
  C   C1067     1.0  0.60909  0.00250  0.99935  1.0000
  H   H841      1.0  0.52841  0.93161  0.83638  1.0000
  H   H842      1.0  0.46754  0.03362  0.68455  1.0000
  C   C1068     1.0  0.53427  0.99928  0.62576  1.0000
  C   C1069     1.0  0.46058  0.94834  0.70069  1.0000
  C   C1070     1.0  0.50587  0.98028  0.93578  1.0000
  H   H843      1.0  0.60760  0.07281  0.86253  1.0000
  C   C1071     1.0  0.60417  0.04029  0.74316  1.0000
  C   C1072     1.0  0.55866  0.06410  0.88893  1.0000
  C   C1073     1.0  0.45470  0.08258  0.74968  1.0000
  C   C1074     1.0  0.45129  0.19955  0.84367  1.0000
  C   C1075     1.0  0.44581  0.00470  0.92695  1.0000
  C   C1076     1.0  0.45279  0.98170  0.68796  1.0000
  C   C1077     1.0  0.60166  0.15058  0.88653  1.0000
  C   C1078     1.0  0.58622  0.05703  0.86295  1.0000
  H   H844      1.0  0.45166  0.91728  0.94034  1.0000
  C   C1079     1.0  0.66777  0.93394  0.86301  1.0000
  H   H845      1.0  0.50064  0.02659  0.99318  1.0000
  C   C1080     1.0  0.50851  0.02706  0.61930  1.0000
  C   C1081     1.0  0.42365  0.04178  0.78010  1.0000
  S   S126      1.0  0.62989  0.89823  0.95806  1.0000
  H   H846      1.0  0.55013  0.00806  0.55535  1.0000
  H   H847      1.0  0.62876  0.06516  0.78455  1.0000
  C   C1082     1.0  0.54231  0.12482  0.73862  1.0000
  H   H848      1.0  0.43963  0.16804  0.79900  1.0000
  S   S127      1.0  0.60067  0.17789  0.82462  1.0000
  H   H849      1.0  0.44070  0.18796  0.93910  1.0000
  C   C1083     1.0  0.63031  0.08930  0.62303  1.0000
  H   H850      1.0  0.64360  0.88533  0.61131  1.0000
  H   H851      1.0  0.58802  0.98369  0.63644  1.0000
  C   C1084     1.0  0.62488  0.05821  0.98231  1.0000
  C   C1085     1.0  0.45511  0.16894  0.82109  1.0000
  C   C1086     1.0  0.49757  0.13210  0.52906  1.0000
  C   C1087     1.0  0.45684  0.19467  0.99016  1.0000
  H   H852      1.0  0.58828  0.02628  0.75984  1.0000
  C   C1088     1.0  0.58857  0.20077  0.00194  1.0000
  H   H853      1.0  0.51282  0.17200  0.89838  1.0000
  C   C1089     1.0  0.52135  0.18386  0.76544  1.0000
  Fe  Fe63      1.0  0.61107  0.89241  0.67955  1.0000
  C   C1090     1.0  0.45577  0.20245  0.95589  1.0000
  C   C1091     1.0  0.65059  0.15230  0.60146  1.0000
  H   H854      1.0  0.51940  0.11824  0.85805  1.0000
  C   C1092     1.0  0.52391  0.13269  0.71006  1.0000
  C   C1093     1.0  0.53122  0.04335  0.88983  1.0000
  H   H855      1.0  0.51572  0.12105  0.94324  1.0000
  C   C1094     1.0  0.59109  0.90634  0.59974  1.0000
  C   C1095     1.0  0.62620  0.15350  0.62988  1.0000
  P   P39       1.0  0.62098  0.04853  0.63982  1.0000
  C   C1096     1.0  0.56999  0.91871  0.57428  1.0000
  C   C1097     1.0  0.60176  0.99346  0.96569  1.0000
  C   C1098     1.0  0.60756  0.01587  0.94004  1.0000
  H   H856      1.0  0.60844  0.02299  0.81840  1.0000
  S   S128      1.0  0.63687  0.17172  0.73083  1.0000
  C   C1099     1.0  0.53422  0.20462  0.52436  1.0000
  H   H857      1.0  0.65954  0.17632  0.59379  1.0000
  C   C1100     1.0  0.64827  0.15414  0.92459  1.0000
  H   H858      1.0  0.66440  0.08711  0.68354  1.0000
  H   H859      1.0  0.61617  0.16137  0.53543  1.0000
  C   C1101     1.0  0.64878  0.07846  0.73541  1.0000
  C   C1102     1.0  0.66408  0.11997  0.58322  1.0000
  C   C1103     1.0  0.65404  0.08855  0.59388  1.0000
  H   H860      1.0  0.42800  0.95491  0.76431  1.0000
  H   H861      1.0  0.64585  0.91642  0.81661  1.0000
  C   C1104     1.0  0.56328  0.17746  0.52161  1.0000
  H   H862      1.0  0.44372  0.93871  0.51582  1.0000
  H   H863      1.0  0.66583  0.06382  0.57990  1.0000
  H   H864      1.0  0.54744  0.91849  0.99900  1.0000
  C   C1105     1.0  0.66413  0.96681  0.81236  1.0000
  H   H865      1.0  0.66708  0.09459  0.74610  1.0000
  H   H866      1.0  0.67043  0.88983  0.55249  1.0000
  S   S129      1.0  0.66720  0.14249  0.96201  1.0000
  H   H867      1.0  0.48287  0.91767  0.00977  1.0000
  H   H868      1.0  0.75679  0.39339  0.29140  1.0000
  S   S130      1.0  0.71992  0.23307  0.46333  1.0000
  H   H869      1.0  0.72740  0.44010  0.47471  1.0000
  C   C1106     1.0  0.89401  0.43806  0.37128  1.0000
  C   C1107     1.0  0.69322  0.36301  0.46346  1.0000
  S   S131      1.0  0.80511  0.44179  0.18559  1.0000
  H   H870      1.0  0.84048  0.29793  0.01077  1.0000
  C   C1108     1.0  0.88954  0.25659  0.17564  1.0000
  C   C1109     1.0  0.71517  0.34224  0.48373  1.0000
  C   C1110     1.0  0.83956  0.23718  0.37214  1.0000
  H   H871      1.0  0.73488  0.32820  0.12078  1.0000
  C   C1111     1.0  0.90083  0.27006  0.04136  1.0000
  C   C1112     1.0  0.68184  0.38520  0.18866  1.0000
  H   H872      1.0  0.82037  0.30017  0.46442  1.0000
  C   C1113     1.0  0.72457  0.27875  0.25056  1.0000
  H   H873      1.0  0.74895  0.31703  0.31062  1.0000
  H   H874      1.0  0.85655  0.54526  0.28338  1.0000
  C   C1114     1.0  0.87356  0.51314  0.23575  1.0000
  H   H875      1.0  0.78309  0.46569  0.45423  1.0000
  H   H876      1.0  0.71267  0.31463  0.48590  1.0000
  C   C1115     1.0  0.78421  0.45655  0.07406  1.0000
  H   H877      1.0  0.89788  0.35763  0.12484  1.0000
  C   C1116     1.0  0.74200  0.30392  0.36288  1.0000
  C   C1117     1.0  0.67576  0.25152  0.27367  1.0000
  C   C1118     1.0  0.81566  0.53591  0.13680  1.0000
  S   S132      1.0  0.68006  0.51476  0.05581  1.0000
  P   P40       1.0  0.72258  0.31952  0.19441  1.0000
  S   S133      1.0  0.70683  0.46698  0.22873  1.0000
  H   H878      1.0  0.74948  0.37618  0.03664  1.0000
  H   H879      1.0  0.79712  0.51821  0.13021  1.0000
  C   C1119     1.0  0.86991  0.35715  0.33568  1.0000
  C   C1120     1.0  0.74612  0.29089  0.15906  1.0000
  C   C1121     1.0  0.75645  0.46456  0.09984  1.0000
  H   H880      1.0  0.88493  0.30822  0.24388  1.0000
  H   H881      1.0  0.87906  0.42312  0.22667  1.0000
  H   H882      1.0  0.86163  0.24697  0.38329  1.0000
  C   C1122     1.0  0.79296  0.33471  0.02100  1.0000
  C   C1123     1.0  0.80383  0.53920  0.50511  1.0000
  C   C1124     1.0  0.83566  0.53036  0.16496  1.0000
  C   C1125     1.0  0.74200  0.36176  0.24859  1.0000
  S   S134      1.0  0.75198  0.53345  0.22420  1.0000
  C   C1126     1.0  0.71039  0.25856  0.27488  1.0000
  C   C1127     1.0  0.88238  0.24167  0.03344  1.0000
  C   C1128     1.0  0.87443  0.36869  0.50598  1.0000
  C   C1129     1.0  0.67897  0.48149  0.37332  1.0000
  C   C1130     1.0  0.76256  0.45962  0.13422  1.0000
  H   H883      1.0  0.82765  0.29732  0.12852  1.0000
  H   H884      1.0  0.72660  0.24776  0.29426  1.0000
  C   C1131     1.0  0.78664  0.34544  0.20114  1.0000
  H   H885      1.0  0.76655  0.28584  0.36131  1.0000
  H   H886      1.0  0.71539  0.36212  0.25984  1.0000
  S   S135      1.0  0.77709  0.46223  0.03091  1.0000
  C   C1132     1.0  0.68880  0.33372  0.39607  1.0000
  H   H887      1.0  0.79492  0.33335  0.17557  1.0000
  H   H888      1.0  0.83955  0.43653  0.06290  1.0000
  C   C1133     1.0  0.86820  0.34073  0.40644  1.0000
  C   C1134     1.0  0.81598  0.34942  0.08588  1.0000
  H   H889      1.0  0.73033  0.47456  0.09332  1.0000
  H   H890      1.0  0.89187  0.24411  0.19952  1.0000
  C   C1135     1.0  0.80773  0.53776  0.46927  1.0000
  C   C1136     1.0  0.90408  0.34448  0.28029  1.0000
  C   C1137     1.0  0.79961  0.37999  0.25178  1.0000
  Fe  Fe64      1.0  0.69538  0.52618  0.23559  1.0000
  C   C1138     1.0  0.78423  0.24706  0.10434  1.0000
  C   C1139     1.0  0.83646  0.32354  0.06260  1.0000
  H   H891      1.0  0.76453  0.24907  0.19039  1.0000
  C   C1140     1.0  0.72039  0.30980  0.39359  1.0000
  C   C1141     1.0  0.74131  0.35677  0.50077  1.0000
  H   H892      1.0  0.76715  0.28940  0.07314  1.0000
  H   H893      1.0  0.87392  0.44417  0.35367  1.0000
  C   C1142     1.0  0.75256  0.34423  0.21601  1.0000
  H   H894      1.0  0.85016  0.42845  0.12372  1.0000
  H   H895      1.0  0.85886  0.43352  0.28868  1.0000
  C   C1143     1.0  0.68770  0.34888  0.17816  1.0000
  C   C1144     1.0  0.84973  0.50986  0.02578  1.0000
  H   H896      1.0  0.83324  0.27063  0.18372  1.0000
  Fe  Fe65      1.0  0.72022  0.47752  0.02161  1.0000
  C   C1145     1.0  0.86200  0.51877  0.27075  1.0000
  S   S136      1.0  0.80504  0.22559  0.27772  1.0000
  P   P41       1.0  0.88056  0.30597  0.07200  1.0000
  C   C1146     1.0  0.78341  0.23590  0.13748  1.0000
  H   H897      1.0  0.74328  0.53497  0.35717  1.0000
  C   C1147     1.0  0.79643  0.44669  0.14278  1.0000
  C   C1148     1.0  0.67909  0.35144  0.36744  1.0000
  H   H898      1.0  0.69801  0.39639  0.20674  1.0000
  H   H899      1.0  0.91847  0.41531  0.12091  1.0000
  H   H900      1.0  0.85545  0.24208  0.04404  1.0000
  C   C1149     1.0  0.85653  0.27166  0.16670  1.0000
  C   C1150     1.0  0.76660  0.28039  0.09864  1.0000
  H   H901      1.0  0.83146  0.50871  0.18022  1.0000
  C   C1151     1.0  0.76267  0.45616  0.40510  1.0000
  C   C1152     1.0  0.69817  0.39825  0.45999  1.0000
  Fe  Fe66      1.0  0.76370  0.47420  0.22303  1.0000
  C   C1153     1.0  0.81486  0.22286  0.39279  1.0000
  H   H902      1.0  0.91103  0.40232  0.48839  1.0000
  H   H903      1.0  0.72862  0.29606  0.41557  1.0000
  H   H904      1.0  0.83933  0.51490  0.42339  1.0000
  Fe  Fe67      1.0  0.75508  0.53141  0.28103  1.0000
  C   C1154     1.0  0.92208  0.39959  0.41095  1.0000
  C   C1155     1.0  0.89664  0.40620  0.38720  1.0000
  C   C1156     1.0  0.70395  0.29275  0.22516  1.0000
  S   S137      1.0  0.71966  0.51855  0.48895  1.0000
  H   H905      1.0  0.87765  0.26063  0.46243  1.0000
  C   C1157     1.0  0.82305  0.40562  0.38969  1.0000
  H   H906      1.0  0.74888  0.44094  0.35427  1.0000
  H   H907      1.0  0.88867  0.47369  0.19307  1.0000
  C   C1158     1.0  0.85869  0.49905  0.50512  1.0000
  C   C1159     1.0  0.88022  0.47840  0.22016  1.0000
  H   H908      1.0  0.75181  0.28302  0.25145  1.0000
  H   H909      1.0  0.83397  0.29896  0.28316  1.0000
  C   C1160     1.0  0.79827  0.41145  0.36527  1.0000
  H   H910      1.0  0.76871  0.38756  0.09485  1.0000
  C   C1161     1.0  0.82406  0.43836  0.11701  1.0000
  C   C1162     1.0  0.87506  0.44974  0.23922  1.0000
  C   C1163     1.0  0.81715  0.42505  0.42195  1.0000
  C   C1164     1.0  0.83662  0.51633  0.45120  1.0000
  C   C1165     1.0  0.69069  0.33604  0.01346  1.0000
  H   H911      1.0  0.69252  0.35887  0.31470  1.0000
  C   C1166     1.0  0.70044  0.34502  0.33659  1.0000
  C   C1167     1.0  0.76545  0.37949  0.26647  1.0000
  C   C1168     1.0  0.74608  0.39193  0.49719  1.0000
  C   C1169     1.0  0.83603  0.23848  0.33690  1.0000
  H   H912      1.0  0.81404  0.35122  0.42923  1.0000
  C   C1170     1.0  0.87399  0.51938  0.04833  1.0000
  H   H913      1.0  0.80231  0.39733  0.34005  1.0000
  H   H914      1.0  0.82500  0.32888  0.34186  1.0000
  H   H915      1.0  0.81758  0.39430  0.26525  1.0000
  C   C1171     1.0  0.74799  0.30238  0.12587  1.0000
  C   C1172     1.0  0.90222  0.34467  0.06981  1.0000
  P   P42       1.0  0.86441  0.37694  0.37945  1.0000
  S   S138      1.0  0.69749  0.52969  0.29261  1.0000
  C   C1173     1.0  0.85183  0.31694  0.29147  1.0000
  S   S139      1.0  0.77089  0.47269  0.27928  1.0000
  S   S140      1.0  0.68468  0.43490  0.31549  1.0000
  H   H916      1.0  0.69312  0.36518  0.06237  1.0000
  C   C1174     1.0  0.81019  0.36298  0.21913  1.0000
  H   H917      1.0  0.74118  0.46572  0.15411  1.0000
  C   C1175     1.0  0.87496  0.28322  0.44709  1.0000
  C   C1176     1.0  0.82471  0.31644  0.02995  1.0000
  C   C1177     1.0  0.72427  0.41271  0.47707  1.0000
  H   H918      1.0  0.84663  0.49511  0.31650  1.0000
  C   C1178     1.0  0.88368  0.28849  0.11348  1.0000
  C   C1179     1.0  0.83935  0.33448  0.42816  1.0000
  H   H919      1.0  0.68221  0.41441  0.44364  1.0000
  C   C1180     1.0  0.67618  0.35593  0.04378  1.0000
  C   C1181     1.0  0.78717  0.45034  0.42951  1.0000
  C   C1182     1.0  0.76802  0.43649  0.37315  1.0000
  H   H920      1.0  0.79866  0.22989  0.08324  1.0000
  C   C1183     1.0  0.86352  0.45560  0.27409  1.0000
  H   H921      1.0  0.67409  0.46623  0.11694  1.0000
  C   C1184     1.0  0.84279  0.30569  0.44834  1.0000
  H   H922      1.0  0.70116  0.49225  0.36186  1.0000
  H   H923      1.0  0.82523  0.35685  0.11052  1.0000
  C   C1185     1.0  0.76456  0.25782  0.16480  1.0000
  C   C1186     1.0  0.88051  0.32211  0.26932  1.0000
  Fe  Fe68      1.0  0.71274  0.47110  0.28510  1.0000
  H   H924      1.0  0.91790  0.37850  0.32144  1.0000
  H   H925      1.0  0.67916  0.51046  0.42282  1.0000
  H   H926      1.0  0.85547  0.24910  0.32100  1.0000
  C   C1187     1.0  0.89885  0.36198  0.31332  1.0000
  H   H927      1.0  0.73969  0.47610  0.41097  1.0000
  C   C1188     1.0  0.85684  0.49016  0.28981  1.0000
  C   C1189     1.0  0.81805  0.44334  0.08271  1.0000
  C   C1190     1.0  0.73207  0.32156  0.33435  1.0000
  C   C1191     1.0  0.91957  0.25724  0.15355  1.0000
  C   C1192     1.0  0.86164  0.49644  0.46902  1.0000
  C   C1193     1.0  0.78413  0.36736  0.07691  1.0000
  H   H928      1.0  0.88733  0.49976  0.06337  1.0000
  C   C1194     1.0  0.90542  0.36587  0.09984  1.0000
  H   H929      1.0  0.68907  0.50380  0.16649  1.0000
  C   C1195     1.0  0.80827  0.22469  0.32203  1.0000
  C   C1196     1.0  0.84672  0.33410  0.32464  1.0000
  H   H930      1.0  0.88331  0.47912  0.45468  1.0000
  H   H931      1.0  0.83614  0.42119  0.44105  1.0000
  H   H932      1.0  0.83625  0.36446  0.20726  1.0000
  C   C1197     1.0  0.85352  0.28715  0.13553  1.0000
  C   C1198     1.0  0.89988  0.31720  0.40432  1.0000
  H   H933      1.0  0.84431  0.48291  0.02346  1.0000
  C   C1199     1.0  0.77304  0.36063  0.04422  1.0000
  Fe  Fe69      1.0  0.71149  0.23241  0.03382  1.0000
  C   C1200     1.0  0.90336  0.28902  0.42502  1.0000
  S   S141      1.0  0.68581  0.43534  0.01497  1.0000
  S   S142      1.0  0.82037  0.22034  0.43659  1.0000
  C   C1201     1.0  0.91044  0.35701  0.03777  1.0000
  C   C1202     1.0  0.91721  0.39869  0.09775  1.0000
  S   S143      1.0  0.76638  0.24020  0.01639  1.0000
  H   H934      1.0  0.90604  0.34196  0.01438  1.0000
  H   H935      1.0  0.88672  0.34599  0.48910  1.0000
  S   S144      1.0  0.67631  0.26422  0.07635  1.0000
  C   C1203     1.0  0.91681  0.27348  0.12281  1.0000
  H   H936      1.0  0.91410  0.48730  0.36636  1.0000
  H   H937      1.0  0.92206  0.32075  0.38685  1.0000
  C   C1204     1.0  0.88836  0.40060  0.50586  1.0000
  C   C1205     1.0  0.91665  0.46268  0.37858  1.0000
  H   H938      1.0  0.70509  0.22989  0.59700  1.0000
  C   C1206     1.0  0.90078  0.54079  0.60968  1.0000
  C   C1207     1.0  0.73155  0.44140  0.67924  1.0000
  H   H939      1.0  0.74705  0.49137  0.69593  1.0000
  H   H940      1.0  0.91838  0.40816  0.94982  1.0000
  C   C1208     1.0  0.76473  0.42638  0.78810  1.0000
  C   C1209     1.0  0.75648  0.44095  0.90510  1.0000
  H   H941      1.0  0.73836  0.42593  0.60923  1.0000
  P   P43       1.0  0.71090  0.37660  0.65675  1.0000
  C   C1210     1.0  0.91098  0.25434  0.85342  1.0000
  H   H942      1.0  0.83485  0.34085  0.52875  1.0000
  H   H943      1.0  0.75780  0.34062  0.51668  1.0000
  H   H944      1.0  0.88000  0.37456  0.63665  1.0000
  H   H945      1.0  0.74156  0.42291  0.85598  1.0000
  H   H946      1.0  0.85320  0.30137  0.60927  1.0000
  H   H947      1.0  0.73376  0.54089  0.92096  1.0000
  C   C1211     1.0  0.81693  0.45138  0.90762  1.0000
  C   C1212     1.0  0.69822  0.39156  0.61606  1.0000
  H   H948      1.0  0.83033  0.44961  0.56682  1.0000
  H   H949      1.0  0.67781  0.49902  0.90660  1.0000
  Fe  Fe70      1.0  0.69614  0.23758  0.76642  1.0000
  H   H950      1.0  0.70994  0.49788  0.76622  1.0000
  H   H951      1.0  0.88919  0.54435  0.55712  1.0000
  H   H952      1.0  0.90937  0.48725  0.74232  1.0000
  C   C1213     1.0  0.83913  0.43810  0.78782  1.0000
  H   H953      1.0  0.71677  0.44789  0.55595  1.0000
  C   C1214     1.0  0.89538  0.36548  0.92472  1.0000
  H   H954      1.0  0.86757  0.34157  0.68758  1.0000
  C   C1215     1.0  0.75622  0.31130  0.87474  1.0000
  C   C1216     1.0  0.86733  0.22141  0.64279  1.0000
  H   H955      1.0  0.78344  0.36141  0.67953  1.0000
  C   C1217     1.0  0.75480  0.46293  0.69238  1.0000
  H   H956      1.0  0.83321  0.54189  0.86503  1.0000
  C   C1218     1.0  0.83483  0.39134  0.96881  1.0000
  H   H957      1.0  0.77352  0.52424  0.86854  1.0000
  C   C1219     1.0  0.79831  0.50811  0.62950  1.0000
  H   H958      1.0  0.90632  0.30852  0.84130  1.0000
  H   H959      1.0  0.73083  0.32495  0.70597  1.0000
  C   C1220     1.0  0.80438  0.52298  0.66191  1.0000
  H   H960      1.0  0.91987  0.45583  0.83518  1.0000
  C   C1221     1.0  0.75558  0.27731  0.67652  1.0000
  C   C1222     1.0  0.84315  0.42700  0.55013  1.0000
  C   C1223     1.0  0.70377  0.42850  0.56867  1.0000
  H   H961      1.0  0.75266  0.33172  0.82536  1.0000
  Fe  Fe71      1.0  0.74699  0.23963  0.96415  1.0000
  H   H962      1.0  0.86541  0.39191  0.75550  1.0000
  C   C1224     1.0  0.73466  0.25045  0.84397  1.0000
  H   H963      1.0  0.76702  0.26583  0.58926  1.0000
  C   C1225     1.0  0.89330  0.49023  0.57093  1.0000
  H   H964      1.0  0.86553  0.51977  0.78732  1.0000
  C   C1226     1.0  0.82899  0.31178  0.77094  1.0000
  S   S145      1.0  0.75901  0.49806  0.57513  1.0000
  C   C1227     1.0  0.82921  0.52000  0.52301  1.0000
  C   C1228     1.0  0.91934  0.52123  0.88830  1.0000
  C   C1229     1.0  0.91352  0.30208  0.67606  1.0000
  C   C1230     1.0  0.83255  0.53496  0.00613  1.0000
  C   C1231     1.0  0.87985  0.25308  0.58180  1.0000
  C   C1232     1.0  0.74970  0.30945  0.84006  1.0000
  H   H965      1.0  0.77792  0.23296  0.64074  1.0000
  H   H966      1.0  0.88538  0.26553  0.55840  1.0000
  Fe  Fe72      1.0  0.71602  0.52647  0.54673  1.0000
  H   H967      1.0  0.82418  0.39987  0.70167  1.0000
  C   C1233     1.0  0.90104  0.46781  0.59708  1.0000
  H   H968      1.0  0.82952  0.25487  0.90247  1.0000
  C   C1234     1.0  0.83565  0.29436  0.80041  1.0000
  C   C1235     1.0  0.79644  0.43155  0.85320  1.0000
  C   C1236     1.0  0.73904  0.27909  0.82456  1.0000
  C   C1237     1.0  0.88972  0.47362  0.75489  1.0000
  H   H969      1.0  0.69314  0.38925  0.76456  1.0000
  C   C1238     1.0  0.76719  0.51959  0.61441  1.0000
  C   C1239     1.0  0.70990  0.40939  0.76918  1.0000
  H   H970      1.0  0.84301  0.23448  0.72286  1.0000
  H   H971      1.0  0.82459  0.36510  0.85958  1.0000
  S   S146      1.0  0.69124  0.23602  0.98209  1.0000
  H   H972      1.0  0.83796  0.30010  0.85511  1.0000
  C   C1240     1.0  0.77454  0.38959  0.68342  1.0000
  H   H973      1.0  0.75093  0.37310  0.78638  1.0000
  H   H974      1.0  0.82093  0.48907  0.81611  1.0000
  C   C1241     1.0  0.76285  0.43119  0.86988  1.0000
  H   H975      1.0  0.82547  0.52119  0.55077  1.0000
  H   H976      1.0  0.91098  0.42164  0.88519  1.0000
  C   C1242     1.0  0.90838  0.48187  0.62933  1.0000
  H   H977      1.0  0.73063  0.44023  0.91783  1.0000
  C   C1243     1.0  0.78801  0.44797  0.70084  1.0000
  H   H978      1.0  0.90267  0.43933  0.59228  1.0000
  H   H979      1.0  0.81823  0.21977  0.85028  1.0000
  H   H980      1.0  0.76798  0.48257  0.78812  1.0000
  H   H981      1.0  0.81372  0.52676  0.98901  1.0000
  H   H982      1.0  0.76011  0.26307  0.69909  1.0000
  C   C1244     1.0  0.75211  0.28270  0.89405  1.0000
  C   C1245     1.0  0.89056  0.33239  0.66997  1.0000
  C   C1246     1.0  0.82938  0.39504  0.55033  1.0000
  H   H983      1.0  0.90871  0.42345  0.72648  1.0000
  C   C1247     1.0  0.78205  0.53966  0.88990  1.0000
  H   H984      1.0  0.68205  0.53303  0.67274  1.0000
  C   C1248     1.0  0.84051  0.21638  0.74257  1.0000
  C   C1249     1.0  0.74323  0.31424  0.61844  1.0000
  S   S147      1.0  0.69886  0.21998  0.71062  1.0000
  H   H985      1.0  0.86543  0.42975  0.98927  1.0000
  C   C1250     1.0  0.89706  0.50153  0.90596  1.0000
  H   H986      1.0  0.72623  0.22701  0.83233  1.0000
  S   S148      1.0  0.90521  0.27909  0.71217  1.0000
  C   C1251     1.0  0.83433  0.36278  0.94458  1.0000
  C   C1252     1.0  0.85536  0.25742  0.64086  1.0000
  Fe  Fe73      1.0  0.71752  0.23429  0.52065  1.0000
  C   C1253     1.0  0.73253  0.33117  0.65128  1.0000
  C   C1254     1.0  0.90561  0.48919  0.93753  1.0000
  C   C1255     1.0  0.74074  0.40440  0.67521  1.0000
  H   H987      1.0  0.82816  0.51329  0.67363  1.0000
  C   C1256     1.0  0.83984  0.47430  0.79661  1.0000
  S   S149      1.0  0.70651  0.50272  0.97353  1.0000
  C   C1257     1.0  0.75244  0.46168  0.78258  1.0000
  H   H988      1.0  0.78422  0.32937  0.99567  1.0000
  H   H989      1.0  0.84148  0.26577  0.79877  1.0000
  H   H990      1.0  0.88801  0.47461  0.95149  1.0000
  S   S150      1.0  0.90761  0.53665  0.84915  1.0000
  C   C1258     1.0  0.86521  0.40745  0.97062  1.0000
  C   C1259     1.0  0.71579  0.41598  0.59907  1.0000
  C   C1260     1.0  0.69803  0.44457  0.76382  1.0000
  H   H991      1.0  0.87323  0.49581  0.89509  1.0000
  C   C1261     1.0  0.75966  0.27897  0.61474  1.0000
  H   H992      1.0  0.78369  0.22401  0.74568  1.0000
  C   C1262     1.0  0.86452  0.34971  0.92282  1.0000
  C   C1263     1.0  0.67513  0.41592  0.55439  1.0000
  C   C1264     1.0  0.83623  0.22629  0.90055  1.0000
  C   C1265     1.0  0.86505  0.49189  0.78026  1.0000
  H   H993      1.0  0.84215  0.27335  0.66333  1.0000
  H   H994      1.0  0.83016  0.29673  0.74628  1.0000
  H   H995      1.0  0.70692  0.45398  0.67139  1.0000
  H   H996      1.0  0.77855  0.45846  0.95135  1.0000
  C   C1266     1.0  0.76567  0.26044  0.64372  1.0000
  H   H997      1.0  0.89832  0.24570  0.83108  1.0000
  C   C1267     1.0  0.74120  0.25225  0.87881  1.0000
  C   C1268     1.0  0.82613  0.35076  0.83455  1.0000
  H   H998      1.0  0.85424  0.22520  0.95134  1.0000
  C   C1269     1.0  0.86167  0.27327  0.61042  1.0000
  H   H999      1.0  0.81054  0.35064  0.94271  1.0000
  C   C1270     1.0  0.84515  0.36580  0.52836  1.0000
  H   H1000     1.0  0.68057  0.30905  0.96622  1.0000
  C   C1271     1.0  0.86443  0.41985  0.76256  1.0000
  P   P44       1.0  0.88967  0.47162  0.52790  1.0000
  H   H1001     1.0  0.84983  0.44123  0.86028  1.0000
  H   H1002     1.0  0.73795  0.23011  0.89378  1.0000
  H   H1003     1.0  0.81436  0.36153  0.75029  1.0000
  C   C1272     1.0  0.74300  0.40032  0.78146  1.0000
  S   S151      1.0  0.72993  0.27841  0.78136  1.0000
  H   H1004     1.0  0.68458  0.48577  0.62576  1.0000
  C   C1273     1.0  0.89523  0.39495  0.94836  1.0000
  H   H1005     1.0  0.86355  0.32723  0.90476  1.0000
  H   H1006     1.0  0.83775  0.45885  0.92253  1.0000
  C   C1274     1.0  0.91592  0.28982  0.85913  1.0000
  C   C1275     1.0  0.87318  0.42977  0.52844  1.0000
  C   C1276     1.0  0.71935  0.47060  0.77032  1.0000
  C   C1277     1.0  0.68005  0.24622  0.60489  1.0000
  H   H1007     1.0  0.81760  0.48724  0.61653  1.0000
  H   H1008     1.0  0.76431  0.33500  0.88662  1.0000
  C   C1278     1.0  0.78346  0.45112  0.92396  1.0000
  C   C1279     1.0  0.89148  0.21699  0.58352  1.0000
  S   S152      1.0  0.69387  0.28483  0.55100  1.0000
  H   H1009     1.0  0.71898  0.32944  0.00823  1.0000
  C   C1280     1.0  0.90830  0.51833  0.63563  1.0000
  C   C1281     1.0  0.88932  0.43766  0.74598  1.0000
  S   S153      1.0  0.76189  0.28529  0.93689  1.0000
  C   C1282     1.0  0.73892  0.31245  0.68033  1.0000
  P   P45       1.0  0.80542  0.41598  0.80834  1.0000
  C   C1283     1.0  0.89349  0.52681  0.57738  1.0000
  C   C1284     1.0  0.89761  0.35101  0.64124  1.0000
  C   C1285     1.0  0.79802  0.41134  0.69601  1.0000
  H   H1010     1.0  0.80602  0.46490  0.71086  1.0000
  C   C1286     1.0  0.83406  0.31381  0.83217  1.0000
  H   H1011     1.0  0.81154  0.40124  0.98598  1.0000
  C   C1287     1.0  0.82041  0.34863  0.77326  1.0000
  C   C1288     1.0  0.81892  0.36850  0.80508  1.0000
  H   H1012     1.0  0.73839  0.32784  0.59558  1.0000
  C   C1289     1.0  0.82355  0.44151  0.87239  1.0000
  H   H1013     1.0  0.80656  0.39307  0.56763  1.0000
  H   H1014     1.0  0.91485  0.52903  0.66037  1.0000
  H   H1015     1.0  0.91522  0.46432  0.64910  1.0000
  C   C1290     1.0  0.74264  0.54693  0.63149  1.0000
  H   H1016     1.0  0.76624  0.40331  0.51042  1.0000
  C   C1291     1.0  0.75459  0.65790  0.06249  1.0000
  H   H1017     1.0  0.89768  0.55812  0.32354  1.0000
  H   H1018     1.0  0.73164  0.70645  0.40148  1.0000
  S   S154      1.0  0.70049  0.73275  0.28670  1.0000
  C   C1292     1.0  0.87901  0.83642  0.48735  1.0000
  S   S155      1.0  0.78522  0.56892  0.30870  1.0000
  H   H1019     1.0  0.75355  0.66089  0.09032  1.0000
  H   H1020     1.0  0.87937  0.60162  0.16173  1.0000
  H   H1021     1.0  0.80054  0.61532  0.48649  1.0000
  C   C1293     1.0  0.77619  0.74492  0.06102  1.0000
  H   H1022     1.0  0.82530  0.74937  0.25456  1.0000
  C   C1294     1.0  0.86538  0.63037  0.37834  1.0000
  H   H1023     1.0  0.78816  0.55303  0.45556  1.0000
  H   H1024     1.0  0.79015  0.63028  0.35253  1.0000
  C   C1295     1.0  0.92173  0.67933  0.19367  1.0000
  C   C1296     1.0  0.91202  0.84522  0.49451  1.0000
  H   H1025     1.0  0.90196  0.74814  0.46635  1.0000
  C   C1297     1.0  0.85124  0.84632  0.04488  1.0000
  H   H1026     1.0  0.67776  0.61256  0.37474  1.0000
  H   H1027     1.0  0.85609  0.85666  0.49012  1.0000
  H   H1028     1.0  0.79048  0.71897  0.06314  1.0000
  S   S156      1.0  0.72798  0.61619  0.46198  1.0000
  P   P46       1.0  0.88572  0.69721  0.39003  1.0000
  H   H1029     1.0  0.87976  0.72616  0.28112  1.0000
  C   C1298     1.0  0.83165  0.78652  0.35658  1.0000
  Fe  Fe74      1.0  0.70390  0.57744  0.49250  1.0000
  H   H1030     1.0  0.78274  0.83941  0.10235  1.0000
  C   C1299     1.0  0.84318  0.69891  0.50320  1.0000
  C   C1300     1.0  0.76274  0.79511  0.02770  1.0000
  H   H1031     1.0  0.79393  0.64381  0.26971  1.0000
  H   H1032     1.0  0.74221  0.54899  0.09478  1.0000
  C   C1301     1.0  0.72720  0.72687  0.38391  1.0000
  S   S157      1.0  0.71332  0.83391  0.17470  1.0000
  H   H1033     1.0  0.90597  0.65309  0.44504  1.0000
  C   C1302     1.0  0.88126  0.55414  0.05121  1.0000
  C   C1303     1.0  0.73237  0.79426  0.08405  1.0000
  S   S158      1.0  0.68802  0.83198  0.25690  1.0000
  S   S159      1.0  0.74757  0.77101  0.43414  1.0000
  C   C1304     1.0  0.82955  0.71362  0.34963  1.0000
  C   C1305     1.0  0.87869  0.86070  0.34504  1.0000
  H   H1034     1.0  0.71260  0.69158  0.34371  1.0000
  H   H1035     1.0  0.83518  0.82269  0.17790  1.0000
  C   C1306     1.0  0.89399  0.61425  0.24453  1.0000
  H   H1036     1.0  0.68818  0.68145  0.23432  1.0000
  H   H1037     1.0  0.89993  0.56155  0.06884  1.0000
  H   H1038     1.0  0.88514  0.65564  0.50626  1.0000
  C   C1307     1.0  0.76818  0.58146  0.35104  1.0000
  C   C1308     1.0  0.71104  0.74471  0.32827  1.0000
  C   C1309     1.0  0.74298  0.60221  0.41936  1.0000
  C   C1310     1.0  0.82189  0.63573  0.26248  1.0000
  C   C1311     1.0  0.86219  0.58271  0.15456  1.0000
  H   H1039     1.0  0.71159  0.55808  0.15343  1.0000
  C   C1312     1.0  0.78231  0.76220  0.03141  1.0000
  H   H1040     1.0  0.81432  0.58515  0.23909  1.0000
  S   S160      1.0  0.74541  0.73918  0.12493  1.0000
  C   C1313     1.0  0.89541  0.81080  0.27382  1.0000
  C   C1314     1.0  0.91723  0.64068  0.34370  1.0000
  C   C1315     1.0  0.82546  0.87528  0.16137  1.0000
  H   H1041     1.0  0.91446  0.68605  0.06365  1.0000
  C   C1316     1.0  0.71587  0.77945  0.33816  1.0000
  C   C1317     1.0  0.70319  0.57538  0.13394  1.0000
  C   C1318     1.0  0.89017  0.65269  0.36968  1.0000
  Fe  Fe75      1.0  0.74379  0.82905  0.44874  1.0000
  H   H1042     1.0  0.70960  0.69789  0.06041  1.0000
  H   H1043     1.0  0.84956  0.79481  0.47188  1.0000
  C   C1319     1.0  0.90020  0.77553  0.28218  1.0000
  H   H1044     1.0  0.78562  0.72652  0.31922  1.0000
  H   H1045     1.0  0.80250  0.74027  0.49176  1.0000
  C   C1320     1.0  0.76255  0.62379  0.40090  1.0000
  S   S161      1.0  0.75586  0.77519  0.21935  1.0000
  C   C1321     1.0  0.88404  0.67288  0.45525  1.0000
  H   H1046     1.0  0.72238  0.83659  0.05098  1.0000
  C   C1322     1.0  0.72956  0.67874  0.04564  1.0000
  H   H1047     1.0  0.68690  0.66765  0.17216  1.0000
  C   C1323     1.0  0.87214  0.67418  0.48991  1.0000
  C   C1324     1.0  0.77521  0.61338  0.36682  1.0000
  C   C1325     1.0  0.87534  0.80152  0.47701  1.0000
  H   H1048     1.0  0.71320  0.80679  0.10427  1.0000
  H   H1049     1.0  0.73174  0.81421  0.37789  1.0000
  S   S162      1.0  0.77311  0.87513  0.23345  1.0000
  H   H1050     1.0  0.75204  0.86977  0.35792  1.0000
  H   H1051     1.0  0.72184  0.58812  0.05000  1.0000
  Fe  Fe76      1.0  0.70372  0.77301  0.24813  1.0000
  H   H1052     1.0  0.82726  0.68568  0.34771  1.0000
  C   C1326     1.0  0.85614  0.76347  0.37204  1.0000
  H   H1053     1.0  0.81507  0.67402  0.10059  1.0000
  C   C1327     1.0  0.82898  0.69216  0.11480  1.0000
  H   H1054     1.0  0.89798  0.82589  0.18747  1.0000
  H   H1055     1.0  0.79841  0.87458  0.05463  1.0000
  C   C1328     1.0  0.81777  0.85384  0.06230  1.0000
  C   C1329     1.0  0.86300  0.74086  0.15145  1.0000
  S   S163      1.0  0.71118  0.87242  0.42474  1.0000
  H   H1056     1.0  0.84499  0.61062  0.11171  1.0000
  C   C1330     1.0  0.76193  0.87064  0.30309  1.0000
  H   H1057     1.0  0.80060  0.61870  0.05720  1.0000
  C   C1331     1.0  0.88225  0.64754  0.26174  1.0000
  C   C1332     1.0  0.90483  0.77529  0.47373  1.0000
  Fe  Fe77      1.0  0.73811  0.83385  0.22453  1.0000
  C   C1333     1.0  0.80567  0.73675  0.33359  1.0000
  C   C1334     1.0  0.87600  0.81883  0.05411  1.0000
  H   H1058     1.0  0.90197  0.69691  0.21020  1.0000
  C   C1335     1.0  0.74855  0.55973  0.36939  1.0000
  H   H1059     1.0  0.87501  0.76036  0.16612  1.0000
  C   C1336     1.0  0.88169  0.84829  0.17848  1.0000
  H   H1060     1.0  0.71208  0.79967  0.32038  1.0000
  C   C1337     1.0  0.91224  0.66214  0.16375  1.0000
  C   C1338     1.0  0.78108  0.63391  0.04356  1.0000
  C   C1339     1.0  0.83328  0.80623  0.09820  1.0000
  C   C1340     1.0  0.73607  0.57004  0.40376  1.0000
  C   C1341     1.0  0.73260  0.76146  0.39371  1.0000
  S   S164      1.0  0.72418  0.84918  0.50265  1.0000
  C   C1342     1.0  0.83762  0.72393  0.16837  1.0000
  H   H1061     1.0  0.72087  0.55342  0.41802  1.0000
  H   H1062     1.0  0.76792  0.64864  0.41298  1.0000
  C   C1343     1.0  0.80686  0.77314  0.33691  1.0000
  C   C1344     1.0  0.73745  0.81102  0.05378  1.0000
  Fe  Fe78      1.0  0.72553  0.77488  0.17247  1.0000
  H   H1063     1.0  0.84162  0.87988  0.38846  1.0000
  C   C1345     1.0  0.71622  0.71855  0.35132  1.0000
  H   H1064     1.0  0.90140  0.81379  0.03974  1.0000
  S   S165      1.0  0.79229  0.85533  0.44865  1.0000
  C   C1346     1.0  0.85969  0.55341  0.17365  1.0000
  H   H1065     1.0  0.74895  0.84791  0.29704  1.0000
  C   C1347     1.0  0.86435  0.57939  0.03154  1.0000
  C   C1348     1.0  0.86796  0.59644  0.36153  1.0000
  C   C1349     1.0  0.75170  0.76111  0.08768  1.0000
  C   C1350     1.0  0.84621  0.65840  0.27035  1.0000
  C   C1351     1.0  0.81908  0.56463  0.11744  1.0000
  H   H1066     1.0  0.80097  0.68641  0.16319  1.0000
  C   C1352     1.0  0.72664  0.78780  0.37091  1.0000
  H   H1067     1.0  0.84383  0.63924  0.39782  1.0000
  H   H1068     1.0  0.88526  0.66569  0.15752  1.0000
  C   C1353     1.0  0.86966  0.59134  0.23639  1.0000
  H   H1069     1.0  0.90130  0.66494  0.26789  1.0000
  C   C1354     1.0  0.91994  0.60664  0.32722  1.0000
  H   H1070     1.0  0.88694  0.87621  0.43040  1.0000
  C   C1355     1.0  0.91421  0.84893  0.33338  1.0000
  C   C1356     1.0  0.84513  0.76629  0.25930  1.0000
  C   C1357     1.0  0.89529  0.58456  0.33609  1.0000
  C   C1358     1.0  0.68093  0.61991  0.08381  1.0000
  H   H1071     1.0  0.78806  0.79108  0.32478  1.0000
  H   H1072     1.0  0.85818  0.86230  0.32739  1.0000
  C   C1359     1.0  0.86470  0.82386  0.25863  1.0000
  H   H1073     1.0  0.82400  0.73927  0.43133  1.0000
  H   H1074     1.0  0.80379  0.56855  0.09548  1.0000
  C   C1360     1.0  0.72066  0.57055  0.10108  1.0000
  H   H1075     1.0  0.83086  0.72976  0.19559  1.0000
  P   P47       1.0  0.89828  0.76149  0.09312  1.0000
  C   C1361     1.0  0.82089  0.69929  0.15014  1.0000
  C   C1362     1.0  0.83354  0.60238  0.24533  1.0000
  H   H1076     1.0  0.84859  0.57944  0.36814  1.0000
  C   C1363     1.0  0.83814  0.72117  0.44729  1.0000
  C   C1364     1.0  0.83980  0.80152  0.25132  1.0000
  H   H1077     1.0  0.81598  0.81170  0.24001  1.0000
  H   H1078     1.0  0.82478  0.79101  0.11855  1.0000
  H   H1079     1.0  0.83124  0.81482  0.36027  1.0000
  H   H1080     1.0  0.83698  0.68442  0.28284  1.0000
  C   C1365     1.0  0.84221  0.58819  0.12648  1.0000
  C   C1366     1.0  0.87551  0.75327  0.27454  1.0000
  C   C1367     1.0  0.84649  0.84639  0.17295  1.0000
  H   H1081     1.0  0.80160  0.74977  0.01111  1.0000
  C   C1368     1.0  0.82581  0.72196  0.48180  1.0000
  C   C1369     1.0  0.80890  0.83391  0.08905  1.0000
  C   C1370     1.0  0.87145  0.73375  0.11579  1.0000
  C   C1371     1.0  0.85552  0.72672  0.36828  1.0000
  C   C1372     1.0  0.70922  0.59255  0.07591  1.0000
  H   H1082     1.0  0.85634  0.70677  0.06975  1.0000
  C   C1373     1.0  0.85313  0.71024  0.09750  1.0000
  H   H1083     1.0  0.85943  0.85121  0.25279  1.0000
  H   H1084     1.0  0.87494  0.77437  0.38758  1.0000
  C   C1374     1.0  0.86897  0.87033  0.37988  1.0000
  H   H1085     1.0  0.85778  0.86154  0.02378  1.0000
  C   C1375     1.0  0.89440  0.86783  0.40359  1.0000
  C   C1376     1.0  0.86800  0.69716  0.43396  1.0000
  C   C1377     1.0  0.86737  0.79834  0.08102  1.0000
  H   H1086     1.0  0.87045  0.60622  0.03424  1.0000
  H   H1087     1.0  0.91388  0.87243  0.50273  1.0000
  P   P48       1.0  0.88355  0.54950  0.21167  1.0000
  H   H1088     1.0  0.92193  0.60706  0.23713  1.0000
  C   C1378     1.0  0.67447  0.60227  0.14171  1.0000
  S   S166      1.0  0.67473  0.76774  0.20075  1.0000
  H   H1089     1.0  0.79842  0.87279  0.15735  1.0000
  Fe  Fe79      1.0  0.76963  0.87983  0.50065  1.0000
  C   C1379     1.0  0.89598  0.87899  0.17205  1.0000
  H   H1090     1.0  0.75457  0.69010  0.56961  1.0000
  C   C1380     1.0  0.91353  0.87662  0.94580  1.0000
  C   C1381     1.0  0.75955  0.54915  0.91960  1.0000
  S   S167      1.0  0.72342  0.56445  0.80712  1.0000
  C   C1382     1.0  0.86537  0.76760  0.89802  1.0000
  C   C1383     1.0  0.85573  0.77248  0.56741  1.0000
  C   C1384     1.0  0.71129  0.75868  0.89481  1.0000
  C   C1385     1.0  0.74844  0.56141  0.66435  1.0000
  C   C1386     1.0  0.92252  0.75370  0.92032  1.0000
  C   C1387     1.0  0.73397  0.86337  0.61922  1.0000
  H   H1091     1.0  0.71227  0.83028  0.84154  1.0000
  C   C1388     1.0  0.83041  0.63087  0.56526  1.0000
  H   H1092     1.0  0.83231  0.64523  0.74679  1.0000
  C   C1389     1.0  0.73039  0.74104  0.68452  1.0000
  C   C1390     1.0  0.76278  0.72910  0.66577  1.0000
  C   C1391     1.0  0.69128  0.63578  0.90756  1.0000
  C   C1392     1.0  0.77508  0.66856  0.55986  1.0000
  C   C1393     1.0  0.80168  0.66047  0.79489  1.0000
  C   C1394     1.0  0.75607  0.84947  0.64336  1.0000
  C   C1395     1.0  0.70306  0.77755  0.78265  1.0000
  S   S168      1.0  0.78495  0.56277  0.72269  1.0000
  C   C1396     1.0  0.83585  0.65805  0.64637  1.0000
  H   H1093     1.0  0.82853  0.70691  0.72970  1.0000
  H   H1094     1.0  0.89710  0.70122  0.78447  1.0000
  H   H1095     1.0  0.70564  0.86520  0.62391  1.0000
  C   C1397     1.0  0.91052  0.78159  0.82087  1.0000
  C   C1398     1.0  0.88328  0.62456  0.82886  1.0000
  H   H1096     1.0  0.69486  0.79401  0.62385  1.0000
  C   C1399     1.0  0.70181  0.72255  0.68059  1.0000
  C   C1400     1.0  0.77410  0.73855  0.89326  1.0000
  C   C1401     1.0  0.87795  0.61816  0.68962  1.0000
  S   S169      1.0  0.70472  0.58570  0.54964  1.0000
  C   C1402     1.0  0.70577  0.69187  0.65824  1.0000
  C   C1403     1.0  0.86373  0.71702  0.59399  1.0000
  H   H1097     1.0  0.81771  0.68039  0.98456  1.0000
  H   H1098     1.0  0.69305  0.58271  0.88449  1.0000
  C   C1404     1.0  0.82727  0.72032  0.60286  1.0000
  H   H1099     1.0  0.83536  0.85528  0.60174  1.0000
  C   C1405     1.0  0.87010  0.68827  0.96839  1.0000
  H   H1100     1.0  0.74096  0.65492  0.62353  1.0000
  C   C1406     1.0  0.70975  0.75692  0.81031  1.0000
  H   H1101     1.0  0.90625  0.74050  0.57060  1.0000
  C   C1407     1.0  0.74034  0.83161  0.83824  1.0000
  C   C1408     1.0  0.80376  0.57996  0.94541  1.0000
  H   H1102     1.0  0.69414  0.71352  0.83742  1.0000
  C   C1409     1.0  0.77102  0.73574  0.92871  1.0000
  C   C1410     1.0  0.82920  0.61530  0.53198  1.0000
  H   H1103     1.0  0.82048  0.77929  0.82400  1.0000
  H   H1104     1.0  0.82028  0.65137  0.89450  1.0000
  C   C1411     1.0  0.89940  0.72907  0.78735  1.0000
  C   C1412     1.0  0.81265  0.83601  0.83201  1.0000
  C   C1413     1.0  0.80505  0.74942  0.59265  1.0000
  C   C1414     1.0  0.78530  0.87142  0.58228  1.0000
  C   C1415     1.0  0.75202  0.86465  0.84165  1.0000
  H   H1105     1.0  0.71139  0.69176  0.99692  1.0000
  C   C1416     1.0  0.85245  0.78730  0.92886  1.0000
  H   H1106     1.0  0.89434  0.60273  0.70618  1.0000
  H   H1107     1.0  0.68801  0.76855  0.88238  1.0000
  H   H1108     1.0  0.76846  0.68246  0.83977  1.0000
  C   C1417     1.0  0.78021  0.72327  0.80708  1.0000
  C   C1418     1.0  0.68862  0.73071  0.81714  1.0000
  Fe  Fe80      1.0  0.73440  0.58360  0.75501  1.0000
  C   C1419     1.0  0.87799  0.74334  0.57701  1.0000
  H   H1109     1.0  0.90329  0.86300  0.58654  1.0000
  H   H1110     1.0  0.80983  0.83588  0.65560  1.0000
  C   C1420     1.0  0.89048  0.68256  0.85470  1.0000
  H   H1111     1.0  0.78109  0.55528  0.51917  1.0000
  H   H1112     1.0  0.86443  0.80568  0.97926  1.0000
  C   C1421     1.0  0.67516  0.77244  0.76268  1.0000
  H   H1113     1.0  0.83366  0.69966  0.52987  1.0000
  H   H1114     1.0  0.90162  0.56894  0.61429  1.0000
  C   C1422     1.0  0.90004  0.74946  0.89401  1.0000
  S   S170      1.0  0.76934  0.81568  0.98995  1.0000
  C   C1423     1.0  0.79697  0.72981  0.77563  1.0000
  H   H1115     1.0  0.86150  0.86182  0.94917  1.0000
  C   C1424     1.0  0.80326  0.65761  0.57943  1.0000
  H   H1116     1.0  0.79968  0.73250  0.87918  1.0000
  C   C1425     1.0  0.85217  0.60311  0.67263  1.0000
  H   H1117     1.0  0.84830  0.57610  0.67637  1.0000
  C   C1426     1.0  0.77895  0.54881  0.67994  1.0000
  C   C1427     1.0  0.87537  0.87716  0.89898  1.0000
  P   P49       1.0  0.80845  0.68335  0.61859  1.0000
  C   C1428     1.0  0.74432  0.75004  0.87608  1.0000
  H   H1118     1.0  0.75733  0.64894  0.96294  1.0000
  H   H1119     1.0  0.85053  0.59525  0.52070  1.0000
  C   C1429     1.0  0.89531  0.74859  0.75871  1.0000
  C   C1430     1.0  0.73067  0.67530  0.00985  1.0000
  H   H1120     1.0  0.71975  0.79702  0.77595  1.0000
  C   C1431     1.0  0.75676  0.65096  0.99076  1.0000
  H   H1121     1.0  0.70709  0.81636  0.56711  1.0000
  C   C1432     1.0  0.90970  0.77413  0.95092  1.0000
  C   C1433     1.0  0.80715  0.85841  0.60689  1.0000
  C   C1434     1.0  0.80109  0.80291  0.82851  1.0000
  C   C1435     1.0  0.81555  0.54979  0.88793  1.0000
  H   H1122     1.0  0.71872  0.55618  0.61985  1.0000
  H   H1123     1.0  0.86433  0.70081  0.66228  1.0000
  C   C1436     1.0  0.78813  0.86681  0.83869  1.0000
  H   H1124     1.0  0.73576  0.74323  0.97479  1.0000
  C   C1437     1.0  0.67681  0.79145  0.60398  1.0000
  C   C1438     1.0  0.82652  0.56969  0.91556  1.0000
  H   H1125     1.0  0.78450  0.74405  0.66886  1.0000
  H   H1126     1.0  0.75225  0.57586  0.97025  1.0000
  H   H1127     1.0  0.79387  0.75626  0.76700  1.0000
  H   H1128     1.0  0.72924  0.58214  0.67768  1.0000
  C   C1439     1.0  0.77400  0.65298  0.52669  1.0000
  C   C1440     1.0  0.88158  0.87101  0.93290  1.0000
  C   C1441     1.0  0.88608  0.61441  0.95873  1.0000
  H   H1129     1.0  0.80210  0.63343  0.80158  1.0000
  C   C1442     1.0  0.70819  0.75543  0.93020  1.0000
  H   H1130     1.0  0.68266  0.76220  0.94454  1.0000
  S   S171      1.0  0.71770  0.64125  0.77171  1.0000
  C   C1443     1.0  0.83105  0.62296  0.65120  1.0000
  Fe  Fe81      1.0  0.71783  0.84677  0.98015  1.0000
  H   H1131     1.0  0.90120  0.66535  0.69990  1.0000
  C   C1444     1.0  0.89906  0.78446  0.76102  1.0000
  C   C1445     1.0  0.74865  0.87370  0.58836  1.0000
  S   S172      1.0  0.71234  0.65105  0.87163  1.0000
  H   H1132     1.0  0.83939  0.60169  0.84985  1.0000
  H   H1133     1.0  0.77662  0.75176  0.59748  1.0000
  H   H1134     1.0  0.85320  0.62303  0.57923  1.0000
  C   C1446     1.0  0.85382  0.62399  0.85168  1.0000
  C   C1447     1.0  0.79266  0.84695  0.63714  1.0000
  H   H1135     1.0  0.67660  0.73177  0.69493  1.0000
  C   C1448     1.0  0.81857  0.66716  0.76382  1.0000
  Fe  Fe82      1.0  0.70229  0.62163  0.82250  1.0000
  C   C1449     1.0  0.77018  0.56918  0.94731  1.0000
  C   C1450     1.0  0.68550  0.60048  0.90737  1.0000
  H   H1136     1.0  0.72740  0.76482  0.70190  1.0000
  C   C1451     1.0  0.86093  0.67344  0.66451  1.0000
  H   H1137     1.0  0.84064  0.83789  0.82995  1.0000
  C   C1452     1.0  0.85153  0.63012  0.97034  1.0000
  H   H1138     1.0  0.85301  0.70200  0.89846  1.0000
  P   P50       1.0  0.91430  0.72025  0.85564  1.0000
  P   P51       1.0  0.81891  0.60248  0.98266  1.0000
  C   C1453     1.0  0.86148  0.68114  0.87839  1.0000
  Fe  Fe83      1.0  0.68330  0.85957  0.69671  1.0000
  C   C1454     1.0  0.90664  0.80092  0.79207  1.0000
  C   C1455     1.0  0.78242  0.63028  0.00749  1.0000
  H   H1139     1.0  0.68353  0.67781  0.65507  1.0000
  S   S173      1.0  0.73866  0.83389  0.68081  1.0000
  H   H1140     1.0  0.80180  0.79701  0.56625  1.0000
  H   H1141     1.0  0.85289  0.57655  0.91336  1.0000
  C   C1456     1.0  0.73805  0.74429  0.94718  1.0000
  C   C1457     1.0  0.90582  0.86168  0.64118  1.0000
  C   C1458     1.0  0.87448  0.79011  0.95549  1.0000
  S   S174      1.0  0.70473  0.85148  0.92572  1.0000
  S   S175      1.0  0.68190  0.57518  0.73748  1.0000
  C   C1459     1.0  0.76680  0.69837  0.64306  1.0000
  H   H1142     1.0  0.92138  0.83556  0.63938  1.0000
  C   C1460     1.0  0.76481  0.80052  0.83148  1.0000
  S   S176      1.0  0.92109  0.86579  0.98753  1.0000
  H   H1143     1.0  0.90458  0.86825  0.69630  1.0000
  H   H1144     1.0  0.82539  0.80066  0.93214  1.0000
  C   C1461     1.0  0.81637  0.70185  0.75425  1.0000
  C   C1462     1.0  0.83993  0.56993  0.00869  1.0000
  C   C1463     1.0  0.91225  0.63549  0.95174  1.0000
  H   H1145     1.0  0.88104  0.69356  0.59926  1.0000
  H   H1146     1.0  0.86657  0.79270  0.55381  1.0000
  H   H1147     1.0  0.81089  0.61091  0.63856  1.0000
  H   H1148     1.0  0.79418  0.72789  0.94208  1.0000
  P   P52       1.0  0.74981  0.75789  0.83134  1.0000
  H   H1149     1.0  0.86406  0.71689  0.97265  1.0000
  C   C1464     1.0  0.73829  0.67932  0.64003  1.0000
  C   C1465     1.0  0.78265  0.68839  0.81652  1.0000
  H   H1150     1.0  0.85050  0.87273  0.88934  1.0000
  H   H1151     1.0  0.84807  0.76579  0.87756  1.0000
  C   C1466     1.0  0.84376  0.66731  0.97504  1.0000
  C   C1467     1.0  0.84304  0.65210  0.87663  1.0000
  C   C1468     1.0  0.68364  0.80417  0.57200  1.0000
  C   C1469     1.0  0.81924  0.77515  0.57475  1.0000
  C   C1470     1.0  0.90428  0.67238  0.95678  1.0000
  H   H1152     1.0  0.91656  0.79498  0.84461  1.0000
  C   C1471     1.0  0.88190  0.65346  0.68596  1.0000
  C   C1472     1.0  0.90706  0.74540  0.81874  1.0000
  C   C1473     1.0  0.90179  0.65348  0.83058  1.0000
  H   H1153     1.0  0.88998  0.73567  0.73447  1.0000
  H   H1154     1.0  0.89646  0.79948  0.73867  1.0000
  H   H1155     1.0  0.89307  0.58579  0.95578  1.0000
  H   H1156     1.0  0.89182  0.60238  0.80996  1.0000
  C   C1474     1.0  0.89599  0.87730  0.61149  1.0000
  C   C1475     1.0  0.68111  0.65885  0.93706  1.0000
  H   H1157     1.0  0.90971  0.82871  0.79374  1.0000
  H   H1158     1.0  0.68495  0.68632  0.93700  1.0000
  C   C1476     1.0  0.80112  0.62658  0.51263  1.0000
  C   C1477     1.0  0.89624  0.88010  0.67334  1.0000
  H   H1159     1.0  0.75252  0.66207  0.51148  1.0000
  H   H1160     1.0  0.68533  0.02398  0.27025  1.0000
  C   C1478     1.0  0.77683  0.01760  0.36224  1.0000
  C   C1479     1.0  0.77669  0.88806  0.27664  1.0000
  H   H1161     1.0  0.83246  0.00224  0.35090  1.0000
  C   C1480     1.0  0.69918  0.21227  0.11720  1.0000
  C   C1481     1.0  0.78014  0.91270  0.34534  1.0000
  P   P53       1.0  0.86477  0.01749  0.41543  1.0000
  S   S177      1.0  0.78079  0.93057  0.38776  1.0000
  Fe  Fe84      1.0  0.75289  0.11078  0.26926  1.0000
  H   H1162     1.0  0.77794  0.13907  0.13169  1.0000
  H   H1163     1.0  0.79808  0.04466  0.45498  1.0000
  C   C1482     1.0  0.79244  0.03706  0.42897  1.0000
  C   C1483     1.0  0.88075  0.97430  0.50732  1.0000
  C   C1484     1.0  0.74562  0.03880  0.05362  1.0000
  C   C1485     1.0  0.69205  0.02609  0.17627  1.0000
  H   H1164     1.0  0.90112  0.06141  0.27738  1.0000
  H   H1165     1.0  0.86441  0.90874  0.08829  1.0000
  H   H1166     1.0  0.83290  0.95401  0.42599  1.0000
  C   C1486     1.0  0.85804  0.11171  0.06433  1.0000
  C   C1487     1.0  0.83933  0.90661  0.15577  1.0000
  H   H1167     1.0  0.90186  0.04719  0.35924  1.0000
  S   S178      1.0  0.73591  0.07171  0.30420  1.0000
  H   H1168     1.0  0.80567  0.93028  0.26410  1.0000
  C   C1488     1.0  0.85966  0.93660  0.08405  1.0000
  C   C1489     1.0  0.68138  0.08864  0.35400  1.0000
  H   H1169     1.0  0.80944  0.95144  0.32465  1.0000
  C   C1490     1.0  0.71379  0.09658  0.34048  1.0000
  C   C1491     1.0  0.89821  0.12715  0.44188  1.0000
  H   H1170     1.0  0.88676  0.10880  0.23203  1.0000
  P   P54       1.0  0.81247  0.94533  0.14285  1.0000
  C   C1492     1.0  0.68295  0.09453  0.15455  1.0000
  H   H1171     1.0  0.83066  0.91589  0.47383  1.0000
  C   C1493     1.0  0.70394  0.92439  0.10747  1.0000
  C   C1494     1.0  0.72777  0.93796  0.08541  1.0000
  Fe  Fe85      1.0  0.71739  0.15918  0.22109  1.0000
  C   C1495     1.0  0.67778  0.99900  0.26083  1.0000
  Fe  Fe86      1.0  0.77968  0.17990  0.25694  1.0000
  C   C1496     1.0  0.69630  0.19340  0.14632  1.0000
  C   C1497     1.0  0.69993  0.00247  0.01695  1.0000
  H   H1172     1.0  0.80380  0.04700  0.25838  1.0000
  C   C1498     1.0  0.83654  0.96074  0.10687  1.0000
  H   H1173     1.0  0.88663  0.93172  0.15635  1.0000
  S   S179      1.0  0.73947  0.10169  0.21533  1.0000
  C   C1499     1.0  0.76044  0.94424  0.09614  1.0000
  H   H1174     1.0  0.78757  0.00290  0.02497  1.0000
  C   C1500     1.0  0.91274  0.11247  0.22166  1.0000
  H   H1175     1.0  0.70239  0.91045  0.26498  1.0000
  Fe  Fe87      1.0  0.69585  0.89518  0.47887  1.0000
  S   S180      1.0  0.73992  0.92782  0.48101  1.0000
  H   H1176     1.0  0.69634  0.99951  0.18436  1.0000
  H   H1177     1.0  0.77823  0.95461  0.07819  1.0000
  C   C1501     1.0  0.74974  0.03155  0.38720  1.0000
  H   H1178     1.0  0.67708  0.08616  0.25156  1.0000
  C   C1502     1.0  0.74546  0.92314  0.15129  1.0000
  H   H1179     1.0  0.89978  0.10328  0.16940  1.0000
  C   C1503     1.0  0.67369  0.94093  0.36488  1.0000
  C   C1504     1.0  0.71120  0.14405  0.38541  1.0000
  H   H1180     1.0  0.73635  0.05253  0.43953  1.0000
  C   C1505     1.0  0.76373  0.88296  0.33753  1.0000
  C   C1506     1.0  0.80895  0.97823  0.17917  1.0000
  C   C1507     1.0  0.89442  0.99726  0.37920  1.0000
  S   S181      1.0  0.72376  0.17327  0.02903  1.0000
  S   S182      1.0  0.82871  0.15055  0.01534  1.0000
  Fe  Fe88      1.0  0.75820  0.90051  0.42884  1.0000
  H   H1181     1.0  0.86027  0.99400  0.16642  1.0000
  C   C1508     1.0  0.86268  0.13627  0.32608  1.0000
  C   C1509     1.0  0.75929  0.01050  0.02962  1.0000
  C   C1510     1.0  0.75748  0.04147  0.42046  1.0000
  C   C1511     1.0  0.83535  0.02198  0.21310  1.0000
  C   C1512     1.0  0.83709  0.99742  0.18453  1.0000
  S   S183      1.0  0.80682  0.12386  0.25499  1.0000
  H   H1182     1.0  0.89549  0.92964  0.03838  1.0000
  Fe  Fe89      1.0  0.77417  0.20383  0.46599  1.0000
  H   H1183     1.0  0.71807  0.96825  0.28643  1.0000
  S   S184      1.0  0.75694  0.15017  0.46256  1.0000
  C   C1513     1.0  0.86478  0.12485  0.43084  1.0000
  H   H1184     1.0  0.75483  0.01281  0.25014  1.0000
  C   C1514     1.0  0.70906  0.04905  0.05917  1.0000
  C   C1515     1.0  0.67821  0.97648  0.36406  1.0000
  H   H1185     1.0  0.88553  0.99312  0.02743  1.0000
  C   C1516     1.0  0.83056  0.99660  0.10016  1.0000
  H   H1186     1.0  0.71724  0.17267  0.15073  1.0000
  C   C1517     1.0  0.71326  0.07081  0.14296  1.0000
  C   C1518     1.0  0.87143  0.98404  0.04923  1.0000
  C   C1519     1.0  0.80026  0.14535  0.08081  1.0000
  C   C1520     1.0  0.72824  0.12487  0.35563  1.0000
  C   C1521     1.0  0.69374  0.02139  0.50509  1.0000
  C   C1522     1.0  0.83287  0.12352  0.34011  1.0000
  C   C1523     1.0  0.84658  0.95983  0.44847  1.0000
  H   H1187     1.0  0.81399  0.14057  0.35801  1.0000
  H   H1188     1.0  0.82846  0.09120  0.41417  1.0000
  C   C1524     1.0  0.87722  0.94831  0.05553  1.0000
  C   C1525     1.0  0.90872  0.01868  0.35587  1.0000
  H   H1189     1.0  0.69888  0.07123  0.07745  1.0000
  C   C1526     1.0  0.84789  0.00809  0.07135  1.0000
  C   C1527     1.0  0.67926  0.13567  0.39943  1.0000
  C   C1528     1.0  0.73644  0.99248  0.01118  1.0000
  H   H1190     1.0  0.75280  0.13168  0.34469  1.0000
  C   C1529     1.0  0.68791  0.93482  0.25777  1.0000
  C   C1530     1.0  0.69644  0.96747  0.27014  1.0000
  H   H1191     1.0  0.72081  0.94356  0.05989  1.0000
  C   C1531     1.0  0.81990  0.02328  0.40390  1.0000
  H   H1192     1.0  0.84767  0.03969  0.30145  1.0000
  H   H1193     1.0  0.69388  0.90689  0.15762  1.0000
  C   C1532     1.0  0.71261  0.91727  0.14049  1.0000
  C   C1533     1.0  0.68259  0.08170  0.48960  1.0000
  C   C1534     1.0  0.86293  0.94491  0.50471  1.0000
  C   C1535     1.0  0.82897  0.13513  0.05634  1.0000
  H   H1194     1.0  0.72258  0.16556  0.39744  1.0000
  C   C1536     1.0  0.91985  0.10976  0.18594  1.0000
  H   H1195     1.0  0.77804  0.16388  0.07503  1.0000
  C   C1537     1.0  0.80567  0.02749  0.23664  1.0000
  H   H1196     1.0  0.86643  0.95849  0.26485  1.0000
  H   H1197     1.0  0.77052  0.00993  0.33649  1.0000
  H   H1198     1.0  0.84346  0.03578  0.06651  1.0000
  C   C1538     1.0  0.87493  0.90812  0.16103  1.0000
  H   H1199     1.0  0.75742  0.96949  0.20071  1.0000
  S   S185      1.0  0.76798  0.17679  0.20176  1.0000
  H   H1200     1.0  0.81278  0.01577  0.11729  1.0000
  H   H1201     1.0  0.86159  0.07879  0.49741  1.0000
  C   C1539     1.0  0.79407  0.91696  0.28455  1.0000
  H   H1202     1.0  0.67973  0.12131  0.14673  1.0000
  S   S186      1.0  0.82948  0.08923  0.16027  1.0000
  C   C1540     1.0  0.85429  0.09180  0.42336  1.0000
  S   S187      1.0  0.72707  0.16722  0.27646  1.0000
  H   H1203     1.0  0.76730  0.19925  0.39419  1.0000
  H   H1204     1.0  0.88036  0.10387  0.04554  1.0000
  C   C1541     1.0  0.77782  0.00833  0.23182  1.0000
  H   H1205     1.0  0.69787  0.98402  0.34594  1.0000
  H   H1206     1.0  0.68964  0.92088  0.34711  1.0000
  H   H1207     1.0  0.76169  0.20007  0.33149  1.0000
  H   H1208     1.0  0.84698  0.14876  0.42775  1.0000
  C   C1542     1.0  0.79592  0.92912  0.31880  1.0000
  H   H1209     1.0  0.74119  0.01818  0.14447  1.0000
  C   C1543     1.0  0.82929  0.10785  0.12083  1.0000
  H   H1210     1.0  0.72270  0.20663  0.09971  1.0000
  C   C1544     1.0  0.76980  0.93688  0.12927  1.0000
  H   H1211     1.0  0.87079  0.90289  0.29252  1.0000
  Fe  Fe90      1.0  0.79097  0.11966  0.20113  1.0000
  C   C1545     1.0  0.88742  0.11414  0.30304  1.0000
  C   C1546     1.0  0.71757  0.03645  0.15339  1.0000
  C   C1547     1.0  0.90289  0.96033  0.37346  1.0000
  H   H1212     1.0  0.89576  0.01864  0.48297  1.0000
  H   H1213     1.0  0.88060  0.07969  0.10257  1.0000
  H   H1214     1.0  0.75183  0.91642  0.17670  1.0000
  C   C1548     1.0  0.85182  0.06665  0.30826  1.0000
  H   H1215     1.0  0.68955  0.10824  0.49021  1.0000
  C   C1549     1.0  0.80037  0.13163  0.11306  1.0000
  C   C1550     1.0  0.88187  0.07915  0.29443  1.0000
  H   H1216     1.0  0.85660  0.03758  0.21627  1.0000
  C   C1551     1.0  0.77940  0.98379  0.20333  1.0000
  C   C1552     1.0  0.87721  0.06047  0.42707  1.0000
  H   H1217     1.0  0.80363  0.07958  0.34135  1.0000
  C   C1553     1.0  0.81189  0.01340  0.37051  1.0000
  H   H1218     1.0  0.72275  0.03475  0.38068  1.0000
  C   C1554     1.0  0.84550  0.93795  0.47544  1.0000
  C   C1555     1.0  0.82727  0.08890  0.33103  1.0000
  H   H1219     1.0  0.86633  0.16319  0.33359  1.0000
  C   C1556     1.0  0.88152  0.99646  0.48045  1.0000
  C   C1557     1.0  0.70169  0.05589  0.50711  1.0000
  C   C1558     1.0  0.86475  0.98923  0.45060  1.0000
  C   C1559     1.0  0.89219  0.90675  0.27458  1.0000
  Fe  Fe91      1.0  0.70198  0.17993  0.46588  1.0000
  H   H1220     1.0  0.67861  0.91962  0.09895  1.0000
  C   C1560     1.0  0.85819  0.09809  0.09655  1.0000
  C   C1561     1.0  0.68588  0.03094  0.04099  1.0000
  H   H1221     1.0  0.73388  0.07946  0.12668  1.0000
  H   H1222     1.0  0.76341  0.05317  0.06746  1.0000
  C   C1562     1.0  0.88958  0.93866  0.25891  1.0000
  H   H1223     1.0  0.89202  0.94307  0.39063  1.0000
  C   C1563     1.0  0.91121  0.06299  0.43724  1.0000
  H   H1224     1.0  0.90611  0.15298  0.44762  1.0000
  C   C1564     1.0  0.91684  0.94506  0.23574  1.0000
  C   C1565     1.0  0.78339  0.21050  0.34270  1.0000
  C   C1566     1.0  0.78645  0.21009  0.37819  1.0000
  H   H1225     1.0  0.91506  0.96981  0.22364  1.0000
  C   C1567     1.0  0.89883  0.21206  0.01228  1.0000
  H   H1226     1.0  0.79742  0.21022  0.14192  1.0000
  C   C1568     1.0  0.92145  0.09622  0.44499  1.0000
  C   C1569     1.0  0.92189  0.88053  0.26677  1.0000
  H   H1227     1.0  0.83181  0.92397  0.01026  1.0000
  C   C1570     1.0  0.78473  0.03395  0.93926  1.0000
  H   H1228     1.0  0.78296  0.96387  0.54359  1.0000
  H   H1229     1.0  0.82797  0.13691  0.51844  1.0000
  H   H1230     1.0  0.77774  0.18569  0.79248  1.0000
  H   H1231     1.0  0.80023  0.92063  0.67227  1.0000
  H   H1232     1.0  0.71198  0.98430  0.73034  1.0000
  H   H1233     1.0  0.73306  0.88857  0.84707  1.0000
  H   H1234     1.0  0.76850  0.04314  0.87068  1.0000
  H   H1235     1.0  0.79578  0.03440  0.68636  1.0000
  C   C1571     1.0  0.85024  0.20957  0.92811  1.0000
  C   C1572     1.0  0.82565  0.95607  0.96751  1.0000
  H   H1236     1.0  0.84451  0.06372  0.90098  1.0000
  H   H1237     1.0  0.74683  0.97093  0.99204  1.0000
  C   C1573     1.0  0.82906  0.98925  0.61019  1.0000
  Fe  Fe92      1.0  0.68489  0.90821  0.94432  1.0000
  C   C1574     1.0  0.86950  0.09312  0.51966  1.0000
  S   S188      1.0  0.76567  0.10845  0.54611  1.0000
  C   C1575     1.0  0.73580  0.11485  0.66115  1.0000
  C   C1576     1.0  0.81277  0.95807  0.81557  1.0000
  H   H1238     1.0  0.74310  0.92545  0.70630  1.0000
  C   C1577     1.0  0.67793  0.97068  0.57305  1.0000
  H   H1239     1.0  0.89663  0.03921  0.74295  1.0000
  H   H1240     1.0  0.75182  0.05554  0.59104  1.0000
  H   H1241     1.0  0.82496  0.05632  0.96657  1.0000
  C   C1578     1.0  0.87216  0.01225  0.70273  1.0000
  C   C1579     1.0  0.87939  0.13780  0.65339  1.0000
  C   C1580     1.0  0.90988  0.03940  0.81701  1.0000
  H   H1242     1.0  0.89139  0.16594  0.79279  1.0000
  C   C1581     1.0  0.88098  0.12123  0.71206  1.0000
  C   C1582     1.0  0.85839  0.17267  0.92592  1.0000
  C   C1583     1.0  0.88842  0.13027  0.57830  1.0000
  H   H1243     1.0  0.87032  0.92318  0.59046  1.0000
  C   C1584     1.0  0.73630  0.10779  0.81158  1.0000
  C   C1585     1.0  0.80945  0.96860  0.59007  1.0000
  C   C1586     1.0  0.87065  0.20025  0.75632  1.0000
  H   H1244     1.0  0.79494  0.02213  0.52521  1.0000
  C   C1587     1.0  0.81066  0.96029  0.93611  1.0000
  H   H1245     1.0  0.73532  0.17115  0.66004  1.0000
  H   H1246     1.0  0.86482  0.01247  0.81168  1.0000
  C   C1588     1.0  0.77056  0.12808  0.86883  1.0000
  C   C1589     1.0  0.80395  0.18811  0.78178  1.0000
  H   H1247     1.0  0.90758  0.12827  0.83139  1.0000
  H   H1248     1.0  0.90557  0.07815  0.90030  1.0000
  C   C1590     1.0  0.78871  0.98280  0.80157  1.0000
  H   H1249     1.0  0.75390  0.03230  0.81082  1.0000
  C   C1591     1.0  0.83004  0.20621  0.87089  1.0000
  S   S189      1.0  0.69437  0.18389  0.52318  1.0000
  H   H1250     1.0  0.73839  0.03862  0.72032  1.0000
  C   C1592     1.0  0.87684  0.91145  0.61388  1.0000
  H   H1251     1.0  0.84319  0.16907  0.57064  1.0000
  C   C1593     1.0  0.77272  0.01332  0.82166  1.0000
  C   C1594     1.0  0.74878  0.08077  0.60604  1.0000
  C   C1595     1.0  0.74828  0.03493  0.93740  1.0000
  C   C1596     1.0  0.72456  0.06031  0.95781  1.0000
  C   C1597     1.0  0.85923  0.14418  0.56125  1.0000
  C   C1598     1.0  0.80454  0.01283  0.54880  1.0000
  C   C1599     1.0  0.70948  0.96325  0.58855  1.0000
  H   H1252     1.0  0.78128  0.11959  0.78127  1.0000
  H   H1253     1.0  0.89478  0.11867  0.73516  1.0000
  S   S190      1.0  0.72858  0.11556  0.70592  1.0000
  H   H1254     1.0  0.84792  0.04015  0.61600  1.0000
  Fe  Fe93      1.0  0.69586  0.16615  0.72842  1.0000
  C   C1600     1.0  0.75249  0.01285  0.71049  1.0000
  H   H1255     1.0  0.74958  0.16846  0.59714  1.0000
  H   H1256     1.0  0.78373  0.13490  0.89131  1.0000
  C   C1601     1.0  0.72028  0.10688  0.84462  1.0000
  H   H1257     1.0  0.69441  0.09871  0.84812  1.0000
  H   H1258     1.0  0.86292  0.20979  0.66674  1.0000
  Fe  Fe94      1.0  0.70715  0.17746  0.97581  1.0000
  H   H1259     1.0  0.76740  0.88825  0.93363  1.0000
  C   C1602     1.0  0.80718  0.21049  0.75544  1.0000
  H   H1260     1.0  0.83836  0.94403  0.86069  1.0000
  H   H1261     1.0  0.72297  0.10013  0.78929  1.0000
  C   C1603     1.0  0.78375  0.90715  0.94302  1.0000
  P   P55       1.0  0.81471  0.99961  0.91429  1.0000
  H   H1262     1.0  0.73818  0.01564  0.92065  1.0000
  C   C1604     1.0  0.68874  0.99081  0.86271  1.0000
  H   H1263     1.0  0.82550  0.93443  0.80010  1.0000
  C   C1605     1.0  0.68590  0.00480  0.63698  1.0000
  C   C1606     1.0  0.78511  0.01033  0.69142  1.0000
  H   H1264     1.0  0.68929  0.18372  0.90790  1.0000
  C   C1607     1.0  0.83417  0.17023  0.79464  1.0000
  C   C1608     1.0  0.84985  0.06924  0.81855  1.0000
  S   S191      1.0  0.69683  0.95729  0.92098  1.0000
  H   H1265     1.0  0.92164  0.14487  0.68614  1.0000
  S   S192      1.0  0.76141  0.18088  0.95171  1.0000
  P   P56       1.0  0.90034  0.15417  0.61623  1.0000
  C   C1609     1.0  0.82317  0.03394  0.56922  1.0000
  H   H1266     1.0  0.85086  0.00662  0.72011  1.0000
  S   S193      1.0  0.70222  0.90421  0.99740  1.0000
  C   C1610     1.0  0.86661  0.92985  0.64619  1.0000
  C   C1611     1.0  0.89810  0.07868  0.53684  1.0000
  C   C1612     1.0  0.75259  0.11169  0.59007  1.0000
  C   C1613     1.0  0.81989  0.92745  0.98633  1.0000
  H   H1267     1.0  0.68334  0.11912  0.56148  1.0000
  C   C1614     1.0  0.80326  0.97708  0.67823  1.0000
  H   H1268     1.0  0.89645  0.20580  0.74703  1.0000
  C   C1615     1.0  0.88536  0.20088  0.61411  1.0000
  H   H1269     1.0  0.85822  0.12402  0.89519  1.0000
  C   C1616     1.0  0.84613  0.12664  0.65191  1.0000
  H   H1270     1.0  0.83211  0.12850  0.62890  1.0000
  S   S194      1.0  0.69810  0.18295  0.78400  1.0000
  C   C1617     1.0  0.90145  0.88840  0.87753  1.0000
  C   C1618     1.0  0.78637  0.13022  0.83576  1.0000
  C   C1619     1.0  0.71334  0.98001  0.62064  1.0000
  C   C1620     1.0  0.83843  0.16910  0.86837  1.0000
  H   H1271     1.0  0.90712  0.99616  0.61964  1.0000
  H   H1272     1.0  0.68977  0.01797  0.66151  1.0000
  C   C1621     1.0  0.78912  0.93593  0.92430  1.0000
  C   C1622     1.0  0.73844  0.14601  0.64505  1.0000
  C   C1623     1.0  0.75509  0.94913  0.70253  1.0000
  H   H1273     1.0  0.68285  0.98795  0.00235  1.0000
  C   C1624     1.0  0.77325  0.08266  0.98379  1.0000
  C   C1625     1.0  0.79749  0.98025  0.55935  1.0000
  C   C1626     1.0  0.83502  0.02250  0.59999  1.0000
  C   C1627     1.0  0.89637  0.13566  0.68396  1.0000
  H   H1274     1.0  0.69645  0.06112  0.95605  1.0000
  C   C1628     1.0  0.84793  0.11015  0.71041  1.0000
  H   H1275     1.0  0.72533  0.11567  0.89893  1.0000
  C   C1629     1.0  0.74680  0.14447  0.60943  1.0000
  H   H1276     1.0  0.84155  0.97506  0.97757  1.0000
  H   H1277     1.0  0.67497  0.95759  0.54816  1.0000
  C   C1630     1.0  0.73758  0.11669  0.87324  1.0000
  H   H1278     1.0  0.86182  0.92802  0.52569  1.0000
  H   H1279     1.0  0.78234  0.97818  0.77526  1.0000
  C   C1631     1.0  0.83053  0.11292  0.68038  1.0000
  C   C1632     1.0  0.85249  0.15251  0.89618  1.0000
  C   C1633     1.0  0.76925  0.11929  0.80711  1.0000
  H   H1280     1.0  0.71872  0.10318  0.99736  1.0000
  H   H1281     1.0  0.80341  0.94346  0.59813  1.0000
  C   C1634     1.0  0.86755  0.17742  0.78233  1.0000
  H   H1282     1.0  0.73829  0.05822  0.65367  1.0000
  H   H1283     1.0  0.73099  0.94461  0.57563  1.0000
  H   H1284     1.0  0.86863  0.15966  0.94757  1.0000
  C   C1635     1.0  0.73707  0.08407  0.98103  1.0000
  H   H1285     1.0  0.88356  0.95630  0.92050  1.0000
  C   C1636     1.0  0.85936  0.00942  0.91231  1.0000
  C   C1637     1.0  0.86599  0.04353  0.90561  1.0000
  H   H1286     1.0  0.73773  0.97402  0.63274  1.0000
  H   H1287     1.0  0.77577  0.93939  0.90108  1.0000
  Fe  Fe95      1.0  0.77676  0.18136  0.00585  1.0000
  H   H1288     1.0  0.72314  0.06232  0.52168  1.0000
  C   C1638     1.0  0.74077  0.08229  0.64153  1.0000
  C   C1639     1.0  0.90037  0.05179  0.90517  1.0000
  C   C1640     1.0  0.68341  0.96075  0.87952  1.0000
  H   H1289     1.0  0.79717  0.89233  0.84187  1.0000
  Fe  Fe96      1.0  0.75051  0.15773  0.51997  1.0000
  S   S195      1.0  0.89343  0.89458  0.83478  1.0000
  H   H1290     1.0  0.86991  0.92808  0.70104  1.0000
  H   H1291     1.0  0.90554  0.20181  0.56106  1.0000
  C   C1641     1.0  0.90736  0.09702  0.56618  1.0000
  C   C1642     1.0  0.89772  0.10344  0.82609  1.0000
  C   C1643     1.0  0.80400  0.99374  0.87028  1.0000
  C   C1644     1.0  0.90400  0.00627  0.64640  1.0000
  C   C1645     1.0  0.78772  0.94650  0.68345  1.0000
  H   H1292     1.0  0.79465  0.88077  0.98857  1.0000
  H   H1293     1.0  0.82704  0.05994  0.56194  1.0000
  H   H1294     1.0  0.70039  0.01176  0.87553  1.0000
  C   C1646     1.0  0.87393  0.03795  0.81543  1.0000
  C   C1647     1.0  0.86146  0.10242  0.82402  1.0000
  C   C1648     1.0  0.67911  0.99384  0.82920  1.0000
  C   C1649     1.0  0.87671  0.91402  0.67589  1.0000
  H   H1295     1.0  0.91977  0.20216  0.87127  1.0000
  C   C1650     1.0  0.73750  0.98228  0.71603  1.0000
  C   C1651     1.0  0.88777  0.98319  0.91673  1.0000
  C   C1652     1.0  0.79892  0.90304  0.97410  1.0000
  H   H1296     1.0  0.83583  0.09940  0.73236  1.0000
  P   P57       1.0  0.84322  0.97450  0.65038  1.0000
  C   C1653     1.0  0.87463  0.00056  0.66768  1.0000
  H   H1297     1.0  0.78271  0.10068  0.00240  1.0000
  C   C1654     1.0  0.79711  0.05756  0.96314  1.0000
  H   H1298     1.0  0.82228  0.06704  0.81710  1.0000
  C   C1655     1.0  0.78069  0.01910  0.85579  1.0000
  P   P58       1.0  0.83003  0.14296  0.83028  1.0000
  H   H1299     1.0  0.80487  0.10442  0.67918  1.0000
  C   C1656     1.0  0.82021  0.96353  0.84981  1.0000
  H   H1300     1.0  0.88457  0.19017  0.00644  1.0000
  C   C1657     1.0  0.92212  0.99150  0.91617  1.0000
  C   C1658     1.0  0.85029  0.12591  0.53172  1.0000
  H   H1301     1.0  0.89371  0.98012  0.53031  1.0000
  H   H1302     1.0  0.91337  0.05336  0.52752  1.0000
  C   C1659     1.0  0.89808  0.03054  0.71588  1.0000
  H   H1303     1.0  0.70931  0.00125  0.51784  1.0000
  S   S196      1.0  0.80459  0.88364  0.54382  1.0000
  C   C1660     1.0  0.92183  0.07211  0.82182  1.0000
  H   H1304     1.0  0.68337  0.01710  0.81625  1.0000
  S   S197      1.0  0.77325  0.20864  0.52348  1.0000
  H   H1305     1.0  0.73155  0.88346  0.56941  1.0000
  C   C1661     1.0  0.00477  0.53678  0.19263  1.0000
  Fe  Fe97      1.0  0.11493  0.21709  0.01484  1.0000
  S   S198      1.0  0.96093  0.22921  0.46951  1.0000
  C   C1662     1.0  0.02833  0.41168  0.26328  1.0000
  C   C1663     1.0  0.92993  0.23457  0.28637  1.0000
  H   H1306     1.0  0.93691  0.42871  0.17539  1.0000
  C   C1664     1.0  0.99753  0.23145  0.40758  1.0000
  C   C1665     1.0  0.98901  0.53098  0.22450  1.0000
  H   H1307     1.0  0.16015  0.53126  0.17508  1.0000
  H   H1308     1.0  0.09827  0.37980  0.32566  1.0000
  H   H1309     1.0  0.94507  0.24512  0.16039  1.0000
  C   C1666     1.0  0.14958  0.38400  0.40475  1.0000
  C   C1667     1.0  0.00849  0.46132  0.14151  1.0000
  C   C1668     1.0  0.01196  0.37411  0.30744  1.0000
  C   C1669     1.0  0.14653  0.34235  0.10824  1.0000
  C   C1670     1.0  0.08851  0.42628  0.03280  1.0000
  S   S199      1.0  0.07475  0.50401  0.09416  1.0000
  C   C1671     1.0  0.13835  0.47019  0.21147  1.0000
  S   S200      1.0  0.10942  0.30813  0.29551  1.0000
  P   P59       1.0  0.05276  0.41756  0.22336  1.0000
  H   H1310     1.0  0.12914  0.33592  0.49996  1.0000
  Fe  Fe98      1.0  0.97530  0.52230  0.01739  1.0000
  Fe  Fe99      1.0  0.05026  0.27303  0.02528  1.0000
  H   H1311     1.0  0.09299  0.52509  0.27692  1.0000
  H   H1312     1.0  0.92692  0.34749  0.26334  1.0000
  C   C1672     1.0  0.98380  0.54538  0.16590  1.0000
  S   S201      1.0  0.97840  0.28463  0.21364  1.0000
  C   C1673     1.0  0.94505  0.42410  0.41781  1.0000
  Fe  Fe100     1.0  0.01975  0.34017  0.47551  1.0000
  C   C1674     1.0  0.96333  0.43544  0.17273  1.0000
  C   C1675     1.0  0.03230  0.45128  0.16566  1.0000
  C   C1676     1.0  0.07675  0.37568  0.20512  1.0000
  C   C1677     1.0  0.05378  0.32222  0.38831  1.0000
  Fe  Fe101     1.0  0.02197  0.25043  0.23575  1.0000
  Fe  Fe102     1.0  0.08329  0.26260  0.27608  1.0000
  H   H1313     1.0  0.96041  0.47438  0.40692  1.0000
  H   H1314     1.0  0.11593  0.42716  0.03720  1.0000
  H   H1315     1.0  0.93364  0.23056  0.37239  1.0000
  H   H1316     1.0  0.95548  0.46267  0.12689  1.0000
  S   S202      1.0  0.97504  0.52600  0.07464  1.0000
  C   C1678     1.0  0.95228  0.53403  0.22975  1.0000
  Fe  Fe103     1.0  0.98847  0.27365  0.48793  1.0000
  H   H1317     1.0  0.96483  0.41878  0.43595  1.0000
  C   C1679     1.0  0.09952  0.50246  0.25805  1.0000
  C   C1680     1.0  0.12728  0.22371  0.43269  1.0000
  C   C1681     1.0  0.98405  0.43503  0.30988  1.0000
  C   C1682     1.0  0.93096  0.54286  0.20301  1.0000
  H   H1318     1.0  0.02739  0.24489  0.16043  1.0000
  H   H1319     1.0  0.07194  0.27856  0.35026  1.0000
  C   C1683     1.0  0.08622  0.36363  0.34327  1.0000
  H   H1320     1.0  0.04194  0.25619  0.09969  1.0000
  C   C1684     1.0  0.07615  0.47771  0.25459  1.0000
  H   H1321     1.0  0.92961  0.39906  0.01124  1.0000
  H   H1322     1.0  0.11019  0.49132  0.02751  1.0000
  H   H1323     1.0  0.06609  0.40759  0.38031  1.0000
  C   C1685     1.0  0.98861  0.40243  0.32414  1.0000
  S   S203      1.0  0.01754  0.31595  0.06086  1.0000
  H   H1324     1.0  0.12095  0.42432  0.18742  1.0000
  H   H1325     1.0  0.07876  0.23475  0.40835  1.0000
  H   H1326     1.0  0.01514  0.34862  0.31817  1.0000
  C   C1686     1.0  0.96821  0.54095  0.36303  1.0000
  H   H1327     1.0  0.98993  0.42320  0.01965  1.0000
  H   H1328     1.0  0.92988  0.25326  0.26688  1.0000
  H   H1329     1.0  0.07461  0.31077  0.14134  1.0000
  C   C1687     1.0  0.08355  0.44897  0.22941  1.0000
  H   H1330     1.0  0.08315  0.50176  0.43683  1.0000
  H   H1331     1.0  0.97410  0.39893  0.34806  1.0000
  H   H1332     1.0  0.01332  0.40830  0.07505  1.0000
  H   H1333     1.0  0.15923  0.28456  0.34079  1.0000
  H   H1334     1.0  0.13796  0.24631  0.42336  1.0000
  H   H1335     1.0  0.12892  0.34765  0.43736  1.0000
  H   H1336     1.0  0.96562  0.45694  0.32238  1.0000
  C   C1688     1.0  0.00440  0.46648  0.48229  1.0000
  H   H1337     1.0  0.12361  0.39726  0.40120  1.0000
  H   H1338     1.0  0.93519  0.43598  0.06422  1.0000
  H   H1339     1.0  0.05592  0.48361  0.33340  1.0000
  H   H1340     1.0  0.92611  0.53715  0.40167  1.0000
  H   H1341     1.0  0.95200  0.28811  0.03644  1.0000
  H   H1342     1.0  0.11348  0.30621  0.08755  1.0000
  C   C1689     1.0  0.10705  0.36072  0.21984  1.0000
  S   S204      1.0  0.10756  0.27603  0.01318  1.0000
  H   H1343     1.0  0.16210  0.46768  0.19418  1.0000
  H   H1344     1.0  0.05899  0.45737  0.16212  1.0000
  H   H1345     1.0  0.92798  0.27130  0.42357  1.0000
  S   S205      1.0  0.05858  0.21493  0.03206  1.0000
  C   C1690     1.0  0.09389  0.21728  0.42427  1.0000
  C   C1691     1.0  0.13553  0.54053  0.16465  1.0000
  C   C1692     1.0  0.09043  0.49044  0.41066  1.0000
  H   H1346     1.0  0.10860  0.22241  0.08993  1.0000
  H   H1347     1.0  0.13556  0.49242  0.13220  1.0000
  H   H1348     1.0  0.11436  0.44848  0.31717  1.0000
  C   C1693     1.0  0.12163  0.51864  0.14040  1.0000
  C   C1694     1.0  0.13064  0.49870  0.23657  1.0000
  H   H1349     1.0  0.94051  0.53045  0.25498  1.0000
  H   H1350     1.0  0.00530  0.52499  0.24534  1.0000
  C   C1695     1.0  0.12367  0.47044  0.40180  1.0000
  H   H1351     1.0  0.03157  0.46560  0.47233  1.0000
  H   H1352     1.0  0.05223  0.48174  0.27133  1.0000
  C   C1696     1.0  0.03199  0.37869  0.27730  1.0000
  C   C1697     1.0  0.99522  0.44048  0.50303  1.0000
  H   H1353     1.0  0.98589  0.51487  0.46010  1.0000
  C   C1698     1.0  0.94248  0.45553  0.40154  1.0000
  H   H1354     1.0  0.97870  0.40945  0.21697  1.0000
  H   H1355     1.0  0.96087  0.52104  0.34501  1.0000
  C   C1699     1.0  0.00332  0.43946  0.27929  1.0000
  H   H1356     1.0  0.17090  0.35392  0.33030  1.0000
  H   H1357     1.0  0.11557  0.37370  0.24267  1.0000
  C   C1700     1.0  0.10627  0.39092  0.50833  1.0000
  H   H1358     1.0  0.92423  0.37601  0.42470  1.0000
  H   H1359     1.0  0.04026  0.51059  0.39277  1.0000
  C   C1701     1.0  0.03057  0.41589  0.05464  1.0000
  C   C1702     1.0  0.06788  0.37933  0.37405  1.0000
  C   C1703     1.0  0.13306  0.45549  0.36793  1.0000
  H   H1360     1.0  0.16339  0.26031  0.06567  1.0000
  H   H1361     1.0  0.99740  0.25933  0.41469  1.0000
  C   C1704     1.0  0.02410  0.27561  0.11631  1.0000
  H   H1362     1.0  0.95938  0.34486  0.17601  1.0000
  C   C1705     1.0  0.06508  0.35739  0.17670  1.0000
  H   H1363     1.0  0.12822  0.28494  0.16690  1.0000
  H   H1364     1.0  0.94050  0.27389  0.10613  1.0000
  C   C1706     1.0  0.98689  0.33253  0.12573  1.0000
  C   C1707     1.0  0.07512  0.48026  0.35230  1.0000
  C   C1708     1.0  0.11486  0.44557  0.20772  1.0000
  S   S206      1.0  0.04295  0.28286  0.47034  1.0000
  C   C1709     1.0  0.08388  0.32496  0.16295  1.0000
  C   C1710     1.0  0.05280  0.35847  0.39721  1.0000
  C   C1711     1.0  0.06617  0.49536  0.38589  1.0000
  S   S207      1.0  0.02664  0.25999  0.29214  1.0000
  H   H1365     1.0  0.92471  0.51783  0.48426  1.0000
  C   C1712     1.0  0.07111  0.30663  0.35698  1.0000
  C   C1713     1.0  0.11440  0.31057  0.17723  1.0000
  C   C1714     1.0  0.01601  0.26931  0.15071  1.0000
  H   H1366     1.0  0.14823  0.51849  0.23868  1.0000
  C   C1715     1.0  0.99209  0.29397  0.17205  1.0000
  H   H1367     1.0  0.07616  0.41159  0.08384  1.0000
  H   H1368     1.0  0.14820  0.31602  0.21821  1.0000
  Fe  Fe104     1.0  0.03211  0.53209  0.06533  1.0000
  C   C1716     1.0  0.93198  0.24606  0.32072  1.0000
  H   H1369     1.0  0.99842  0.46453  0.26804  1.0000
  H   H1370     1.0  0.14184  0.46603  0.42150  1.0000
  C   C1717     1.0  0.02151  0.43358  0.19382  1.0000
  H   H1371     1.0  0.03326  0.53475  0.18872  1.0000
  H   H1372     1.0  0.05003  0.35619  0.26519  1.0000
  C   C1718     1.0  0.08773  0.32727  0.33467  1.0000
  S   S208      1.0  0.96434  0.33029  0.48824  1.0000
  C   C1719     1.0  0.97764  0.32564  0.15954  1.0000
  H   H1373     1.0  0.04086  0.30621  0.40525  1.0000
  H   H1374     1.0  0.04134  0.36766  0.16523  1.0000
  C   C1720     1.0  0.93228  0.22183  0.34571  1.0000
  H   H1375     1.0  0.12462  0.36260  0.11766  1.0000
  H   H1376     1.0  0.01679  0.47514  0.11994  1.0000
  C   C1721     1.0  0.01744  0.42412  0.02344  1.0000
  C   C1722     1.0  0.06605  0.41726  0.05941  1.0000
  C   C1723     1.0  0.92305  0.38950  0.03587  1.0000
  C   C1724     1.0  0.12575  0.32821  0.20593  1.0000
  S   S209      1.0  0.03436  0.37820  0.43756  1.0000
  H   H1377     1.0  0.14239  0.52367  0.32558  1.0000
  C   C1725     1.0  0.94380  0.49535  0.48868  1.0000
  C   C1726     1.0  0.09047  0.53107  0.12593  1.0000
  C   C1727     1.0  0.97389  0.45402  0.14534  1.0000
  C   C1728     1.0  0.00927  0.30720  0.10378  1.0000
  C   C1729     1.0  0.15260  0.35596  0.42577  1.0000
  H   H1378     1.0  0.97642  0.35737  0.11637  1.0000
  H   H1379     1.0  0.93329  0.27368  0.32794  1.0000
  C   C1730     1.0  0.97872  0.49405  0.47530  1.0000
  S   S210      1.0  0.07775  0.25616  0.21968  1.0000
  C   C1731     1.0  0.98711  0.42488  0.19664  1.0000
  H   H1380     1.0  0.09976  0.39311  0.48201  1.0000
  C   C1732     1.0  0.16866  0.28490  0.07848  1.0000
  C   C1733     1.0  0.14030  0.31068  0.09120  1.0000
  H   H1381     1.0  0.02550  0.23246  0.35812  1.0000
  C   C1734     1.0  0.10841  0.46043  0.34323  1.0000
  C   C1735     1.0  0.93647  0.26760  0.02909  1.0000
  C   C1736     1.0  0.01326  0.21634  0.37552  1.0000
  C   C1737     1.0  0.92627  0.41042  0.06585  1.0000
  C   C1738     1.0  0.93408  0.46848  0.50838  1.0000
  H   H1382     1.0  0.01543  0.41986  0.50924  1.0000
  H   H1383     1.0  0.95377  0.42154  0.53298  1.0000
  S   S211      1.0  0.03322  0.52350  0.00797  1.0000
  C   C1739     1.0  0.09628  0.41976  0.53265  1.0000
  H   H1384     1.0  0.04633  0.33349  0.71240  1.0000
  S   S212      1.0  0.12236  0.29454  0.91926  1.0000
  H   H1385     1.0  0.11157  0.37301  0.74850  1.0000
  C   C1740     1.0  0.15622  0.30978  0.62195  1.0000
  H   H1386     1.0  0.04779  0.28053  0.59735  1.0000
  H   H1387     1.0  0.98039  0.23550  0.99909  1.0000
  C   C1741     1.0  0.92964  0.42767  0.83347  1.0000
  C   C1742     1.0  0.12915  0.35553  0.55285  1.0000
  H   H1388     1.0  0.03140  0.54000  0.87911  1.0000
  C   C1743     1.0  0.14230  0.37451  0.96253  1.0000
  C   C1744     1.0  0.01748  0.46218  0.60845  1.0000
  C   C1745     1.0  0.15779  0.34580  0.63074  1.0000
  C   C1746     1.0  0.00509  0.48256  0.66868  1.0000
  H   H1389     1.0  0.13331  0.30163  0.61061  1.0000
  C   C1747     1.0  0.92440  0.40805  0.86170  1.0000
  H   H1390     1.0  0.12531  0.49757  0.78207  1.0000
  H   H1391     1.0  0.13025  0.49102  0.91763  1.0000
  H   H1392     1.0  0.14058  0.32998  0.55999  1.0000
  C   C1748     1.0  0.14982  0.22611  0.68350  1.0000
  H   H1393     1.0  0.02047  0.44094  0.58815  1.0000
  S   S213      1.0  0.99778  0.47202  0.71106  1.0000
  S   S214      1.0  0.99842  0.27583  0.54325  1.0000
  H   H1394     1.0  0.05159  0.37670  0.59619  1.0000
  C   C1749     1.0  0.09444  0.24436  0.57825  1.0000
  H   H1395     1.0  0.04444  0.48165  0.93869  1.0000
  C   C1750     1.0  0.95018  0.30878  0.62466  1.0000
  H   H1396     1.0  0.08232  0.44423  0.52503  1.0000
  C   C1751     1.0  0.12335  0.25506  0.69205  1.0000
  C   C1752     1.0  0.09016  0.46192  0.76679  1.0000
  S   S215      1.0  0.00057  0.50486  0.80371  1.0000
  H   H1397     1.0  0.10658  0.26501  0.67272  1.0000
  H   H1398     1.0  0.95309  0.42662  0.78168  1.0000
  C   C1753     1.0  0.94320  0.29022  0.65329  1.0000
  C   C1754     1.0  0.95281  0.23779  0.00807  1.0000
  P   P60       1.0  0.10624  0.44291  0.96617  1.0000
  S   S216      1.0  0.03806  0.26620  0.97007  1.0000
  H   H1399     1.0  0.06797  0.48281  0.76722  1.0000
  C   C1755     1.0  0.00906  0.51706  0.66105  1.0000
  C   C1756     1.0  0.14474  0.41061  0.96867  1.0000
  C   C1757     1.0  0.94496  0.27596  0.91040  1.0000
  C   C1758     1.0  0.94006  0.24054  0.90453  1.0000
  H   H1400     1.0  0.02036  0.47837  0.88212  1.0000
  S   S217      1.0  0.10301  0.26778  0.54275  1.0000
  C   C1759     1.0  0.01998  0.35696  0.63527  1.0000
  S   S218      1.0  0.03104  0.34943  0.53061  1.0000
  H   H1401     1.0  0.96069  0.26651  0.65752  1.0000
  C   C1760     1.0  0.12816  0.50417  0.94329  1.0000
  C   C1761     1.0  0.13472  0.53917  0.94735  1.0000
  C   C1762     1.0  0.03497  0.36153  0.92093  1.0000
  C   C1763     1.0  0.11808  0.48686  0.97202  1.0000
  H   H1402     1.0  0.07592  0.48596  0.70064  1.0000
  C   C1764     1.0  0.95639  0.35547  0.82936  1.0000
  H   H1403     1.0  0.94928  0.34237  0.96951  1.0000
  C   C1765     1.0  0.12285  0.35885  0.51842  1.0000
  H   H1404     1.0  0.10252  0.34907  0.68724  1.0000
  C   C1766     1.0  0.03384  0.35753  0.95610  1.0000
  C   C1767     1.0  0.01739  0.52406  0.62694  1.0000
  C   C1768     1.0  0.09635  0.43883  0.66800  1.0000
  H   H1405     1.0  0.16809  0.32111  0.96420  1.0000
  C   C1769     1.0  0.10232  0.41650  0.56713  1.0000
  H   H1406     1.0  0.10098  0.34575  0.81143  1.0000
  C   C1770     1.0  0.11491  0.40014  0.75589  1.0000
  H   H1407     1.0  0.05922  0.36611  0.90736  1.0000
  C   C1771     1.0  0.03980  0.43300  0.99669  1.0000
  P   P61       1.0  0.12115  0.37882  0.62297  1.0000
  H   H1408     1.0  0.12618  0.21862  0.87700  1.0000
  C   C1772     1.0  0.09782  0.47271  0.68322  1.0000
  C   C1773     1.0  0.05140  0.36630  0.62107  1.0000
  C   C1774     1.0  0.09329  0.32735  0.82918  1.0000
  C   C1775     1.0  0.11698  0.50431  0.00493  1.0000
  C   C1776     1.0  0.12297  0.47022  0.77529  1.0000
  Fe  Fe105     1.0  0.99471  0.51846  0.74960  1.0000
  H   H1409     1.0  0.00603  0.53819  0.68137  1.0000
  C   C1777     1.0  0.07573  0.43399  0.00098  1.0000
  C   C1778     1.0  0.09375  0.41702  0.86449  1.0000
  C   C1779     1.0  0.96023  0.44143  0.51616  1.0000
  H   H1410     1.0  0.10652  0.51643  0.53617  1.0000
  Fe  Fe106     1.0  0.97770  0.33359  0.54309  1.0000
  H   H1411     1.0  0.17019  0.25598  0.86041  1.0000
  C   C1780     1.0  0.05700  0.23693  0.62882  1.0000
  C   C1781     1.0  0.08832  0.43963  0.92463  1.0000
  C   C1782     1.0  0.07972  0.35107  0.67239  1.0000
  C   C1783     1.0  0.11101  0.32229  0.85877  1.0000
  C   C1784     1.0  0.97368  0.35215  0.92043  1.0000
  C   C1785     1.0  0.17023  0.34891  0.96882  1.0000
  H   H1412     1.0  0.95800  0.28354  0.93276  1.0000
  Fe  Fe107     1.0  0.95673  0.25276  0.72845  1.0000
  C   C1786     1.0  0.12239  0.53970  0.00884  1.0000
  C   C1787     1.0  0.00856  0.45542  0.64230  1.0000
  H   H1413     1.0  0.97631  0.36244  0.77786  1.0000
  C   C1788     1.0  0.05540  0.28454  0.84510  1.0000
  Fe  Fe108     1.0  0.05067  0.29125  0.52606  1.0000
  H   H1414     1.0  0.13312  0.26818  0.77739  1.0000
  C   C1789     1.0  0.16547  0.22837  0.74237  1.0000
  H   H1415     1.0  0.17160  0.26278  0.51290  1.0000
  C   C1790     1.0  0.92740  0.33910  0.61838  1.0000
  C   C1791     1.0  0.00258  0.35155  0.97362  1.0000
  S   S219      1.0  0.93610  0.36272  0.58256  1.0000
  H   H1416     1.0  0.10813  0.40020  0.84324  1.0000
  H   H1417     1.0  0.16601  0.33309  0.79192  1.0000
  H   H1418     1.0  0.05721  0.35876  0.96984  1.0000
  H   H1419     1.0  0.99670  0.36014  0.62115  1.0000
  C   C1792     1.0  0.14790  0.40842  0.76409  1.0000
  C   C1793     1.0  0.12693  0.48966  0.67559  1.0000
  C   C1794     1.0  0.97280  0.34840  0.95581  1.0000
  H   H1420     1.0  0.09627  0.29189  0.73256  1.0000
  C   C1795     1.0  0.07265  0.28007  0.87524  1.0000
  C   C1796     1.0  0.08597  0.42693  0.75735  1.0000
  H   H1421     1.0  0.00170  0.34857  0.00092  1.0000
  H   H1422     1.0  0.06443  0.26208  0.89320  1.0000
  C   C1797     1.0  0.06557  0.30851  0.82236  1.0000
  Fe  Fe109     1.0  0.09626  0.26472  0.95848  1.0000
  H   H1423     1.0  0.11847  0.36611  0.95364  1.0000
  C   C1798     1.0  0.04804  0.34218  0.68670  1.0000
  H   H1424     1.0  0.06034  0.42076  0.75080  1.0000
  H   H1425     1.0  0.97381  0.30006  0.60814  1.0000
  C   C1799     1.0  0.06241  0.43856  0.85922  1.0000
  C   C1800     1.0  0.06479  0.25629  0.60104  1.0000
  C   C1801     1.0  0.95868  0.51664  0.93404  1.0000
  C   C1802     1.0  0.93639  0.49678  0.95158  1.0000
  C   C1803     1.0  0.11378  0.53636  0.55437  1.0000
  C   C1804     1.0  0.02216  0.49640  0.60078  1.0000
  Fe  Fe110     1.0  0.01906  0.26903  0.76708  1.0000
  H   H1426     1.0  0.00698  0.36116  0.87564  1.0000
  H   H1427     1.0  0.96837  0.32795  0.82774  1.0000
  H   H1428     1.0  0.94973  0.22131  0.92190  1.0000
  C   C1805     1.0  0.05784  0.46256  0.91855  1.0000
  H   H1429     1.0  0.03348  0.24574  0.64557  1.0000
  H   H1430     1.0  0.05221  0.43796  0.83410  1.0000
  C   C1806     1.0  0.12385  0.42182  0.64434  1.0000
  P   P62       1.0  0.93503  0.34755  0.89768  1.0000
  H   H1431     1.0  0.10517  0.50664  0.59795  1.0000
  H   H1432     1.0  0.02865  0.43827  0.97278  1.0000
  C   C1807     1.0  0.13836  0.25679  0.75104  1.0000
  C   C1808     1.0  0.10654  0.41729  0.89708  1.0000
  C   C1809     1.0  0.94829  0.41123  0.80326  1.0000
  S   S220      1.0  0.04411  0.31571  0.78524  1.0000
  C   C1810     1.0  0.01815  0.34515  0.66813  1.0000
  S   S221      1.0  0.03606  0.50342  0.55871  1.0000
  H   H1433     1.0  0.98250  0.52231  0.94497  1.0000
  C   C1811     1.0  0.10043  0.29900  0.88197  1.0000
  C   C1812     1.0  0.11331  0.53075  0.58922  1.0000
  S   S222      1.0  0.96508  0.25833  0.78436  1.0000
  H   H1434     1.0  0.03383  0.27004  0.83983  1.0000
  H   H1435     1.0  0.99339  0.33874  0.67929  1.0000
  C   C1813     1.0  0.93743  0.37166  0.85976  1.0000
  C   C1814     1.0  0.11746  0.27019  0.72584  1.0000
  H   H1436     1.0  0.17156  0.25510  0.95772  1.0000
  H   H1437     1.0  0.07314  0.42668  0.67432  1.0000
  C   C1815     1.0  0.11888  0.38431  0.57760  1.0000
  C   C1816     1.0  0.96141  0.37511  0.80113  1.0000
  S   S223      1.0  0.00891  0.26838  0.71179  1.0000
  H   H1438     1.0  0.00460  0.42908  0.64822  1.0000
  C   C1817     1.0  0.04446  0.46131  0.88627  1.0000
  C   C1818     1.0  0.08147  0.36353  0.63955  1.0000
  C   C1819     1.0  0.95030  0.52871  0.90220  1.0000
  S   S224      1.0  0.94645  0.48221  0.99148  1.0000
  H   H1439     1.0  0.13237  0.33699  0.86413  1.0000
  C   C1820     1.0  0.00510  0.35873  0.90303  1.0000
  H   H1440     1.0  0.09250  0.43873  0.58570  1.0000
  H   H1441     1.0  0.13083  0.40043  0.90046  1.0000
  C   C1821     1.0  0.93286  0.30097  0.88773  1.0000
  C   C1822     1.0  0.15406  0.47341  0.65148  1.0000
  C   C1823     1.0  0.15203  0.44346  0.77470  1.0000
  H   H1442     1.0  0.15775  0.51552  0.83008  1.0000
  C   C1824     1.0  0.15221  0.43987  0.63541  1.0000
  H   H1443     1.0  0.12780  0.51577  0.68783  1.0000
  H   H1444     1.0  0.17276  0.42802  0.61591  1.0000
  H   H1445     1.0  0.17023  0.38754  0.76196  1.0000
  H   H1446     1.0  0.96740  0.54421  0.88870  1.0000
  H   H1447     1.0  0.15339  0.21398  0.65745  1.0000
  C   C1825     1.0  0.92313  0.22973  0.87604  1.0000
  C   C1826     1.0  0.07086  0.68042  0.05295  1.0000
  Fe  Fe111     1.0  0.01513  0.66323  0.25971  1.0000
  H   H1448     1.0  0.02150  0.66354  0.04207  1.0000
  H   H1449     1.0  0.99613  0.55000  0.14131  1.0000
  H   H1450     1.0  0.16474  0.74314  0.24668  1.0000
  P   P63       1.0  0.98422  0.82911  0.50328  1.0000
  C   C1827     1.0  0.95330  0.68517  0.02192  1.0000
  H   H1451     1.0  0.97194  0.86769  0.23559  1.0000
  S   S225      1.0  0.92400  0.62135  0.10348  1.0000
  C   C1828     1.0  0.94702  0.54831  0.17090  1.0000
  H   H1452     1.0  0.95882  0.77484  0.24259  1.0000
  C   C1829     1.0  0.98186  0.65029  0.18095  1.0000
  S   S226      1.0  0.09278  0.64298  0.49642  1.0000
  C   C1830     1.0  0.15068  0.54833  0.33485  1.0000
  C   C1831     1.0  0.99631  0.55893  0.35396  1.0000
  H   H1453     1.0  0.08130  0.67592  0.02640  1.0000
  C   C1832     1.0  0.93990  0.80969  0.11988  1.0000
  H   H1454     1.0  0.92388  0.72941  0.33715  1.0000
  H   H1455     1.0  0.12939  0.71886  0.29194  1.0000
  C   C1833     1.0  0.92878  0.71178  0.38780  1.0000
  C   C1834     1.0  0.09034  0.66013  0.45635  1.0000
  C   C1835     1.0  0.03669  0.67377  0.06168  1.0000
  H   H1456     1.0  0.93639  0.65737  0.33609  1.0000
  H   H1457     1.0  0.99412  0.61329  0.42710  1.0000
  Fe  Fe112     1.0  0.03799  0.59858  0.29700  1.0000
  H   H1458     1.0  0.99445  0.85775  0.30564  1.0000
  C   C1836     1.0  0.07259  0.56492  0.13676  1.0000
  C   C1837     1.0  0.16518  0.77948  0.13471  1.0000
  C   C1838     1.0  0.15554  0.63635  0.04461  1.0000
  H   H1459     1.0  0.09691  0.77288  0.18266  1.0000
  H   H1460     1.0  0.12956  0.69414  0.46533  1.0000
  H   H1461     1.0  0.95381  0.78452  0.04819  1.0000
  H   H1462     1.0  0.94454  0.69384  0.43656  1.0000
  Fe  Fe113     1.0  0.08894  0.62322  0.24502  1.0000
  H   H1463     1.0  0.07368  0.72339  0.50603  1.0000
  C   C1839     1.0  0.11213  0.68496  0.44734  1.0000
  H   H1464     1.0  0.14745  0.78095  0.08413  1.0000
  S   S227      1.0  0.96750  0.69412  0.24068  1.0000
  C   C1840     1.0  0.02217  0.67993  0.09561  1.0000
  C   C1841     1.0  0.14522  0.59837  0.37733  1.0000
  H   H1465     1.0  0.99194  0.61625  0.13394  1.0000
  H   H1466     1.0  0.06690  0.75195  0.04859  1.0000
  C   C1842     1.0  0.08592  0.58640  0.16170  1.0000
  H   H1467     1.0  0.98989  0.79953  0.43124  1.0000
  C   C1843     1.0  0.01164  0.83618  0.46575  1.0000
  C   C1844     1.0  0.00907  0.81752  0.43400  1.0000
  C   C1845     1.0  0.00569  0.58504  0.37695  1.0000
  H   H1468     1.0  0.16209  0.85810  0.41370  1.0000
  C   C1846     1.0  0.16966  0.72282  0.15905  1.0000
  C   C1847     1.0  0.05967  0.86315  0.43991  1.0000
  H   H1469     1.0  0.92345  0.88027  0.17546  1.0000
  C   C1848     1.0  0.94860  0.55005  0.39476  1.0000
  C   C1849     1.0  0.94628  0.75219  0.14268  1.0000
  C   C1850     1.0  0.93741  0.63991  0.14181  1.0000
  H   H1470     1.0  0.00286  0.71301  0.43113  1.0000
  H   H1471     1.0  0.02768  0.59861  0.36999  1.0000
  S   S228      1.0  0.04108  0.82190  0.08608  1.0000
  H   H1472     1.0  0.98246  0.74935  0.33236  1.0000
  S   S229      1.0  0.93533  0.58498  0.45826  1.0000
  H   H1473     1.0  0.15199  0.66309  0.31532  1.0000
  C   C1851     1.0  0.07312  0.86108  0.17602  1.0000
  C   C1852     1.0  0.95817  0.57588  0.41785  1.0000
  C   C1853     1.0  0.15961  0.70726  0.12860  1.0000
  C   C1854     1.0  0.12323  0.74075  0.03356  1.0000
  C   C1855     1.0  0.97173  0.76238  0.16359  1.0000
  C   C1856     1.0  0.15527  0.70495  0.28260  1.0000
  S   S230      1.0  0.02211  0.59104  0.06620  1.0000
  H   H1474     1.0  0.06888  0.77242  0.25525  1.0000
  C   C1857     1.0  0.05776  0.82628  0.12638  1.0000
  H   H1475     1.0  0.02192  0.74126  0.37946  1.0000
  C   C1858     1.0  0.98689  0.59319  0.40919  1.0000
  C   C1859     1.0  0.03132  0.82212  0.40533  1.0000
  Fe  Fe114     1.0  0.97420  0.59613  0.49575  1.0000
  C   C1860     1.0  0.04231  0.69184  0.12114  1.0000
  H   H1476     1.0  0.93149  0.55534  0.14980  1.0000
  H   H1477     1.0  0.07059  0.77006  0.12684  1.0000
  H   H1478     1.0  0.94923  0.85310  0.41100  1.0000
  C   C1861     1.0  0.07130  0.79536  0.14059  1.0000
  H   H1479     1.0  0.04941  0.65284  0.38239  1.0000
  C   C1862     1.0  0.95206  0.75717  0.04021  1.0000
  H   H1480     1.0  0.05058  0.62953  0.44001  1.0000
  H   H1481     1.0  0.97493  0.84503  0.13823  1.0000
  C   C1863     1.0  0.97580  0.74000  0.01343  1.0000
  H   H1482     1.0  0.96041  0.76303  0.47815  1.0000
  C   C1864     1.0  0.08791  0.82987  0.18944  1.0000
  H   H1483     1.0  0.12968  0.63108  0.05374  1.0000
  H   H1484     1.0  0.07302  0.84930  0.38579  1.0000
  C   C1865     1.0  0.11100  0.69851  0.41519  1.0000
  S   S231      1.0  0.06848  0.68079  0.25792  1.0000
  H   H1485     1.0  0.09075  0.70930  0.13274  1.0000
  C   C1866     1.0  0.99584  0.73347  0.38196  1.0000
  H   H1486     1.0  0.05590  0.82827  0.29284  1.0000
  C   C1867     1.0  0.08618  0.79705  0.17208  1.0000
  H   H1487     1.0  0.13279  0.61246  0.40102  1.0000
  P   P64       1.0  0.92632  0.83933  0.28760  1.0000
  H   H1488     1.0  0.07191  0.61254  0.16997  1.0000
  H   H1489     1.0  0.96660  0.83441  0.35059  1.0000
  H   H1490     1.0  0.11465  0.55540  0.38042  1.0000
  H   H1491     1.0  0.00896  0.64598  0.18725  1.0000
  S   S232      1.0  0.13411  0.60078  0.20688  1.0000
  C   C1868     1.0  0.06739  0.64877  0.43312  1.0000
  C   C1869     1.0  0.09087  0.69386  0.07810  1.0000
  H   H1492     1.0  0.04102  0.87220  0.49318  1.0000
  H   H1493     1.0  0.15528  0.78152  0.50601  1.0000
  S   S233      1.0  0.11007  0.83117  0.22698  1.0000
  H   H1494     1.0  0.01998  0.74584  0.23051  1.0000
  C   C1870     1.0  0.13514  0.56612  0.36581  1.0000
  C   C1871     1.0  0.08854  0.75766  0.03168  1.0000
  H   H1495     1.0  0.02883  0.80840  0.38061  1.0000
  S   S234      1.0  0.09321  0.61041  0.29948  1.0000
  H   H1496     1.0  0.15700  0.67935  0.12681  1.0000
  Fe  Fe115     1.0  0.06791  0.66671  0.31249  1.0000
  H   H1497     1.0  0.99539  0.67525  0.10201  1.0000
  C   C1872     1.0  0.95172  0.70665  0.41403  1.0000
  C   C1873     1.0  0.92762  0.73882  0.05734  1.0000
  S   S235      1.0  0.96037  0.58064  0.01366  1.0000
  H   H1498     1.0  0.04813  0.57442  0.12659  1.0000
  H   H1499     1.0  0.16447  0.59791  0.10933  1.0000
  C   C1874     1.0  0.07650  0.69886  0.11250  1.0000
  H   H1500     1.0  0.05230  0.78187  0.48734  1.0000
  C   C1875     1.0  0.97145  0.81719  0.27771  1.0000
  C   C1876     1.0  0.03706  0.77168  0.50766  1.0000
  P   P65       1.0  0.13239  0.70845  0.06486  1.0000
  C   C1877     1.0  0.97228  0.63360  0.15057  1.0000
  H   H1501     1.0  0.94002  0.72546  0.14286  1.0000
  C   C1878     1.0  0.92945  0.77611  0.12138  1.0000
  H   H1502     1.0  0.03123  0.69616  0.14758  1.0000
  C   C1879     1.0  0.16428  0.67093  0.04699  1.0000
  S   S236      1.0  0.08885  0.70284  0.35115  1.0000
  C   C1880     1.0  0.06690  0.66172  0.40051  1.0000
  C   C1881     1.0  0.11754  0.57428  0.17545  1.0000
  C   C1882     1.0  0.03441  0.81621  0.28282  1.0000
  C   C1883     1.0  0.97352  0.73818  0.35552  1.0000
  C   C1884     1.0  0.99953  0.83260  0.29039  1.0000
  C   C1885     1.0  0.05650  0.84502  0.40826  1.0000
  S   S237      1.0  0.03554  0.60676  0.24145  1.0000
  C   C1886     1.0  0.04176  0.78479  0.26151  1.0000
  Fe  Fe116     1.0  0.96523  0.58458  0.07039  1.0000
  Fe  Fe117     1.0  0.01901  0.87053  0.06226  1.0000
  C   C1887     1.0  0.01422  0.76998  0.24746  1.0000
  C   C1888     1.0  0.98162  0.79608  0.16242  1.0000
  C   C1889     1.0  0.92972  0.70217  0.04888  1.0000
  S   S238      1.0  0.03001  0.56832  0.49069  1.0000
  C   C1890     1.0  0.16836  0.67321  0.29596  1.0000
  C   C1891     1.0  0.93931  0.84474  0.35783  1.0000
  C   C1892     1.0  0.94030  0.72711  0.35835  1.0000
  C   C1893     1.0  0.93795  0.78390  0.48068  1.0000
  H   H1503     1.0  0.00197  0.80376  0.17804  1.0000
  H   H1504     1.0  0.98419  0.74380  0.18018  1.0000
  C   C1894     1.0  0.96609  0.81949  0.14021  1.0000
  C   C1895     1.0  0.15415  0.76420  0.10452  1.0000
  C   C1896     1.0  0.15064  0.72806  0.10157  1.0000
  C   C1897     1.0  0.94177  0.81890  0.49166  1.0000
  C   C1898     1.0  0.98503  0.71758  0.41111  1.0000
  C   C1899     1.0  0.03762  0.85848  0.46867  1.0000
  S   S239      1.0  0.01271  0.65379  0.31549  1.0000
  C   C1900     1.0  0.05802  0.85929  0.14432  1.0000
  C   C1901     1.0  0.97929  0.78633  0.25502  1.0000
  C   C1902     1.0  0.95650  0.67319  0.20250  1.0000
  C   C1903     1.0  0.08871  0.68659  0.39163  1.0000
  H   H1505     1.0  0.12763  0.71800  0.40843  1.0000
  C   C1904     1.0  0.17205  0.75904  0.16226  1.0000
  H   H1506     1.0  0.12941  0.86916  0.12457  1.0000
  H   H1507     1.0  0.16698  0.80752  0.13730  1.0000
  C   C1905     1.0  0.17053  0.61305  0.35779  1.0000
  H   H1508     1.0  0.15859  0.87999  0.06867  1.0000
  H   H1509     1.0  0.92336  0.76516  0.29439  1.0000
  H   H1510     1.0  0.11899  0.55360  0.03426  1.0000
  S   S240      1.0  0.01914  0.54917  0.31355  1.0000
  H   H1511     1.0  0.15374  0.87159  0.50428  1.0000
  H   H1512     1.0  0.16090  0.57603  0.45126  1.0000
  H   H1513     1.0  0.94137  0.59731  0.30770  1.0000
  C   C1906     1.0  0.92945  0.85470  0.39263  1.0000
  H   H1514     1.0  0.92825  0.82815  0.10278  1.0000
  C   C1907     1.0  0.15048  0.75134  0.01259  1.0000
  H   H1515     1.0  0.95468  0.65695  0.01568  1.0000
  H   H1516     1.0  0.11413  0.68304  0.85599  1.0000
  C   C1908     1.0  0.97702  0.86652  0.56844  1.0000
  H   H1517     1.0  0.14218  0.87268  0.91771  1.0000
  H   H1518     1.0  0.98154  0.84137  0.57918  1.0000
  H   H1519     1.0  0.02319  0.78276  0.75044  1.0000
  C   C1909     1.0  0.05632  0.78695  0.70470  1.0000
  H   H1520     1.0  0.05753  0.72551  0.92167  1.0000
  S   S241      1.0  0.94595  0.55819  0.76161  1.0000
  H   H1521     1.0  0.09168  0.79748  0.66325  1.0000
  S   S242      1.0  0.08703  0.86483  0.56300  1.0000
  C   C1910     1.0  0.06158  0.85833  0.60027  1.0000
  C   C1911     1.0  0.03122  0.67047  0.85309  1.0000
  C   C1912     1.0  0.97723  0.86859  0.53285  1.0000
  C   C1913     1.0  0.04675  0.55901  0.88996  1.0000
  H   H1522     1.0  0.12409  0.64836  0.79978  1.0000
  C   C1914     1.0  0.97803  0.63004  0.68902  1.0000
  H   H1523     1.0  0.92472  0.68867  0.95228  1.0000
  S   S243      1.0  0.95390  0.67635  0.60251  1.0000
  H   H1524     1.0  0.05820  0.65731  0.85175  1.0000
  Fe  Fe118     1.0  0.01854  0.58240  0.00984  1.0000
  C   C1915     1.0  0.96043  0.70207  0.85504  1.0000
  H   H1525     1.0  0.96003  0.78922  0.55905  1.0000
  C   C1916     1.0  0.97284  0.63504  0.65448  1.0000
  C   C1917     1.0  0.15400  0.57299  0.72066  1.0000
  H   H1526     1.0  0.05366  0.80596  0.58144  1.0000
  H   H1527     1.0  0.04848  0.77022  0.82678  1.0000
  S   S244      1.0  0.98389  0.84413  0.68987  1.0000
  H   H1528     1.0  0.01111  0.79920  0.63062  1.0000
  H   H1529     1.0  0.95837  0.82035  0.89169  1.0000
  C   C1918     1.0  0.08516  0.80127  0.69064  1.0000
  C   C1919     1.0  0.11630  0.69680  0.83294  1.0000
  C   C1920     1.0  0.09139  0.69605  0.95375  1.0000
  C   C1921     1.0  0.13074  0.55730  0.97998  1.0000
  S   S245      1.0  0.03683  0.60825  0.56688  1.0000
  C   C1922     1.0  0.99876  0.74315  0.55935  1.0000
  H   H1530     1.0  0.98391  0.73217  0.57937  1.0000
  C   C1923     1.0  0.02389  0.82261  0.63009  1.0000
  H   H1531     1.0  0.16526  0.78346  0.74319  1.0000
  C   C1924     1.0  0.09886  0.61288  0.72954  1.0000
  C   C1925     1.0  0.12923  0.59488  0.56704  1.0000
  C   C1926     1.0  0.05824  0.78113  0.88017  1.0000
  C   C1927     1.0  0.96282  0.66926  0.64471  1.0000
  H   H1532     1.0  0.95195  0.72495  0.66133  1.0000
  H   H1533     1.0  0.09803  0.83302  0.90906  1.0000
  H   H1534     1.0  0.12716  0.69045  0.55330  1.0000
  H   H1535     1.0  0.13144  0.66660  0.98044  1.0000
  H   H1536     1.0  0.02622  0.69224  0.62005  1.0000
  H   H1537     1.0  0.98456  0.60358  0.69691  1.0000
  C   C1928     1.0  0.95940  0.69848  0.66896  1.0000
  H   H1538     1.0  0.92491  0.65315  0.81296  1.0000
  H   H1539     1.0  0.95171  0.66852  0.89591  1.0000
  C   C1929     1.0  0.12163  0.56844  0.54330  1.0000
  S   S246      1.0  0.03180  0.55875  0.75078  1.0000
  H   H1540     1.0  0.05775  0.79625  0.93462  1.0000
  C   C1930     1.0  0.13810  0.73838  0.53189  1.0000
  C   C1931     1.0  0.08454  0.71856  0.92777  1.0000
  S   S247      1.0  0.98730  0.59036  0.82496  1.0000
  Fe  Fe119     1.0  0.01840  0.55868  0.54572  1.0000
  S   S248      1.0  0.02107  0.86784  0.00481  1.0000
  C   C1932     1.0  0.04770  0.82657  0.60231  1.0000
  C   C1933     1.0  0.02095  0.69514  0.82976  1.0000
  C   C1934     1.0  0.00169  0.79562  0.85618  1.0000
  H   H1541     1.0  0.16510  0.57862  0.83396  1.0000
  H   H1542     1.0  0.10122  0.62795  0.92810  1.0000
  H   H1543     1.0  0.11334  0.75123  0.62064  1.0000
  H   H1544     1.0  0.92702  0.77797  0.97109  1.0000
  C   C1935     1.0  0.06498  0.81326  0.76087  1.0000
  C   C1936     1.0  0.00628  0.66162  0.87741  1.0000
  H   H1545     1.0  0.94983  0.74143  0.91744  1.0000
  C   C1937     1.0  0.10861  0.79409  0.98847  1.0000
  H   H1546     1.0  0.14168  0.55259  0.92503  1.0000
  C   C1938     1.0  0.10328  0.72632  0.62210  1.0000
  C   C1939     1.0  0.08580  0.60904  0.91749  1.0000
  C   C1940     1.0  0.06737  0.72512  0.61976  1.0000
  H   H1547     1.0  0.05680  0.81869  0.78798  1.0000
  C   C1941     1.0  0.11327  0.66289  0.62704  1.0000
  C   C1942     1.0  0.00462  0.79045  0.52216  1.0000
  C   C1943     1.0  0.16426  0.79111  0.59569  1.0000
  H   H1548     1.0  0.08489  0.64416  0.68842  1.0000
  P   P66       1.0  0.14213  0.62253  0.63219  1.0000
  H   H1549     1.0  0.15385  0.69704  0.62800  1.0000
  H   H1550     1.0  0.15705  0.79826  0.57069  1.0000
  H   H1551     1.0  0.01635  0.56672  0.93907  1.0000
  H   H1552     1.0  0.11473  0.75454  0.54483  1.0000
  C   C1944     1.0  0.16896  0.78327  0.86289  1.0000
  S   S249      1.0  0.97763  0.65402  0.75683  1.0000
  H   H1553     1.0  0.06972  0.68645  0.96764  1.0000
  H   H1554     1.0  0.98595  0.79586  0.83430  1.0000
  H   H1555     1.0  0.13351  0.58512  0.98272  1.0000
  C   C1945     1.0  0.09465  0.59368  0.88398  1.0000
  C   C1946     1.0  0.98619  0.80965  0.88848  1.0000
  Fe  Fe120     1.0  0.95423  0.54736  0.81613  1.0000
  C   C1947     1.0  0.03831  0.57395  0.92377  1.0000
  C   C1948     1.0  0.09399  0.82735  0.74695  1.0000
  H   H1556     1.0  0.97540  0.61242  0.63570  1.0000
  H   H1557     1.0  0.10802  0.84323  0.76373  1.0000
  H   H1558     1.0  0.04004  0.70123  0.81019  1.0000
  C   C1949     1.0  0.11242  0.73129  0.90969  1.0000
  H   H1559     1.0  0.96282  0.71622  0.72188  1.0000
  H   H1560     1.0  0.12029  0.55224  0.63976  1.0000
  H   H1561     1.0  0.10314  0.81529  0.97190  1.0000
  H   H1562     1.0  0.99454  0.82164  0.94153  1.0000
  H   H1563     1.0  0.17253  0.55244  0.72961  1.0000
  C   C1950     1.0  0.04624  0.79292  0.73982  1.0000
  P   P67       1.0  0.14459  0.83559  0.69451  1.0000
  C   C1951     1.0  0.11333  0.73394  0.83481  1.0000
  C   C1952     1.0  0.15116  0.81378  0.62467  1.0000
  C   C1953     1.0  0.05775  0.59908  0.93742  1.0000
  H   H1564     1.0  0.01405  0.64182  0.89489  1.0000
  H   H1565     1.0  0.99474  0.69052  0.98349  1.0000
  H   H1566     1.0  0.07484  0.62358  0.74547  1.0000
  C   C1954     1.0  0.12620  0.69539  0.62610  1.0000
  C   C1955     1.0  0.96554  0.69356  0.70314  1.0000
  C   C1956     1.0  0.10472  0.62447  0.69686  1.0000
  S   S250      1.0  0.98325  0.85862  0.78788  1.0000
  C   C1957     1.0  0.14322  0.77790  0.99032  1.0000
  C   C1958     1.0  0.12195  0.67698  0.80106  1.0000
  S   S251      1.0  0.04663  0.61867  0.97907  1.0000
  C   C1959     1.0  0.12341  0.58706  0.74141  1.0000
  C   C1960     1.0  0.98560  0.77587  0.54816  1.0000
  P   P68       1.0  0.10397  0.76002  0.87567  1.0000
  C   C1961     1.0  0.14729  0.71980  0.91703  1.0000
  C   C1962     1.0  0.00660  0.81012  0.91659  1.0000
  C   C1963     1.0  0.12175  0.55681  0.61290  1.0000
  C   C1964     1.0  0.13063  0.58879  0.60189  1.0000
  C   C1965     1.0  0.16013  0.58464  0.68802  1.0000
  C   C1966     1.0  0.10469  0.82096  0.71177  1.0000
  C   C1967     1.0  0.07704  0.66202  0.62500  1.0000
  H   H1567     1.0  0.13294  0.83744  0.62156  1.0000
  H   H1568     1.0  0.12044  0.57338  0.51649  1.0000
  C   C1968     1.0  0.13539  0.61029  0.67571  1.0000
  C   C1969     1.0  0.97098  0.67698  0.87809  1.0000
  C   C1970     1.0  0.97598  0.70412  0.00385  1.0000
  H   H1569     1.0  0.03979  0.69795  0.55147  1.0000
  Fe  Fe121     1.0  0.98366  0.59743  0.76912  1.0000
  C   C1971     1.0  0.03035  0.72410  0.54394  1.0000
  C   C1972     1.0  0.16185  0.80615  0.65718  1.0000
  H   H1570     1.0  0.93887  0.62302  0.94305  1.0000
  C   C1973     1.0  0.13413  0.79230  0.87784  1.0000
  C   C1974     1.0  0.14944  0.84793  0.90201  1.0000
  C   C1975     1.0  0.01534  0.84951  0.65670  1.0000
  H   H1571     1.0  0.16463  0.78624  0.97486  1.0000
  Fe  Fe122     1.0  0.03313  0.54905  0.80618  1.0000
  C   C1976     1.0  0.05418  0.69307  0.62156  1.0000
  S   S252      1.0  0.08504  0.55081  0.82792  1.0000
  C   C1977     1.0  0.98569  0.71100  0.83074  1.0000
  C   C1978     1.0  0.07515  0.56863  0.87026  1.0000
  H   H1572     1.0  0.12405  0.74416  0.74908  1.0000
  H   H1573     1.0  0.04973  0.74896  0.61641  1.0000
  H   H1574     1.0  0.97817  0.72916  0.81173  1.0000
  C   C1979     1.0  0.04246  0.79600  0.91248  1.0000
  H   H1575     1.0  0.11598  0.60189  0.86859  1.0000
  H   H1576     1.0  0.04084  0.77244  0.68819  1.0000
  C   C1980     1.0  0.97405  0.65936  0.71332  1.0000
  C   C1981     1.0  0.03747  0.78132  0.85201  1.0000
  Fe  Fe123     1.0  0.98100  0.63339  0.56425  1.0000
  C   C1982     1.0  0.12454  0.82497  0.89733  1.0000
  S   S253      1.0  0.96142  0.58253  0.54922  1.0000
  H   H1577     1.0  0.02093  0.55057  0.62101  1.0000
  H   H1578     1.0  0.12914  0.67884  0.74615  1.0000
  H   H1579     1.0  0.06630  0.63742  0.62672  1.0000
  C   C1983     1.0  0.14547  0.70245  0.53718  1.0000
  H   H1580     1.0  0.11844  0.57767  0.76654  1.0000
  H   H1581     1.0  0.11525  0.77948  0.80542  1.0000
  C   C1984     1.0  0.11698  0.75086  0.80441  1.0000
  C   C1985     1.0  0.12216  0.73099  0.77254  1.0000
  C   C1986     1.0  0.12615  0.68477  0.96090  1.0000
  C   C1987     1.0  0.12470  0.69410  0.77087  1.0000
  H   H1582     1.0  0.13375  0.62015  0.55815  1.0000
  C   C1988     1.0  0.15411  0.69645  0.94236  1.0000
  H   H1583     1.0  0.16339  0.85988  0.56444  1.0000
  H   H1584     1.0  0.99457  0.75446  0.00068  1.0000
  C   C1989     1.0  0.04951  0.73846  0.51826  1.0000
  Fe  Fe124     1.0  0.04375  0.62015  0.51192  1.0000
  H   H1585     1.0  0.16942  0.72843  0.90307  1.0000
  H   H1586     1.0  0.05444  0.79653  0.00823  1.0000
  C   C1990     1.0  0.08127  0.78360  0.00884  1.0000
  C   C1991     1.0  0.16093  0.75358  0.50998  1.0000
  S   S254      1.0  0.98903  0.64933  0.51072  1.0000
  C   C1992     1.0  0.11782  0.08946  0.03603  1.0000
  H   H1587     1.0  0.03025  0.07793  0.48083  1.0000
  C   C1993     1.0  0.97432  0.02078  0.19980  1.0000
  C   C1994     1.0  0.96996  0.95937  0.45021  1.0000
  Fe  Fe125     1.0  0.05612  0.95782  0.26326  1.0000
  C   C1995     1.0  0.97121  0.12747  0.22842  1.0000
  Fe  Fe126     1.0  0.08985  0.19793  0.22460  1.0000
  H   H1588     1.0  0.05328  0.18462  0.43096  1.0000
  H   H1589     1.0  0.16726  0.88409  0.35785  1.0000
  C   C1996     1.0  0.93141  0.18600  0.33638  1.0000
  C   C1997     1.0  0.97296  0.93563  0.42092  1.0000
  C   C1998     1.0  0.96052  0.03558  0.03458  1.0000
  H   H1590     1.0  0.95809  0.11312  0.14378  1.0000
  C   C1999     1.0  0.01354  0.05735  0.31396  1.0000
  C   C2000     1.0  0.16740  0.14771  0.09347  1.0000
  S   S255      1.0  0.15912  0.18388  0.03682  1.0000
  C   C2001     1.0  0.16304  0.11004  0.37417  1.0000
  Fe  Fe127     1.0  0.11755  0.93763  0.30600  1.0000
  H   H1591     1.0  0.17209  0.20655  0.46051  1.0000
  C   C2002     1.0  0.09318  0.06612  0.03061  1.0000
  C   C2003     1.0  0.05538  0.03320  0.15303  1.0000
  C   C2004     1.0  0.16903  0.88842  0.15433  1.0000
  H   H1592     1.0  0.93915  0.02541  0.04844  1.0000
  C   C2005     1.0  0.03828  0.13303  0.48774  1.0000
  P   P69       1.0  0.92923  0.12744  0.28950  1.0000
  C   C2006     1.0  0.14314  0.95618  0.42608  1.0000
  H   H1593     1.0  0.99955  0.93654  0.13693  1.0000
  H   H1594     1.0  0.96745  0.92399  0.20978  1.0000
  Fe  Fe128     1.0  0.96374  0.88959  0.01277  1.0000
  H   H1595     1.0  0.07474  0.11737  0.11320  1.0000
  S   S256      1.0  0.99539  0.00351  0.49692  1.0000
  C   C2007     1.0  0.02970  0.97055  0.43707  1.0000
  H   H1596     1.0  0.12192  0.01569  0.20701  1.0000
  H   H1597     1.0  0.05657  0.94287  0.39054  1.0000
  C   C2008     1.0  0.15102  0.08319  0.01765  1.0000
  H   H1598     1.0  0.11180  0.11223  0.05469  1.0000
  S   S257      1.0  0.08361  0.93804  0.50156  1.0000
  S   S258      1.0  0.03541  0.90649  0.26746  1.0000
  C   C2009     1.0  0.00919  0.13651  0.06002  1.0000
  C   C2010     1.0  0.08750  0.05797  0.43211  1.0000
  Fe  Fe129     1.0  0.97430  0.94220  0.07117  1.0000
  H   H1599     1.0  0.09176  0.00659  0.40467  1.0000
  H   H1600     1.0  0.14859  0.07492  0.46072  1.0000
  C   C2011     1.0  0.95127  0.09463  0.34719  1.0000
  H   H1601     1.0  0.03306  0.94472  0.18822  1.0000
  C   C2012     1.0  0.11562  0.19370  0.13500  1.0000
  H   H1602     1.0  0.02836  0.07808  0.13173  1.0000
  C   C2013     1.0  0.07699  0.00050  0.14649  1.0000
  C   C2014     1.0  0.03717  0.16493  0.11798  1.0000
  S   S259      1.0  0.10124  0.20492  0.27978  1.0000
  C   C2015     1.0  0.10984  0.10459  0.49879  1.0000
  S   S260      1.0  0.03087  0.16118  0.32584  1.0000
  H   H1603     1.0  0.99058  0.03768  0.07852  1.0000
  C   C2016     1.0  0.94644  0.91934  0.22794  1.0000
  H   H1604     1.0  0.14733  0.12152  0.26805  1.0000
  C   C2017     1.0  0.05230  0.13166  0.10237  1.0000
  C   C2018     1.0  0.93222  0.00347  0.32805  1.0000
  H   H1605     1.0  0.92593  0.19098  0.25030  1.0000
  H   H1606     1.0  0.96012  0.95492  0.30206  1.0000
  H   H1607     1.0  0.99884  0.13144  0.38234  1.0000
  H   H1608     1.0  0.15453  0.96051  0.17743  1.0000
  H   H1609     1.0  0.07513  0.09464  0.34334  1.0000
  S   S261      1.0  0.94369  0.98300  0.10986  1.0000
  C   C2019     1.0  0.99263  0.96010  0.15433  1.0000
  C   C2020     1.0  0.13247  0.17207  0.46532  1.0000
  C   C2021     1.0  0.98160  0.17456  0.42085  1.0000
  C   C2022     1.0  0.00819  0.18393  0.10462  1.0000
  H   H1610     1.0  0.96993  0.15829  0.43859  1.0000
  C   C2023     1.0  0.14171  0.95157  0.39037  1.0000
  C   C2024     1.0  0.00372  0.05159  0.34777  1.0000
  H   H1611     1.0  0.14065  0.11159  0.35878  1.0000
  H   H1612     1.0  0.09168  0.99903  0.06000  1.0000
  C   C2025     1.0  0.13401  0.16428  0.14851  1.0000
  S   S262      1.0  0.02838  0.00423  0.23956  1.0000
  C   C2026     1.0  0.01300  0.18038  0.36618  1.0000
  C   C2027     1.0  0.14616  0.00355  0.21657  1.0000
  C   C2028     1.0  0.08176  0.00925  0.08584  1.0000
  H   H1613     1.0  0.01975  0.03229  0.36109  1.0000
  H   H1614     1.0  0.93402  0.03613  0.16593  1.0000
  H   H1615     1.0  0.00365  0.12952  0.18164  1.0000
  H   H1616     1.0  0.95127  0.92160  0.41521  1.0000
  H   H1617     1.0  0.12001  0.94047  0.37977  1.0000
  H   H1618     1.0  0.97260  0.18507  0.06453  1.0000
  H   H1619     1.0  0.93219  0.16787  0.35623  1.0000
  H   H1620     1.0  0.99948  0.08295  0.26958  1.0000
  P   P70       1.0  0.05237  0.07082  0.05770  1.0000
  C   C2029     1.0  0.99796  0.15939  0.38917  1.0000
  C   C2030     1.0  0.08334  0.09478  0.42966  1.0000
  C   C2031     1.0  0.07951  0.18872  0.43693  1.0000
  H   H1621     1.0  0.16189  0.05551  0.38435  1.0000
  C   C2032     1.0  0.07787  0.10766  0.39744  1.0000
  C   C2033     1.0  0.92966  0.17404  0.30188  1.0000
  C   C2034     1.0  0.07930  0.08431  0.36805  1.0000
  Fe  Fe130     1.0  0.04395  0.20121  0.28999  1.0000
  C   C2035     1.0  0.03755  0.11652  0.07400  1.0000
  C   C2036     1.0  0.12275  0.19970  0.10039  1.0000
  H   H1622     1.0  0.16999  0.10123  0.02206  1.0000
  H   H1623     1.0  0.97063  0.90435  0.49274  1.0000
  C   C2037     1.0  0.95546  0.01612  0.17091  1.0000
  C   C2038     1.0  0.06071  0.04263  0.09232  1.0000
  S   S263      1.0  0.12665  0.15611  0.19159  1.0000
  H   H1624     1.0  0.14765  0.15515  0.48138  1.0000
  H   H1625     1.0  0.17185  0.17362  0.24977  1.0000
  H   H1626     1.0  0.10573  0.96247  0.10765  1.0000
  H   H1627     1.0  0.08283  0.98422  0.16746  1.0000
  S   S264      1.0  0.97190  0.94648  0.01448  1.0000
  H   H1628     1.0  0.08800  0.02981  0.34761  1.0000
  Fe  Fe131     1.0  0.04704  0.91310  0.32258  1.0000
  C   C2039     1.0  0.14057  0.08099  0.48778  1.0000
  H   H1629     1.0  0.93007  0.03929  0.43869  1.0000
  C   C2040     1.0  0.92820  0.19889  0.27702  1.0000
  C   C2041     1.0  0.14874  0.17666  0.07970  1.0000
  C   C2042     1.0  0.14643  0.20133  0.45356  1.0000
  C   C2043     1.0  0.00394  0.93014  0.39905  1.0000
  C   C2044     1.0  0.08603  0.04788  0.37050  1.0000
  H   H1630     1.0  0.94638  0.96294  0.46734  1.0000
  H   H1631     1.0  0.08977  0.04698  0.45672  1.0000
  S   S265      1.0  0.96081  0.88734  0.06973  1.0000
  C   C2045     1.0  0.02393  0.16667  0.50328  1.0000
  S   S266      1.0  0.03295  0.92541  0.06869  1.0000
  H   H1632     1.0  0.12941  0.06399  0.11366  1.0000
  C   C2046     1.0  0.96520  0.98630  0.14767  1.0000
  H   H1633     1.0  0.94774  0.09802  0.45263  1.0000
  C   C2047     1.0  0.15997  0.14146  0.12773  1.0000
  H   H1634     1.0  0.03778  0.04303  0.30109  1.0000
  H   H1635     1.0  0.07290  0.13556  0.39427  1.0000
  H   H1636     1.0  0.96599  0.06612  0.39073  1.0000
  C   C2048     1.0  0.15492  0.04918  0.11719  1.0000
  H   H1637     1.0  0.99089  0.13555  0.24461  1.0000
  H   H1638     1.0  0.04484  0.04239  0.17904  1.0000
  C   C2049     1.0  0.96031  0.09994  0.31268  1.0000
  S   S267      1.0  0.06301  0.96681  0.31937  1.0000
  C   C2050     1.0  0.97291  0.07051  0.36445  1.0000
  C   C2051     1.0  0.98999  0.04238  0.05158  1.0000
  C   C2052     1.0  0.03233  0.94769  0.40700  1.0000
  H   H1639     1.0  0.99631  0.20954  0.11675  1.0000
  S   S268      1.0  0.11204  0.93285  0.24929  1.0000
  H   H1640     1.0  0.12240  0.94881  0.44274  1.0000
  H   H1641     1.0  0.94393  0.02009  0.31056  1.0000
  C   C2053     1.0  0.01926  0.10449  0.49127  1.0000
  C   C2054     1.0  0.08984  0.98832  0.11285  1.0000
  H   H1642     1.0  0.16837  0.97494  0.04965  1.0000
  H   H1643     1.0  0.04773  0.17583  0.14069  1.0000
  P   P71       1.0  0.08267  0.12491  0.46779  1.0000
  H   H1644     1.0  0.04728  0.88331  0.13352  1.0000
  C   C2055     1.0  0.01128  0.96451  0.18356  1.0000
  C   C2056     1.0  0.97835  0.12446  0.19273  1.0000
  C   C2057     1.0  0.99832  0.97666  0.45844  1.0000
  S   S269      1.0  0.03324  0.19125  0.23490  1.0000
  C   C2058     1.0  0.16467  0.97198  0.20004  1.0000
  C   C2059     1.0  0.00245  0.99519  0.20594  1.0000
  C   C2060     1.0  0.99461  0.17000  0.07533  1.0000
  C   C2061     1.0  0.95271  0.11542  0.17146  1.0000
  C   C2062     1.0  0.15853  0.01927  0.24576  1.0000
  H   H1645     1.0  0.14386  0.04345  0.25870  1.0000
  C   C2063     1.0  0.04649  0.05373  0.12603  1.0000
  H   H1646     1.0  0.96761  0.04460  0.21700  1.0000
  C   C2064     1.0  0.99173  0.08085  0.29622  1.0000
  H   H1647     1.0  0.07426  0.88653  0.18954  1.0000
  H   H1648     1.0  0.05191  0.98335  0.44388  1.0000
  C   C2065     1.0  0.08886  0.03478  0.40262  1.0000
  C   C2066     1.0  0.94129  0.96675  0.32313  1.0000
  H   H1649     1.0  0.92705  0.10840  0.36064  1.0000
  C   C2067     1.0  0.09915  0.16505  0.45643  1.0000
  H   H1650     1.0  0.16737  0.03434  0.06355  1.0000
  C   C2068     1.0  0.93868  0.12071  0.24328  1.0000
  S   S270      1.0  0.00695  0.90075  0.36228  1.0000
  H   H1651     1.0  0.15086  0.06325  0.17167  1.0000
  H   H1652     1.0  0.99781  0.12639  0.03753  1.0000
  C   C2069     1.0  0.16700  0.04870  0.14992  1.0000
  H   H1653     1.0  0.93382  0.91685  0.34191  1.0000
  H   H1654     1.0  0.15594  0.88330  0.17856  1.0000
  C   C2070     1.0  0.01776  0.05587  0.03414  1.0000
  C   C2071     1.0  0.16810  0.96179  0.36849  1.0000
  S   S271      1.0  0.10228  0.88435  0.31481  1.0000
  H   H1655     1.0  0.09602  0.21181  0.15116  1.0000
  C   C2072     1.0  0.92634  0.94525  0.34560  1.0000
  S   S272      1.0  0.16661  0.95669  0.32391  1.0000
  Fe  Fe132     1.0  0.09221  0.88204  0.25911  1.0000
  C   C2073     1.0  0.17124  0.97046  0.43987  1.0000
  Fe  Fe133     1.0  0.02959  0.92466  0.01172  1.0000
  H   H1656     1.0  0.03834  0.18899  0.50182  1.0000
  C   C2074     1.0  0.98123  0.21060  0.42993  1.0000
  H   H1657     1.0  0.17011  0.16421  0.36877  1.0000
  C   C2075     1.0  0.98597  0.10975  0.50923  1.0000
  C   C2076     1.0  0.17012  0.88677  0.09233  1.0000
  H   H1658     1.0  0.07895  0.88118  0.44205  1.0000
  C   C2077     1.0  0.94884  0.88715  0.24292  1.0000
  C   C2078     1.0  0.15377  0.88054  0.12384  1.0000
  C   C2079     1.0  0.01880  0.99267  0.69710  1.0000
  H   H1659     1.0  0.01984  0.88612  0.88377  1.0000
  H   H1660     1.0  0.95991  0.95419  0.59543  1.0000
  C   C2080     1.0  0.97061  0.90204  0.52012  1.0000
  C   C2081     1.0  0.09799  0.91853  0.87799  1.0000
  Fe  Fe134     1.0  0.98377  0.88143  0.73681  1.0000
  H   H1661     1.0  0.14177  0.00812  0.96887  1.0000
  H   H1662     1.0  0.07714  0.13076  0.54353  1.0000
  H   H1663     1.0  0.02390  0.90165  0.67578  1.0000
  H   H1664     1.0  0.14571  0.93605  0.00658  1.0000
  H   H1665     1.0  0.03760  0.20617  0.90326  1.0000
  S   S273      1.0  0.97628  0.19450  0.72116  1.0000
  C   C2082     1.0  0.01112  0.01903  0.72439  1.0000
  H   H1666     1.0  0.06680  0.10207  0.84490  1.0000
  H   H1667     1.0  0.97106  0.89557  0.61832  1.0000
  C   C2083     1.0  0.01545  0.06274  0.99955  1.0000
  H   H1668     1.0  0.12416  0.98039  0.66573  1.0000
  C   C2084     1.0  0.96412  0.93040  0.57799  1.0000
  C   C2085     1.0  0.07999  0.02969  0.86971  1.0000
  H   H1669     1.0  0.11248  0.10016  0.58527  1.0000
  C   C2086     1.0  0.10725  0.94128  0.69751  1.0000
  S   S274      1.0  0.08325  0.03670  0.63134  1.0000
  S   S275      1.0  0.07144  0.94515  0.97912  1.0000
  C   C2087     1.0  0.99035  0.13741  0.90633  1.0000
  C   C2088     1.0  0.06985  0.90171  0.86779  1.0000
  H   H1670     1.0  0.14375  0.15434  0.88058  1.0000
  H   H1671     1.0  0.95282  0.02831  0.64339  1.0000
  C   C2089     1.0  0.13511  0.03090  0.98755  1.0000
  C   C2090     1.0  0.15314  0.92843  0.65088  1.0000
  H   H1672     1.0  0.13314  0.99202  0.80021  1.0000
  C   C2091     1.0  0.15976  0.05375  0.99366  1.0000
  C   C2092     1.0  0.13396  0.08346  0.76458  1.0000
  C   C2093     1.0  0.07960  0.11503  0.79362  1.0000
  C   C2094     1.0  0.07891  0.20570  0.63399  1.0000
  H   H1673     1.0  0.02170  0.18416  0.59970  1.0000
  C   C2095     1.0  0.05548  0.02939  0.66696  1.0000
  C   C2096     1.0  0.12074  0.09526  0.55807  1.0000
  Fe  Fe135     1.0  0.02959  0.21053  0.70956  1.0000
  C   C2097     1.0  0.15073  0.13597  0.67850  1.0000
  C   C2098     1.0  0.09809  0.93254  0.91207  1.0000
  H   H1674     1.0  0.98443  0.06140  0.95604  1.0000
  C   C2099     1.0  0.02787  0.00741  0.85063  1.0000
  H   H1675     1.0  0.05025  0.12641  0.61659  1.0000
  C   C2100     1.0  0.10846  0.19355  0.61093  1.0000
  C   C2101     1.0  0.02525  0.05071  0.72275  1.0000
  H   H1676     1.0  0.01362  0.08151  0.63400  1.0000
  H   H1677     1.0  0.02029  0.91051  0.94432  1.0000
  H   H1678     1.0  0.11986  0.92050  0.85956  1.0000
  C   C2102     1.0  0.99058  0.17176  0.52124  1.0000
  C   C2103     1.0  0.01075  0.18564  0.86113  1.0000
  Fe  Fe136     1.0  0.04369  0.98428  0.52312  1.0000
  H   H1679     1.0  0.00744  0.96841  0.69797  1.0000
  C   C2104     1.0  0.16094  0.06439  0.51171  1.0000
  H   H1680     1.0  0.05575  0.13399  0.79349  1.0000
  H   H1681     1.0  0.94885  0.09386  0.63518  1.0000
  Fe  Fe137     1.0  0.98889  0.20110  0.77612  1.0000
  C   C2105     1.0  0.05802  0.02292  0.84356  1.0000
  C   C2106     1.0  0.97087  0.89734  0.59085  1.0000
  C   C2107     1.0  0.14049  0.06526  0.79379  1.0000
  C   C2108     1.0  0.15075  0.07094  0.54678  1.0000
  H   H1682     1.0  0.94666  0.05111  0.70466  1.0000
  H   H1683     1.0  0.04729  0.97718  0.64773  1.0000
  C   C2109     1.0  0.93396  0.21017  0.99948  1.0000
  H   H1684     1.0  0.94383  0.97112  0.91994  1.0000
  H   H1685     1.0  0.16941  0.93734  0.63051  1.0000
  H   H1686     1.0  0.07988  0.09331  0.91413  1.0000
  C   C2110     1.0  0.97956  0.13647  0.87300  1.0000
  C   C2111     1.0  0.11655  0.21318  0.58332  1.0000
  C   C2112     1.0  0.01983  0.99770  0.88361  1.0000
  H   H1687     1.0  0.97936  0.19790  0.53276  1.0000
  H   H1688     1.0  0.16450  0.04656  0.79364  1.0000
  C   C2113     1.0  0.15298  0.11906  0.94637  1.0000
  H   H1689     1.0  0.09718  0.13146  0.96128  1.0000
  C   C2114     1.0  0.96435  0.11380  0.62718  1.0000
  H   H1690     1.0  0.03571  0.07481  0.98604  1.0000
  C   C2115     1.0  0.98935  0.16075  0.85045  1.0000
  C   C2116     1.0  0.11740  0.11632  0.94318  1.0000
  C   C2117     1.0  0.92660  0.03704  0.69429  1.0000
  S   S276      1.0  0.10897  0.20599  0.95888  1.0000
  S   S277      1.0  0.97923  0.94057  0.82195  1.0000
  H   H1691     1.0  0.01146  0.00213  0.83005  1.0000
  H   H1692     1.0  0.08804  0.96020  0.71345  1.0000
  C   C2118     1.0  0.11589  0.07096  0.82264  1.0000
  P   P72       1.0  0.12132  0.04510  0.85922  1.0000
  S   S278      1.0  0.02167  0.16432  0.96011  1.0000
  C   C2119     1.0  0.13370  0.07359  0.89368  1.0000
  C   C2120     1.0  0.92982  0.02453  0.65966  1.0000
  H   H1693     1.0  0.01908  0.07132  0.74366  1.0000
  H   H1694     1.0  0.06454  0.02849  0.81734  1.0000
  C   C2121     1.0  0.02176  0.13190  0.61655  1.0000
  S   S279      1.0  0.98289  0.01349  0.76017  1.0000
  H   H1695     1.0  0.11070  0.10328  0.66786  1.0000
  H   H1696     1.0  0.12516  0.16909  0.61458  1.0000
  H   H1697     1.0  0.09661  0.89724  0.72540  1.0000
  H   H1698     1.0  0.92856  0.01513  0.81435  1.0000
  H   H1699     1.0  0.16588  0.05676  0.56503  1.0000
  C   C2122     1.0  0.04092  0.99789  0.66835  1.0000
  H   H1700     1.0  0.95479  0.03257  0.91014  1.0000
  C   C2123     1.0  0.07045  0.92891  0.93620  1.0000
  Fe  Fe138     1.0  0.08420  0.92293  0.55564  1.0000
  C   C2124     1.0  0.03075  0.88053  0.65560  1.0000
  C   C2125     1.0  0.07117  0.02090  0.90309  1.0000
  H   H1701     1.0  0.95903  0.95841  0.53267  1.0000
  H   H1702     1.0  0.15256  0.07838  0.74201  1.0000
  C   C2126     1.0  0.00565  0.16451  0.60732  1.0000
  C   C2127     1.0  0.04763  0.05574  0.69424  1.0000
  H   H1703     1.0  0.06471  0.90951  0.62590  1.0000
  C   C2128     1.0  0.11172  0.90553  0.70395  1.0000
  H   H1704     1.0  0.94530  0.14787  0.53686  1.0000
  C   C2129     1.0  0.15101  0.98341  0.81912  1.0000
  C   C2130     1.0  0.10770  0.09415  0.91664  1.0000
  C   C2131     1.0  0.04152  0.89927  0.89160  1.0000
  C   C2132     1.0  0.96887  0.17194  0.60816  1.0000
  C   C2133     1.0  0.13651  0.88089  0.68361  1.0000
  H   H1705     1.0  0.11992  0.94551  0.91981  1.0000
  C   C2134     1.0  0.08595  0.09680  0.82273  1.0000
  C   C2135     1.0  0.04198  0.91266  0.92588  1.0000
  C   C2136     1.0  0.02164  0.18658  0.89472  1.0000
  H   H1706     1.0  0.95730  0.19765  0.60139  1.0000
  H   H1707     1.0  0.09792  0.12171  0.74162  1.0000
  H   H1708     1.0  0.03449  0.99797  0.93568  1.0000
  C   C2137     1.0  0.10196  0.03704  0.00590  1.0000
  H   H1709     1.0  0.08834  0.02465  0.92340  1.0000
  C   C2138     1.0  0.92833  0.02587  0.91058  1.0000
  C   C2139     1.0  0.93344  0.89438  0.89044  1.0000
  Fe  Fe139     1.0  0.02114  0.89605  0.80105  1.0000
  Fe  Fe140     1.0  0.08320  0.99831  0.58517  1.0000
  C   C2140     1.0  0.96383  0.93274  0.54264  1.0000
  S   S280      1.0  0.04415  0.21216  0.76404  1.0000
  C   C2141     1.0  0.12773  0.95269  0.67077  1.0000
  C   C2142     1.0  0.95861  0.04200  0.00004  1.0000
  C   C2143     1.0  0.98608  0.05560  0.98255  1.0000
  H   H1710     1.0  0.99792  0.98332  0.88840  1.0000
  H   H1711     1.0  0.05845  0.08031  0.69322  1.0000
  C   C2144     1.0  0.94787  0.14632  0.61746  1.0000
  C   C2145     1.0  0.15345  0.20683  0.87063  1.0000
  S   S281      1.0  0.06994  0.18163  0.66909  1.0000
  S   S282      1.0  0.02576  0.91460  0.74836  1.0000
  Fe  Fe141     1.0  0.12356  0.97250  0.51645  1.0000
  H   H1712     1.0  0.96411  0.89316  0.93462  1.0000
  C   C2146     1.0  0.04078  0.00550  0.91008  1.0000
  C   C2147     1.0  0.10338  0.10809  0.76441  1.0000
  C   C2148     1.0  0.93928  0.88902  0.92480  1.0000
  H   H1713     1.0  0.96313  0.11722  0.86490  1.0000
  H   H1714     1.0  0.16404  0.15824  0.75893  1.0000
  C   C2149     1.0  0.01101  0.16265  0.91737  1.0000
  C   C2150     1.0  0.00108  0.10664  0.62659  1.0000
  H   H1715     1.0  0.98216  0.11891  0.92378  1.0000
  H   H1716     1.0  0.95386  0.90269  0.87399  1.0000
  C   C2151     1.0  0.05360  0.88511  0.62716  1.0000
  Fe  Fe142     1.0  0.05181  0.20807  0.97580  1.0000
  C   C2152     1.0  0.13776  0.10748  0.66186  1.0000
  S   S283      1.0  0.12738  0.95402  0.56920  1.0000
  S   S284      1.0  0.97270  0.16030  0.80991  1.0000
  Fe  Fe143     1.0  0.98083  0.95639  0.76800  1.0000
  S   S285      1.0  0.93866  0.92499  0.75195  1.0000
  S   S286      1.0  0.03995  0.96586  0.57603  1.0000
  Fe  Fe144     1.0  0.94163  0.90481  0.80411  1.0000
  H   H1717     1.0  0.08353  0.01848  0.00139  1.0000
  H   H1718     1.0  0.94994  0.07307  0.82211  1.0000
  H   H1719     1.0  0.94687  0.18692  0.98354  1.0000
  H   H1720     1.0  0.13927  0.20373  0.56543  1.0000
  H   H1721     1.0  0.13363  0.15311  0.69789  1.0000
  C   C2153     1.0  0.10047  0.11228  0.53420  1.0000
  S   S287      1.0  0.08349  0.02006  0.53359  1.0000
  H   H1722     1.0  0.15001  0.06119  0.62622  1.0000
  C   C2154     1.0  0.15175  0.00429  0.85003  1.0000
  H   H1723     1.0  0.01819  0.20461  0.84383  1.0000
  H   H1724     1.0  0.16036  0.13657  0.96686  1.0000
  C   C2155     1.0  0.97137  0.14352  0.52366  1.0000
  C   C2156     1.0  0.16340  0.17066  0.87295  1.0000
  C   C2157     1.0  0.15792  0.89275  0.65757  1.0000
  C   C2158     1.0  0.15976  0.08405  0.63795  1.0000
  H   H1725     1.0  0.93568  0.03677  0.98703  1.0000
  C   C2159     1.0  0.16940  0.07660  0.89688  1.0000
  H   H1726     1.0  0.92957  0.08516  0.57886  1.0000
  C   C2160     1.0  0.17075  0.21223  0.70863  1.0000
  H   H1727     1.0  0.17245  0.93512  0.78852  1.0000
  S   S288      1.0  0.07152  0.88186  0.82586  1.0000
  H   H1728     1.0  0.97168  0.08747  0.51195  1.0000
