data_image0
_chemical_formula_structural       FeS2FeS2FeS2FeSFeS3H2C2SHC6H4C4PCH2CHC3H2C6H4CH3SH2C2H2CHC2PC12H4CH5CH2C7HSHCH2C5HC2H2C6HCH2C2HCH3C3H2C2HPCHC2H2CH2C2H2C2H2C2HCHFeHC2H2CHCHC2H3C2H2C3H2CHC3FeS2FeS2FeSFeS3FeS2CSH4C6H4C6H4C6H3C4H2CHCH4CHC2HPHCHC6PC5HC2H2C8H7CH5CHC3HCH2C2PH2C2HC8H2CFeC2H2CH2C3HC3H2C2HCHCHCHCH2SC2HC3SHCH2CH5C2H4CFeC2HCSCH2C6H3CFeSH2C3HSH4PHC4HCSCH2CHCHC2HCH2CH2CH5C5H2C4SHCHPC2HC4H3CHCFeCSHCFeHS2FeSCFeSHFeSFeSC2H3CH3SCH3C7H4C6PC10H5C2H2CH2C6PC10H2C4H11CSH7C5H5SC2SHC2H2C2SCH3CHSC5SFeS3HFeC4HC3H4CH2SCH2C3FeCPCHC2HCH4C4H2C9H2CH2C5HCHPCFeCH2CH2C3H2SC6HCHCH3CHC2H3CFeCH3C2HC11SCHCH3C2HC2H2C2HCHCHCPH3CPC2H2SCH2SC3H4C2HSCFeSH2CHC2HCHC3H2CPC3HFeH2CHC5H3CHCPC2H3CFeHC3SCHFeSC3HC3H2CHCSC2H2C3PC2HC6H2CH3CFeCHCH2CH2SHCSH2CHC2H3C2H4CH2CFeHSCH2CHCS2FeSHFeSHFe2S3H3CHC2HC6H4C5HC3HCH3CH2CFeCHCH3CH2C2PC3SC2HCHC7H2C2HSH3C2H2SH2C3HCPCH3CH2SC8PC9HCH2CHCH2SH6C4HC3HC2HC2H2CHC3HC2H2C3H6CSH2SHCSFeS2FeSC6HCHCHC3HCHC3HC2HC2SH5CH2C2FeH4CHCH2CHCH2CH2CHC3FeCHCHPCH2CHSHSC7PC17H3C2H2C2H5CH2CHCH4SHFeCSH3C4H2CH2C3HFeCHCSFeS2FeS2FeSFeS3HCSFeS2C6H4C6H4C3H2C6H8C8H3CSC2H3C5H2C3HC2HPH2C4H2C3HC2PC9HCHCH4CHC5H2C2H2C4H5C2FeCH2C5HCHC3FeHCHC3HCH3CH2CHCSCHC3H3CH7C6H2PHCHCH2CH2CH2CHCH4CHFeS2FeS2FeSFeS3HSCFeS2CS2C6H4C6H4C6H5CH4C2HC2PFeC4HCH2C2HC2HC4H3C2HC3H2C3HCH3CPC6HC5HCH5C2HSCFeCHCHC4H3CH3PH2C2H2CH2CHC2H4CH3C3HCHCH3CHC2H4C3HCHCHC3H3C2H4C2
_chemical_formula_sum              "Fe56 S112 H672 C840 P28"
_cell_length_a       36.0336
_cell_length_b       35.9122
_cell_length_c       50.3865
_cell_angle_alpha    89.9507
_cell_angle_beta     90.095
_cell_angle_gamma    89.847

_space_group_name_H-M_alt    "P 1"
_space_group_IT_number       1

loop_
  _space_group_symop_operation_xyz
  'x, y, z'

loop_
  _atom_site_type_symbol
  _atom_site_label
  _atom_site_symmetry_multiplicity
  _atom_site_fract_x
  _atom_site_fract_y
  _atom_site_fract_z
  _atom_site_occupancy
  Fe  Fe1       1.0  0.43936  0.04241  0.23880  1.0000
  S   S1        1.0  0.44947  0.03827  0.28304  1.0000
  S   S2        1.0  0.39870  0.09055  0.22834  1.0000
  Fe  Fe2       1.0  0.21096  0.17778  0.14457  1.0000
  S   S3        1.0  0.17639  0.15656  0.11028  1.0000
  S   S4        1.0  0.26043  0.13832  0.15432  1.0000
  Fe  Fe3       1.0  0.15506  0.24374  0.15419  1.0000
  S   S5        1.0  0.11755  0.22559  0.12088  1.0000
  S   S6        1.0  0.14237  0.29064  0.18455  1.0000
  Fe  Fe4       1.0  0.12741  0.16772  0.13670  1.0000
  S   S7        1.0  0.08225  0.12415  0.13972  1.0000
  Fe  Fe5       1.0  0.16964  0.21588  0.09668  1.0000
  S   S8        1.0  0.17649  0.23923  0.05398  1.0000
  S   S9        1.0  0.16179  0.18573  0.17144  1.0000
  S   S10       1.0  0.20743  0.23730  0.12942  1.0000
  H   H1        1.0  0.30252  0.05372  0.23064  1.0000
  H   H2        1.0  0.02734  0.06498  0.11086  1.0000
  C   C1        1.0  0.11749  0.04050  0.22154  1.0000
  C   C2        1.0  0.04341  0.18177  0.28629  1.0000
  S   S11       1.0  0.02224  0.42380  0.19590  1.0000
  H   H3        1.0  0.33866  0.08143  0.26708  1.0000
  C   C3        1.0  0.10861  0.32748  0.18723  1.0000
  C   C4        1.0  0.08351  0.33612  0.16686  1.0000
  C   C5        1.0  0.05750  0.36546  0.16998  1.0000
  C   C6        1.0  0.05568  0.38658  0.19356  1.0000
  C   C7        1.0  0.08028  0.37742  0.21416  1.0000
  C   C8        1.0  0.10649  0.34824  0.21097  1.0000
  H   H4        1.0  0.08449  0.32057  0.14849  1.0000
  H   H5        1.0  0.03888  0.37215  0.15380  1.0000
  H   H6        1.0  0.07937  0.39308  0.23248  1.0000
  H   H7        1.0  0.12540  0.34180  0.22702  1.0000
  C   C9        1.0  0.06318  0.11451  0.17117  1.0000
  C   C10       1.0  0.07542  0.13263  0.19414  1.0000
  C   C11       1.0  0.05869  0.12489  0.21872  1.0000
  C   C12       1.0  0.02940  0.09942  0.22038  1.0000
  P   P1        1.0  0.14205  0.01822  0.29968  1.0000
  C   C13       1.0  0.03456  0.08836  0.17308  1.0000
  H   H8        1.0  0.09715  0.15310  0.19292  1.0000
  H   H9        1.0  0.06801  0.13903  0.23638  1.0000
  C   C14       1.0  0.01451  0.31930  0.24540  1.0000
  H   H10       1.0  0.25294  0.09518  0.28194  1.0000
  C   C15       1.0  0.17827  0.24843  0.99932  1.0000
  C   C16       1.0  0.17097  0.22350  0.02034  1.0000
  C   C17       1.0  0.15995  0.18722  0.01391  1.0000
  H   H11       1.0  0.18682  0.27656  0.00389  1.0000
  H   H12       1.0  0.15427  0.16758  0.02966  1.0000
  C   C18       1.0  0.35830  0.10048  0.20861  1.0000
  C   C19       1.0  0.33443  0.12960  0.21654  1.0000
  C   C20       1.0  0.30372  0.14060  0.20082  1.0000
  C   C21       1.0  0.29677  0.12330  0.17640  1.0000
  C   C22       1.0  0.32000  0.09347  0.16882  1.0000
  C   C23       1.0  0.35034  0.08196  0.18481  1.0000
  H   H13       1.0  0.34010  0.14418  0.23487  1.0000
  H   H14       1.0  0.28590  0.16296  0.20743  1.0000
  H   H15       1.0  0.31488  0.07954  0.15015  1.0000
  H   H16       1.0  0.36831  0.05965  0.17824  1.0000
  C   C24       1.0  0.30360  0.03953  0.24960  1.0000
  H   H17       1.0  0.37991  0.18655  0.11163  1.0000
  H   H18       1.0  0.04091  0.12794  0.30507  1.0000
  H   H19       1.0  0.20930  0.02956  0.14107  1.0000
  S   S12       1.0  0.00706  0.09190  0.25092  1.0000
  H   H20       1.0  0.23083  0.05675  0.23623  1.0000
  H   H21       1.0  0.02506  0.07402  0.15560  1.0000
  C   C25       1.0  0.12361  0.01505  0.26622  1.0000
  C   C26       1.0  0.21377  0.03505  0.16197  1.0000
  H   H22       1.0  0.20103  0.25288  0.25317  1.0000
  H   H23       1.0  0.06966  0.17573  0.27687  1.0000
  C   C27       1.0  0.20125  0.06852  0.17289  1.0000
  H   H24       1.0  0.19847  0.10250  0.20788  1.0000
  C   C28       1.0  0.36443  0.21221  0.14890  1.0000
  C   C29       1.0  0.37115  0.21258  0.17638  1.0000
  P   P2        1.0  0.33471  0.24693  0.13384  1.0000
  C   C30       1.0  0.36477  0.28441  0.12387  1.0000
  C   C31       1.0  0.37656  0.31076  0.14261  1.0000
  C   C32       1.0  0.40050  0.33949  0.13511  1.0000
  C   C33       1.0  0.00600  0.20267  0.22098  1.0000
  C   C34       1.0  0.02977  0.23320  0.22469  1.0000
  C   C35       1.0  0.37833  0.28633  0.09780  1.0000
  C   C36       1.0  0.29949  0.26282  0.15663  1.0000
  C   C37       1.0  0.28255  0.23737  0.17385  1.0000
  C   C38       1.0  0.25385  0.24877  0.19064  1.0000
  C   C39       1.0  0.24142  0.28565  0.19001  1.0000
  C   C40       1.0  0.25745  0.31100  0.17240  1.0000
  C   C41       1.0  0.28626  0.29963  0.15562  1.0000
  H   H25       1.0  0.35794  0.23299  0.18903  1.0000
  H   H26       1.0  0.36730  0.30903  0.16303  1.0000
  H   H27       1.0  0.40931  0.35990  0.14963  1.0000
  H   H28       1.0  0.15732  0.05950  0.24958  1.0000
  C   C42       1.0  0.22570  0.09439  0.29103  1.0000
  H   H29       1.0  0.29084  0.20845  0.17362  1.0000
  H   H30       1.0  0.24035  0.22872  0.20343  1.0000
  H   H31       1.0  0.21849  0.29432  0.20249  1.0000
  H   H32       1.0  0.24669  0.33917  0.17125  1.0000
  H   H33       1.0  0.29738  0.31929  0.14145  1.0000
  C   C43       1.0  0.20479  0.06167  0.29029  1.0000
  H   H34       1.0  0.05403  0.24788  0.16014  1.0000
  H   H35       1.0  0.21606  0.03734  0.28044  1.0000
  C   C44       1.0  0.39476  0.18608  0.18785  1.0000
  C   C45       1.0  0.23273  0.00920  0.17779  1.0000
  C   C46       1.0  0.15181  0.22229  0.24276  1.0000
  C   C47       1.0  0.11301  0.27746  0.27042  1.0000
  C   C48       1.0  0.22626  0.05023  0.21561  1.0000
  C   C49       1.0  0.40228  0.31508  0.09036  1.0000
  C   C50       1.0  0.41221  0.15941  0.17200  1.0000
  H   H36       1.0  0.39896  0.18551  0.20916  1.0000
  S   S13       1.0  0.00232  0.47086  0.26969  1.0000
  H   H37       1.0  0.29659  0.28270  0.08928  1.0000
  C   C51       1.0  0.20755  0.07613  0.19969  1.0000
  H   H38       1.0  0.05927  0.08522  0.07053  1.0000
  H   H39       1.0  0.09874  0.29977  0.28057  1.0000
  C   C52       1.0  0.99913  0.18897  0.19545  1.0000
  C   C53       1.0  0.30870  0.22852  0.10620  1.0000
  C   C54       1.0  0.01923  0.05277  0.09213  1.0000
  C   C55       1.0  0.15599  0.17634  0.98702  1.0000
  C   C56       1.0  0.38349  0.18644  0.13296  1.0000
  H   H40       1.0  0.31141  0.17108  0.11930  1.0000
  C   C57       1.0  0.40680  0.15976  0.14455  1.0000
  C   C58       1.0  0.01223  0.34205  0.29844  1.0000
  H   H41       1.0  0.43184  0.36399  0.10320  1.0000
  H   H42       1.0  0.42045  0.13909  0.13231  1.0000
  C   C59       1.0  0.29274  0.25291  0.08759  1.0000
  C   C60       1.0  0.30103  0.19030  0.10450  1.0000
  C   C61       1.0  0.15175  0.27874  0.26888  1.0000
  C   C62       1.0  0.08760  0.01692  0.21665  1.0000
  C   C63       1.0  0.02746  0.04979  0.04452  1.0000
  C   C64       1.0  0.99993  0.36604  0.27846  1.0000
  H   H43       1.0  0.99484  0.06175  0.19848  1.0000
  C   C65       1.0  0.03993  0.23563  0.17701  1.0000
  H   H44       1.0  0.04883  0.00806  0.12825  1.0000
  H   H45       1.0  0.33967  0.00466  0.21048  1.0000
  C   C66       1.0  0.21143  0.12614  0.30338  1.0000
  C   C67       1.0  0.02500  0.30641  0.29200  1.0000
  H   H46       1.0  0.09861  0.19915  0.23366  1.0000
  C   C68       1.0  0.02590  0.29457  0.26541  1.0000
  H   H47       1.0  0.07209  0.05950  0.29622  1.0000
  H   H48       1.0  0.37064  0.26552  0.08326  1.0000
  H   H49       1.0  0.18743  0.08899  0.16043  1.0000
  C   C69       1.0  0.27040  0.23907  0.06715  1.0000
  C   C70       1.0  0.27840  0.17658  0.08421  1.0000
  C   C71       1.0  0.41324  0.34174  0.10897  1.0000
  H   H50       1.0  0.04156  0.05905  0.02671  1.0000
  H   H51       1.0  0.03444  0.28816  0.30776  1.0000
  C   C72       1.0  0.17113  0.25125  0.25499  1.0000
  C   C73       1.0  0.32405  0.05546  0.27025  1.0000
  H   H52       1.0  0.06588  0.27220  0.20499  1.0000
  P   P3        1.0  0.04302  0.24845  0.25759  1.0000
  C   C74       1.0  0.11310  0.22098  0.24418  1.0000
  H   H53       1.0  0.16672  0.20154  0.23138  1.0000
  C   C75       1.0  0.26319  0.20093  0.06548  1.0000
  C   C76       1.0  0.02497  0.21561  0.28156  1.0000
  H   H54       1.0  0.27162  0.14721  0.08359  1.0000
  H   H55       1.0  0.99282  0.37394  0.23648  1.0000
  C   C77       1.0  0.23960  0.01680  0.20470  1.0000
  H   H56       1.0  0.25718  0.25799  0.05324  1.0000
  H   H57       1.0  0.24464  0.19051  0.05023  1.0000
  C   C78       1.0  0.32725  0.03707  0.29454  1.0000
  C   C79       1.0  0.01755  0.08107  0.19751  1.0000
  H   H58       1.0  0.42959  0.13823  0.18112  1.0000
  H   H59       1.0  0.12580  0.06040  0.20649  1.0000
  C   C80       1.0  0.09328  0.24854  0.25806  1.0000
  C   C81       1.0  0.13539  0.03971  0.24619  1.0000
  H   H60       1.0  0.34446  0.04863  0.31014  1.0000
  H   H61       1.0  0.41250  0.31657  0.07017  1.0000
  C   C82       1.0  0.03746  0.06449  0.06915  1.0000
  C   C83       1.0  0.04653  0.24954  0.20247  1.0000
  H   H62       1.0  0.01250  0.19349  0.15385  1.0000
  C   C84       1.0  0.00136  0.35480  0.25197  1.0000
  H   H63       1.0  0.99418  0.18809  0.23769  1.0000
  Fe  Fe6       1.0  0.99781  0.46773  0.22501  1.0000
  H   H64       1.0  0.07274  0.01880  0.19800  1.0000
  C   C85       1.0  0.01634  0.20523  0.17349  1.0000
  C   C86       1.0  0.16946  0.06032  0.30206  1.0000
  H   H65       1.0  0.16666  0.30170  0.27782  1.0000
  H   H66       1.0  0.14733  0.14825  0.98246  1.0000
  C   C87       1.0  0.30943  0.00304  0.29837  1.0000
  H   H67       1.0  0.01620  0.31176  0.22471  1.0000
  C   C88       1.0  0.28623  0.00486  0.25301  1.0000
  H   H68       1.0  0.22759  0.15156  0.30386  1.0000
  C   C89       1.0  0.02723  0.15458  0.30242  1.0000
  C   C90       1.0  0.99916  0.02335  0.04288  1.0000
  H   H69       1.0  0.30476  0.01307  0.45626  1.0000
  H   H70       1.0  0.37217  0.00039  0.45169  1.0000
  H   H71       1.0  0.01159  0.35113  0.31893  1.0000
  C   C91       1.0  0.06758  0.99809  0.35953  1.0000
  C   C92       1.0  0.03749  0.02067  0.35243  1.0000
  H   H72       1.0  0.16523  0.14981  0.32463  1.0000
  H   H73       1.0  0.01600  0.06018  0.32406  1.0000
  C   C93       1.0  0.09982  0.99799  0.34410  1.0000
  C   C94       1.0  0.10200  0.02029  0.32121  1.0000
  C   C95       1.0  0.03962  0.04325  0.32990  1.0000
  H   H74       1.0  0.01225  0.02019  0.36410  1.0000
  H   H75       1.0  0.21559  0.00902  0.32596  1.0000
  C   C96       1.0  0.99260  0.16096  0.31403  1.0000
  H   H76       1.0  0.12826  0.09234  0.32365  1.0000
  C   C97       1.0  0.07155  0.04283  0.31418  1.0000
  C   C98       1.0  0.17631  0.12512  0.31511  1.0000
  C   C99       1.0  0.15537  0.09235  0.31450  1.0000
  Fe  Fe7       1.0  0.16311  0.21032  0.89005  1.0000
  S   S14       1.0  0.20186  0.25508  0.87536  1.0000
  S   S15       1.0  0.15792  0.18546  0.93237  1.0000
  Fe  Fe8       1.0  0.13515  0.19596  0.83321  1.0000
  S   S16       1.0  0.17170  0.23991  0.81571  1.0000
  S   S17       1.0  0.10437  0.16855  0.79968  1.0000
  Fe  Fe9       1.0  0.21639  0.21537  0.84170  1.0000
  S   S18       1.0  0.27234  0.20389  0.82070  1.0000
  Fe  Fe10      1.0  0.15334  0.27494  0.84999  1.0000
  S   S19       1.0  0.13352  0.33598  0.84709  1.0000
  S   S20       1.0  0.18036  0.17000  0.85758  1.0000
  S   S21       1.0  0.11405  0.23200  0.86636  1.0000
  Fe  Fe11      1.0  0.42042  0.03687  0.76881  1.0000
  S   S22       1.0  0.37438  0.06032  0.79633  1.0000
  S   S23       1.0  0.42367  0.03996  0.72413  1.0000
  C   C100      1.0  0.16286  0.20141  0.96601  1.0000
  S   S24       1.0  0.02913  0.42320  0.76375  1.0000
  H   H77       1.0  0.17043  0.41042  0.84557  1.0000
  H   H78       1.0  0.16886  0.10202  0.72645  1.0000
  H   H79       1.0  0.08234  0.05333  0.70873  1.0000
  H   H80       1.0  0.05268  0.02988  0.79446  1.0000
  C   C101      1.0  0.10178  0.35717  0.82413  1.0000
  C   C102      1.0  0.07935  0.38701  0.83272  1.0000
  C   C103      1.0  0.05611  0.40667  0.81485  1.0000
  C   C104      1.0  0.05598  0.39781  0.78778  1.0000
  C   C105      1.0  0.07825  0.36780  0.77920  1.0000
  C   C106      1.0  0.10063  0.34737  0.79722  1.0000
  H   H81       1.0  0.07996  0.39502  0.85340  1.0000
  H   H82       1.0  0.03849  0.42877  0.82211  1.0000
  H   H83       1.0  0.07828  0.36032  0.75842  1.0000
  H   H84       1.0  0.11777  0.32469  0.79016  1.0000
  C   C107      1.0  0.29813  0.16251  0.81288  1.0000
  C   C108      1.0  0.32424  0.16350  0.79207  1.0000
  C   C109      1.0  0.34713  0.13243  0.78627  1.0000
  C   C110      1.0  0.34459  0.09983  0.80143  1.0000
  C   C111      1.0  0.31810  0.09866  0.82201  1.0000
  C   C112      1.0  0.29505  0.12964  0.82769  1.0000
  H   H85       1.0  0.32727  0.18879  0.78061  1.0000
  H   H86       1.0  0.36731  0.13404  0.77044  1.0000
  H   H87       1.0  0.31582  0.07374  0.83397  1.0000
  H   H88       1.0  0.27574  0.12853  0.84406  1.0000
  C   C113      1.0  0.01331  0.30029  0.78800  1.0000
  C   C114      1.0  0.01656  0.10296  0.78502  1.0000
  C   C115      1.0  0.04603  0.12795  0.78237  1.0000
  C   C116      1.0  0.06653  0.13889  0.80463  1.0000
  C   C117      1.0  0.05705  0.12537  0.82976  1.0000
  C   C118      1.0  0.02775  0.09978  0.83234  1.0000
  H   H89       1.0  0.27838  0.08938  0.73292  1.0000
  H   H90       1.0  0.05313  0.13868  0.76295  1.0000
  H   H91       1.0  0.07282  0.13389  0.84700  1.0000
  C   C119      1.0  0.01792  0.30470  0.81539  1.0000
  C   C120      1.0  0.22722  0.01984  0.81517  1.0000
  C   C121      1.0  0.11523  0.20697  0.73689  1.0000
  C   C122      1.0  0.17924  0.10660  0.74633  1.0000
  H   H92       1.0  0.17990  0.25723  0.95668  1.0000
  H   H93       1.0  0.16346  0.05240  0.75993  1.0000
  C   C123      1.0  0.19570  0.14052  0.75298  1.0000
  H   H94       1.0  0.24120  0.06909  0.85530  1.0000
  C   C124      1.0  0.15226  0.46759  0.84737  1.0000
  H   H95       1.0  0.03210  0.27792  0.85234  1.0000
  H   H96       1.0  0.02114  0.08827  0.85161  1.0000
  H   H97       1.0  0.09052  0.25024  0.76019  1.0000
  H   H98       1.0  0.34384  0.18279  0.88252  1.0000
  C   C125      1.0  0.04783  0.20417  0.70938  1.0000
  H   H99       1.0  0.07297  0.16013  0.68660  1.0000
  C   C126      1.0  0.32167  0.00549  0.72802  1.0000
  C   C127      1.0  0.10821  0.03781  0.70877  1.0000
  H   H100      1.0  0.13020  0.06577  0.67447  1.0000
  P   P4        1.0  0.18533  0.04767  0.81581  1.0000
  H   H101      1.0  0.40952  0.24541  0.80857  1.0000
  C   C128      1.0  0.05220  0.22945  0.73041  1.0000
  H   H102      1.0  0.38043  0.14596  0.85087  1.0000
  C   C129      1.0  0.26069  0.31444  0.83086  1.0000
  C   C130      1.0  0.23905  0.33821  0.84642  1.0000
  C   C131      1.0  0.24547  0.34054  0.87372  1.0000
  C   C132      1.0  0.27319  0.31868  0.88552  1.0000
  C   C133      1.0  0.29497  0.29457  0.87002  1.0000
  C   C134      1.0  0.28858  0.29278  0.84256  1.0000
  P   P5        1.0  0.32790  0.26392  0.88621  1.0000
  C   C135      1.0  0.36241  0.29028  0.90401  1.0000
  C   C136      1.0  0.30076  0.23572  0.90864  1.0000
  C   C137      1.0  0.27744  0.20791  0.89848  1.0000
  C   C138      1.0  0.25490  0.18715  0.91548  1.0000
  C   C139      1.0  0.25520  0.19422  0.94272  1.0000
  H   H103      1.0  0.02633  0.40211  0.69250  1.0000
  C   C140      1.0  0.30029  0.24323  0.93602  1.0000
  C   C141      1.0  0.38778  0.27153  0.92047  1.0000
  H   H104      1.0  0.09292  0.00412  0.74226  1.0000
  H   H105      1.0  0.00765  0.32484  0.77630  1.0000
  C   C142      1.0  0.39298  0.34874  0.91439  1.0000
  C   C143      1.0  0.36547  0.32901  0.90078  1.0000
  C   C144      1.0  0.35422  0.23580  0.86310  1.0000
  C   C145      1.0  0.37393  0.25318  0.84251  1.0000
  C   C146      1.0  0.39515  0.23199  0.82482  1.0000
  C   C147      1.0  0.39748  0.19339  0.82788  1.0000
  C   C148      1.0  0.37891  0.17598  0.84877  1.0000
  C   C149      1.0  0.35759  0.19705  0.86644  1.0000
  H   H106      1.0  0.25501  0.31174  0.80982  1.0000
  H   H107      1.0  0.21649  0.35386  0.83747  1.0000
  H   H108      1.0  0.22783  0.35806  0.88587  1.0000
  H   H109      1.0  0.27678  0.31965  0.90686  1.0000
  H   H110      1.0  0.30400  0.27377  0.83015  1.0000
  H   H111      1.0  0.27615  0.20271  0.87733  1.0000
  H   H112      1.0  0.23622  0.16640  0.90747  1.0000
  C   C150      1.0  0.16264  0.43494  0.83426  1.0000
  H   H113      1.0  0.14815  0.46199  0.77055  1.0000
  H   H114      1.0  0.31661  0.26562  0.94429  1.0000
  H   H115      1.0  0.38629  0.24154  0.92272  1.0000
  H   H116      1.0  0.34699  0.34404  0.88761  1.0000
  H   H117      1.0  0.37256  0.28309  0.83998  1.0000
  C   C151      1.0  0.08178  0.49129  0.71674  1.0000
  H   H118      1.0  0.41326  0.17679  0.81389  1.0000
  C   C152      1.0  0.11045  0.18140  0.71629  1.0000
  C   C153      1.0  0.01706  0.30347  0.72396  1.0000
  C   C154      1.0  0.25180  0.03812  0.72116  1.0000
  H   H119      1.0  0.23666  0.09333  0.90088  1.0000
  C   C155      1.0  0.21402  0.07395  0.86376  1.0000
  H   H120      1.0  0.10839  0.06754  0.80344  1.0000
  H   H121      1.0  0.22124  0.17280  0.78394  1.0000
  C   C156      1.0  0.17599  0.07856  0.76544  1.0000
  C   C157      1.0  0.31698  0.04363  0.73235  1.0000
  P   P6        1.0  0.01395  0.25877  0.74060  1.0000
  H   H122      1.0  0.12145  0.07053  0.84953  1.0000
  H   H123      1.0  0.11790  0.09555  0.89474  1.0000
  C   C158      1.0  0.20548  0.11841  0.79788  1.0000
  C   C159      1.0  0.13518  0.04482  0.68954  1.0000
  H   H124      1.0  0.25270  0.04895  0.78213  1.0000
  C   C160      1.0  0.41526  0.29133  0.93403  1.0000
  C   C161      1.0  0.18877  0.08439  0.79144  1.0000
  C   C162      1.0  0.14693  0.07471  0.86038  1.0000
  C   C163      1.0  0.14469  0.08879  0.88622  1.0000
  C   C164      1.0  0.20875  0.14639  0.77873  1.0000
  C   C165      1.0  0.00799  0.08800  0.80985  1.0000
  C   C166      1.0  0.41781  0.32994  0.93105  1.0000
  C   C167      1.0  0.05241  0.34860  0.69837  1.0000
  H   H125      1.0  0.02187  0.20248  0.69859  1.0000
  H   H126      1.0  0.17509  0.10667  0.92074  1.0000
  C   C168      1.0  0.17698  0.09513  0.90089  1.0000
  Fe  Fe12      1.0  0.48638  0.03952  0.72889  1.0000
  C   C169      1.0  0.18166  0.06689  0.84895  1.0000
  C   C170      1.0  0.14996  0.46442  0.79191  1.0000
  H   H127      1.0  0.22506  0.05136  0.71911  1.0000
  H   H128      1.0  0.21607  0.12343  0.81762  1.0000
  C   C171      1.0  0.16824  0.02432  0.68949  1.0000
  H   H129      1.0  0.39520  0.37863  0.91187  1.0000
  H   H130      1.0  0.01567  0.33215  0.82419  1.0000
  C   C172      1.0  0.14497  0.01984  0.80790  1.0000
  C   C173      1.0  0.21163  0.08775  0.88965  1.0000
  C   C174      1.0  0.25548  0.02702  0.79672  1.0000
  H   H131      1.0  0.07765  0.35632  0.68813  1.0000
  C   C175      1.0  0.03122  0.23901  0.81983  1.0000
  C   C176      1.0  0.07909  0.01627  0.79778  1.0000
  C   C177      1.0  0.07684  0.18015  0.70244  1.0000
  H   H132      1.0  0.19827  0.16239  0.73830  1.0000
  H   H133      1.0  0.14084  0.20736  0.74822  1.0000
  C   C178      1.0  0.01768  0.26505  0.77623  1.0000
  C   C179      1.0  0.16152  0.43337  0.80657  1.0000
  H   H134      1.0  0.13262  0.16231  0.71128  1.0000
  C   C180      1.0  0.02640  0.23444  0.79251  1.0000
  H   H135      1.0  0.07247  0.29425  0.70839  1.0000
  C   C181      1.0  0.02717  0.27417  0.83127  1.0000
  H   H136      1.0  0.15229  0.46836  0.86886  1.0000
  C   C182      1.0  0.08636  0.23110  0.74383  1.0000
  H   H137      1.0  0.16831  0.40754  0.79655  1.0000
  C   C183      1.0  0.28203  0.05991  0.72904  1.0000
  H   H138      1.0  0.03932  0.21537  0.83198  1.0000
  H   H139      1.0  0.18880  0.02973  0.67430  1.0000
  S   S25       1.0  0.01124  0.02728  0.74105  1.0000
  C   C184      1.0  0.04930  0.31333  0.70997  1.0000
  C   C185      1.0  0.17467  0.99678  0.70880  1.0000
  H   H140      1.0  0.34035  0.06042  0.73874  1.0000
  C   C186      1.0  0.11074  0.03742  0.80306  1.0000
  C   C187      1.0  0.11420  0.01010  0.72776  1.0000
  C   C188      1.0  0.02348  0.37435  0.70070  1.0000
  S   S26       1.0  0.48294  0.04051  0.77377  1.0000
  H   H141      1.0  0.43471  0.27667  0.94674  1.0000
  C   C189      1.0  0.27767  0.22240  0.95297  1.0000
  H   H142      1.0  0.00061  0.09514  0.76776  1.0000
  H   H143      1.0  0.23713  0.17856  0.95577  1.0000
  C   C190      1.0  0.17426  0.23757  0.97243  1.0000
  H   H144      1.0  0.06288  0.48433  0.80608  1.0000
  H   H145      1.0  0.03124  0.20722  0.78407  1.0000
  H   H146      1.0  0.43919  0.34526  0.94150  1.0000
  H   H147      1.0  0.05853  0.47454  0.71026  1.0000
  H   H148      1.0  0.31071  0.01286  0.78378  1.0000
  C   C191      1.0  0.25635  0.99976  0.71656  1.0000
  C   C192      1.0  0.28852  0.00655  0.79752  1.0000
  H   H149      1.0  0.06365  0.49253  0.75712  1.0000
  H   H150      1.0  0.27677  0.22856  0.97402  1.0000
  H   H151      1.0  0.00182  0.49291  0.82730  1.0000
  H   H152      1.0  0.24230  0.98351  0.16888  1.0000
  C   C193      1.0  0.09574  0.74715  0.26796  1.0000
  Fe  Fe13      1.0  0.44007  0.97660  0.27776  1.0000
  C   C194      1.0  0.29127  0.92758  0.19137  1.0000
  C   C195      1.0  0.35260  0.92867  0.17175  1.0000
  H   H153      1.0  0.22979  0.86046  0.26380  1.0000
  C   C196      1.0  0.04284  0.94077  0.17522  1.0000
  S   S27       1.0  0.42945  0.98082  0.23375  1.0000
  C   C197      1.0  0.03156  0.67876  0.24754  1.0000
  H   H154      1.0  0.11155  0.84497  0.29941  1.0000
  H   H155      1.0  0.48607  0.86524  0.21484  1.0000
  C   C198      1.0  0.09362  0.99118  0.26090  1.0000
  C   C199      1.0  0.47473  0.68399  0.15209  1.0000
  C   C200      1.0  0.35740  0.89423  0.28901  1.0000
  C   C201      1.0  0.31828  0.91132  0.17514  1.0000
  C   C202      1.0  0.06908  0.87380  0.27718  1.0000
  C   C203      1.0  0.10869  0.79750  0.22670  1.0000
  H   H156      1.0  0.37492  0.89534  0.27162  1.0000
  H   H157      1.0  0.08836  0.97027  0.15735  1.0000
  H   H158      1.0  0.27669  0.95999  0.28118  1.0000
  C   C204      1.0  0.03876  0.89824  0.27839  1.0000
  Fe  Fe14      1.0  0.99897  0.53368  0.26551  1.0000
  S   S28       1.0  0.01442  0.90986  0.24937  1.0000
  H   H159      1.0  0.15520  0.74352  0.27130  1.0000
  H   H160      1.0  0.13814  0.92783  0.23723  1.0000
  C   C205      1.0  0.08870  0.86444  0.30037  1.0000
  C   C206      1.0  0.11972  0.63518  0.28901  1.0000
  C   C207      1.0  0.09050  0.61000  0.28371  1.0000
  H   H161      1.0  0.44957  0.67946  0.16340  1.0000
  S   S29       1.0  0.40008  0.95293  0.30945  1.0000
  H   H162      1.0  0.14466  0.63403  0.27712  1.0000
  H   H163      1.0  0.09318  0.58978  0.26793  1.0000
  H   H164      1.0  0.00426  0.93137  0.30400  1.0000
  H   H165      1.0  0.26466  0.91396  0.19328  1.0000
  P   P7        1.0  0.01866  0.75197  0.26456  1.0000
  H   H166      1.0  0.06029  0.92454  0.18846  1.0000
  C   C208      1.0  0.06549  0.76295  0.25438  1.0000
  C   C209      1.0  0.00442  0.93621  0.17591  1.0000
  C   C210      1.0  0.99705  0.98362  0.14165  1.0000
  C   C211      1.0  0.35987  0.96238  0.18449  1.0000
  H   H167      1.0  0.09135  0.72785  0.28419  1.0000
  C   C212      1.0  0.28905  0.98690  0.27775  1.0000
  S   S30       1.0  0.99872  0.53088  0.22065  1.0000
  C   C213      1.0  0.13207  0.75615  0.26077  1.0000
  H   H168      1.0  0.04965  0.80158  0.22317  1.0000
  H   H169      1.0  0.11371  0.81721  0.21084  1.0000
  C   C214      1.0  0.19242  0.95228  0.23270  1.0000
  H   H170      1.0  0.07725  0.86198  0.25835  1.0000
  C   C215      1.0  0.00505  0.70675  0.25216  1.0000
  H   H171      1.0  0.27361  0.90934  0.25002  1.0000
  C   C216      1.0  0.24408  0.91391  0.24723  1.0000
  C   C217      1.0  0.21933  0.88590  0.25474  1.0000
  H   H172      1.0  0.18136  0.97767  0.22420  1.0000
  C   C218      1.0  0.18121  0.89076  0.25085  1.0000
  H   H173      1.0  0.16204  0.86907  0.25680  1.0000
  H   H174      1.0  0.37359  0.91610  0.15922  1.0000
  C   C219      1.0  0.16776  0.92397  0.23992  1.0000
  H   H175      1.0  0.46436  0.63863  0.12514  1.0000
  H   H176      1.0  0.05205  0.97454  0.23256  1.0000
  C   C220      1.0  0.13859  0.78138  0.24022  1.0000
  H   H177      1.0  0.04078  0.62165  0.23596  1.0000
  H   H178      1.0  0.31257  0.88527  0.16513  1.0000
  H   H179      1.0  0.99221  0.91656  0.18973  1.0000
  H   H180      1.0  0.06079  0.68361  0.25096  1.0000
  H   H181      1.0  0.08261  0.97303  0.27615  1.0000
  C   C221      1.0  0.01888  0.75070  0.30043  1.0000
  C   C222      1.0  0.05853  0.96657  0.15779  1.0000
  C   C223      1.0  0.23085  0.94740  0.23617  1.0000
  C   C224      1.0  0.05829  0.61055  0.29919  1.0000
  C   C225      1.0  0.33310  0.97856  0.20094  1.0000
  H   H182      1.0  0.38640  0.97602  0.18171  1.0000
  H   H183      1.0  0.32627  0.84653  0.27535  1.0000
  C   C226      1.0  0.36337  0.91938  0.30979  1.0000
  C   C227      1.0  0.07226  0.78834  0.23370  1.0000
  C   C228      1.0  0.48305  0.66099  0.13054  1.0000
  C   C229      1.0  0.29860  0.96116  0.20472  1.0000
  S   S31       1.0  0.02069  0.57880  0.29425  1.0000
  H   H184      1.0  0.16684  0.78835  0.23485  1.0000
  C   C230      1.0  0.32965  0.86657  0.29118  1.0000
  H   H185      1.0  0.04734  0.80322  0.30417  1.0000
  P   P8        1.0  0.26325  0.98269  0.22517  1.0000
  C   C231      1.0  0.02037  0.64345  0.23902  1.0000
  C   C232      1.0  0.16999  0.97785  0.30842  1.0000
  H   H186      1.0  0.12843  0.93763  0.29648  1.0000
  C   C233      1.0  0.02813  0.91330  0.30276  1.0000
  C   C234      1.0  0.15564  0.94186  0.30500  1.0000
  C   C235      1.0  0.03580  0.98812  0.14122  1.0000
  C   C236      1.0  0.11720  0.66145  0.30971  1.0000
  H   H187      1.0  0.16459  0.88306  0.31106  1.0000
  H   H188      1.0  0.49162  0.73036  0.17581  1.0000
  H   H189      1.0  0.99264  0.69653  0.30410  1.0000
  C   C237      1.0  0.07587  0.99211  0.23621  1.0000
  H   H190      1.0  0.11333  0.81414  0.57513  1.0000
  C   C238      1.0  0.19224  0.91899  0.63793  1.0000
  Fe  Fe15      1.0  0.20742  0.76207  0.60360  1.0000
  C   C239      1.0  0.02275  0.74850  0.35609  1.0000
  S   S32       1.0  0.23052  0.74906  0.56188  1.0000
  H   H191      1.0  0.22662  0.89064  0.33089  1.0000
  C   C240      1.0  0.03723  0.77890  0.34230  1.0000
  Fe  Fe16      1.0  0.15304  0.80586  0.63638  1.0000
  H   H192      1.0  0.01503  0.72364  0.55133  1.0000
  S   S33       1.0  0.14885  0.74997  0.61663  1.0000
  S   S34       1.0  0.21001  0.81966  0.62141  1.0000
  Fe  Fe17      1.0  0.16691  0.74351  0.34159  1.0000
  S   S35       1.0  0.13344  0.76956  0.37440  1.0000
  C   C241      1.0  0.25721  0.93560  0.63572  1.0000
  Fe  Fe18      1.0  0.22641  0.80607  0.34302  1.0000
  S   S36       1.0  0.19735  0.83595  0.37617  1.0000
  H   H193      1.0  0.06008  0.63001  0.50820  1.0000
  Fe  Fe19      1.0  0.18764  0.78012  0.39570  1.0000
  S   S37       1.0  0.18029  0.78193  0.44138  1.0000
  Fe  Fe20      1.0  0.14484  0.82385  0.35405  1.0000
  S   S38       1.0  0.22124  0.75011  0.36389  1.0000
  C   C242      1.0  0.07816  0.87989  0.32473  1.0000
  C   C243      1.0  0.01228  0.60511  0.52600  1.0000
  H   H194      1.0  0.29401  0.88930  0.35132  1.0000
  H   H195      1.0  0.02916  0.67109  0.58569  1.0000
  H   H196      1.0  0.03964  0.91628  0.34462  1.0000
  C   C244      1.0  0.11369  0.64915  0.59277  1.0000
  H   H197      1.0  0.19899  0.64001  0.62116  1.0000
  H   H198      1.0  0.08231  0.68236  0.34088  1.0000
  H   H199      1.0  0.31331  0.76469  0.37658  1.0000
  S   S39       1.0  0.17381  0.79771  0.31956  1.0000
  C   C245      1.0  0.34005  0.91732  0.33221  1.0000
  H   H200      1.0  0.34427  0.93658  0.34842  1.0000
  H   H201      1.0  0.08540  0.64165  0.59700  1.0000
  H   H202      1.0  0.27544  0.75036  0.41648  1.0000
  C   C246      1.0  0.22597  0.91903  0.62430  1.0000
  C   C247      1.0  0.19411  0.77155  0.47479  1.0000
  C   C248      1.0  0.17507  0.78854  0.49602  1.0000
  C   C249      1.0  0.18536  0.78173  0.52271  1.0000
  C   C250      1.0  0.21489  0.75765  0.52864  1.0000
  C   C251      1.0  0.23375  0.74051  0.50741  1.0000
  C   C252      1.0  0.22348  0.74731  0.48074  1.0000
  H   H203      1.0  0.15241  0.80744  0.49178  1.0000
  H   H204      1.0  0.17106  0.79588  0.53862  1.0000
  H   H205      1.0  0.25668  0.72191  0.51163  1.0000
  H   H206      1.0  0.23834  0.73381  0.46478  1.0000
  C   C253      1.0  0.11529  0.71954  0.47154  1.0000
  C   C254      1.0  0.14025  0.69215  0.46322  1.0000
  C   C255      1.0  0.14873  0.66223  0.47992  1.0000
  C   C256      1.0  0.13256  0.65990  0.50509  1.0000
  C   C257      1.0  0.10819  0.68789  0.51388  1.0000
  C   C258      1.0  0.09922  0.71746  0.49674  1.0000
  P   P9        1.0  0.08798  0.68527  0.54666  1.0000
  C   C259      1.0  0.07431  0.73186  0.55621  1.0000
  C   C260      1.0  0.03679  0.74267  0.55708  1.0000
  C   C261      1.0  0.22521  0.95059  0.32880  1.0000
  C   C262      1.0  0.05459  0.80423  0.57208  1.0000
  C   C263      1.0  0.09191  0.79422  0.56997  1.0000
  C   C264      1.0  0.10172  0.75835  0.56178  1.0000
  C   C265      1.0  0.12321  0.66968  0.56998  1.0000
  C   C266      1.0  0.16068  0.67873  0.56579  1.0000
  C   C267      1.0  0.18791  0.66757  0.58397  1.0000
  C   C268      1.0  0.17804  0.64766  0.60666  1.0000
  H   H207      1.0  0.10933  0.74302  0.45865  1.0000
  H   H208      1.0  0.15342  0.69458  0.44395  1.0000
  H   H209      1.0  0.25973  0.96143  0.45433  1.0000
  H   H210      1.0  0.13955  0.63662  0.51786  1.0000
  H   H211      1.0  0.08041  0.73935  0.50284  1.0000
  C   C269      1.0  0.02702  0.77865  0.56525  1.0000
  C   C270      1.0  0.00443  0.72015  0.31443  1.0000
  H   H212      1.0  0.04724  0.83190  0.57896  1.0000
  H   H213      1.0  0.06861  0.77542  0.63464  1.0000
  C   C271      1.0  0.20453  0.98191  0.32126  1.0000
  H   H214      1.0  0.16905  0.69497  0.54870  1.0000
  H   H215      1.0  0.21666  0.67509  0.58073  1.0000
  C   C272      1.0  0.19162  0.93106  0.39824  1.0000
  C   C273      1.0  0.15837  0.91486  0.40653  1.0000
  C   C274      1.0  0.15851  0.88915  0.42735  1.0000
  C   C275      1.0  0.19181  0.87973  0.43999  1.0000
  C   C276      1.0  0.22527  0.89631  0.43211  1.0000
  C   C277      1.0  0.22505  0.92148  0.41073  1.0000
  P   P10       1.0  0.26872  0.88105  0.44642  1.0000
  C   C278      1.0  0.30145  0.91888  0.44788  1.0000
  C   C279      1.0  0.26300  0.86612  0.48045  1.0000
  C   C280      1.0  0.23705  0.88390  0.49697  1.0000
  C   C281      1.0  0.23249  0.87225  0.52327  1.0000
  C   C282      1.0  0.25423  0.84327  0.53341  1.0000
  C   C283      1.0  0.28083  0.82618  0.51735  1.0000
  C   C284      1.0  0.28554  0.83779  0.49107  1.0000
  C   C285      1.0  0.33971  0.91177  0.44619  1.0000
  C   C286      1.0  0.02472  0.65283  0.56887  1.0000
  C   C287      1.0  0.04876  0.65387  0.54693  1.0000
  H   H216      1.0  0.05068  0.80139  0.35298  1.0000
  H   H217      1.0  0.16826  0.64114  0.47344  1.0000
  C   C288      1.0  0.28491  0.84400  0.42515  1.0000
  C   C289      1.0  0.27400  0.80719  0.42997  1.0000
  C   C290      1.0  0.31659  0.82330  0.38520  1.0000
  C   C291      1.0  0.30592  0.85197  0.40240  1.0000
  H   H218      1.0  0.02505  0.74732  0.37752  1.0000
  H   H219      1.0  0.13270  0.92102  0.39613  1.0000
  H   H220      1.0  0.13305  0.87520  0.43293  1.0000
  H   H221      1.0  0.19150  0.85854  0.45528  1.0000
  H   H222      1.0  0.25076  0.93295  0.40328  1.0000
  H   H223      1.0  0.22004  0.90647  0.48948  1.0000
  H   H224      1.0  0.21172  0.88527  0.53573  1.0000
  H   H225      1.0  0.25006  0.83345  0.55356  1.0000
  H   H226      1.0  0.29719  0.80329  0.52521  1.0000
  H   H227      1.0  0.30646  0.82429  0.47904  1.0000
  H   H228      1.0  0.34997  0.88356  0.44397  1.0000
  C   C292      1.0  0.21092  0.91500  0.32479  1.0000
  S   S40       1.0  0.15562  0.69177  0.31581  1.0000
  H   H229      1.0  0.31285  0.98840  0.31700  1.0000
  H   H230      1.0  0.25664  0.80065  0.44677  1.0000
  H   H231      1.0  0.33238  0.82948  0.36744  1.0000
  H   H232      1.0  0.31355  0.88032  0.39764  1.0000
  H   H233      1.0  0.99809  0.78677  0.56630  1.0000
  H   H234      1.0  0.28352  0.93511  0.62535  1.0000
  H   H235      1.0  0.01720  0.73684  0.61737  1.0000
  C   C293      1.0  0.28903  0.95551  0.45200  1.0000
  C   C294      1.0  0.36508  0.94114  0.44737  1.0000
  C   C295      1.0  0.28462  0.77860  0.41277  1.0000
  C   C296      1.0  0.04801  0.90445  0.32581  1.0000
  C   C297      1.0  0.03535  0.77992  0.31462  1.0000
  H   H236      1.0  0.22800  0.90574  0.60506  1.0000
  H   H237      1.0  0.16808  0.90558  0.62934  1.0000
  H   H238      1.0  0.19153  0.95000  0.38152  1.0000
  H   H239      1.0  0.13345  0.62293  0.62866  1.0000
  H   H240      1.0  0.13080  0.75116  0.56015  1.0000
  S   S41       1.0  0.10182  0.86947  0.35426  1.0000
  C   C298      1.0  0.14102  0.63822  0.61093  1.0000
  C   C299      1.0  0.30589  0.78666  0.39035  1.0000
  S   S42       1.0  0.10542  0.84599  0.63207  1.0000
  H   H241      1.0  0.03107  0.63758  0.33198  1.0000
  C   C300      1.0  0.08473  0.66246  0.32489  1.0000
  C   C301      1.0  0.31162  0.89036  0.33402  1.0000
  H   H242      1.0  0.25213  0.95380  0.33813  1.0000
  H   H243      1.0  0.99586  0.69518  0.35281  1.0000
  C   C302      1.0  0.04219  0.62987  0.52543  1.0000
  C   C303      1.0  0.17596  0.91072  0.31335  1.0000
  S   S43       1.0  0.27440  0.82650  0.31628  1.0000
  C   C304      1.0  0.05568  0.63702  0.31976  1.0000
  H   H244      1.0  0.39455  0.93553  0.44569  1.0000
  H   H245      1.0  0.12246  0.97979  0.34982  1.0000
  H   H246      1.0  0.06567  0.98001  0.37671  1.0000
  C   C305      1.0  0.00623  0.71922  0.34217  1.0000
  H   H247      1.0  0.00747  0.58658  0.50938  1.0000
  S   S44       1.0  0.23179  0.73488  0.64056  1.0000
  C   C306      1.0  0.02021  0.74084  0.63855  1.0000
  C   C307      1.0  0.99500  0.62787  0.56945  1.0000
  C   C308      1.0  0.30690  0.86401  0.31385  1.0000
  C   C309      1.0  0.35247  0.97766  0.45078  1.0000
  C   C310      1.0  0.31448  0.98481  0.45326  1.0000
  S   S45       1.0  0.17253  0.78256  0.67513  1.0000
  Fe  Fe21      1.0  0.42667  0.97716  0.72495  1.0000
  S   S46       1.0  0.42135  0.97388  0.76925  1.0000
  S   S47       1.0  0.39192  0.94609  0.69344  1.0000
  S   S48       1.0  0.15343  0.67504  0.67791  1.0000
  H   H248      1.0  0.41906  0.68919  0.72531  1.0000
  Fe  Fe22      1.0  0.48413  0.97759  0.77096  1.0000
  C   C311      1.0  0.02471  0.58381  0.81813  1.0000
  C   C312      1.0  0.10963  0.73381  0.73090  1.0000
  C   C313      1.0  0.05994  0.88823  0.66326  1.0000
  C   C314      1.0  0.30348  0.85228  0.69113  1.0000
  H   H249      1.0  0.01355  0.61148  0.82128  1.0000
  C   C315      1.0  0.35759  0.91015  0.69356  1.0000
  C   C316      1.0  0.34673  0.89148  0.71669  1.0000
  C   C317      1.0  0.31986  0.86283  0.71543  1.0000
  H   H250      1.0  0.46318  0.73520  0.74299  1.0000
  H   H251      1.0  0.35915  0.89899  0.73549  1.0000
  H   H252      1.0  0.31179  0.84861  0.73344  1.0000
  H   H253      1.0  0.07300  0.57672  0.71451  1.0000
  C   C318      1.0  0.09384  0.86925  0.66157  1.0000
  H   H254      1.0  0.16715  0.71747  0.72982  1.0000
  H   H255      1.0  0.19034  0.77886  0.74454  1.0000
  S   S49       1.0  0.06287  0.93014  0.73791  1.0000
  C   C319      1.0  0.23287  0.99231  0.83462  1.0000
  H   H256      1.0  0.02402  0.92154  0.68778  1.0000
  H   H257      1.0  0.21909  0.88812  0.70232  1.0000
  C   C320      1.0  0.04385  0.60763  0.68448  1.0000
  C   C321      1.0  0.07458  0.59949  0.70053  1.0000
  C   C322      1.0  0.34093  0.89983  0.66934  1.0000
  Fe  Fe23      1.0  0.01069  0.96505  0.73774  1.0000
  C   C323      1.0  0.04665  0.63752  0.66641  1.0000
  P   P11       1.0  0.03513  0.75608  0.72884  1.0000
  C   C324      1.0  0.07948  0.65895  0.66443  1.0000
  H   H258      1.0  0.14602  0.83102  0.75172  1.0000
  C   C325      1.0  0.05265  0.51224  0.80958  1.0000
  C   C326      1.0  0.01811  0.51701  0.82172  1.0000
  H   H259      1.0  0.17315  0.96638  0.80901  1.0000
  C   C327      1.0  0.44280  0.85207  0.70585  1.0000
  H   H260      1.0  0.21186  0.98716  0.84954  1.0000
  H   H261      1.0  0.31985  0.96386  0.81743  1.0000
  H   H262      1.0  0.15032  0.96727  0.74214  1.0000
  H   H263      1.0  0.07949  0.82185  0.74481  1.0000
  C   C328      1.0  0.14237  0.53323  0.73394  1.0000
  C   C329      1.0  0.08417  0.76281  0.73540  1.0000
  C   C330      1.0  0.99956  0.72917  0.68352  1.0000
  C   C331      1.0  0.02919  0.67897  0.73617  1.0000
  H   H264      1.0  0.07451  0.60365  0.80019  1.0000
  H   H265      1.0  0.02579  0.78966  0.78129  1.0000
  C   C332      1.0  0.21779  0.93265  0.73158  1.0000
  C   C333      1.0  0.13584  0.80362  0.74651  1.0000
  C   C334      1.0  0.44576  0.87786  0.78729  1.0000
  C   C335      1.0  0.11812  0.86938  0.68326  1.0000
  C   C336      1.0  0.10879  0.50243  0.69857  1.0000
  C   C337      1.0  0.38646  0.79060  0.73783  1.0000
  C   C338      1.0  0.16076  0.77432  0.74252  1.0000
  C   C339      1.0  0.05377  0.76746  0.67564  1.0000
  C   C340      1.0  0.07435  0.90702  0.70836  1.0000
  H   H266      1.0  0.29555  0.95395  0.71755  1.0000
  H   H267      1.0  0.16025  0.53178  0.69314  1.0000
  C   C341      1.0  0.05932  0.57912  0.80595  1.0000
  H   H268      1.0  0.27967  0.96391  0.66940  1.0000
  H   H269      1.0  0.43311  0.88067  0.66891  1.0000
  C   C342      1.0  0.14721  0.98082  0.80615  1.0000
  C   C343      1.0  0.21910  0.89537  0.72318  1.0000
  C   C344      1.0  0.22297  0.87476  0.76888  1.0000
  C   C345      1.0  0.09779  0.79808  0.74274  1.0000
  C   C346      1.0  0.48597  0.89530  0.68583  1.0000
  H   H270      1.0  0.33334  0.77263  0.72289  1.0000
  C   C347      1.0  0.05018  0.90704  0.68664  1.0000
  H   H271      1.0  0.13133  0.61335  0.71037  1.0000
  P   P12       1.0  0.21740  0.97041  0.70791  1.0000
  C   C348      1.0  0.22166  0.86663  0.74179  1.0000
  Fe  Fe24      1.0  0.23017  0.79229  0.65912  1.0000
  C   C349      1.0  0.14767  0.73957  0.73449  1.0000
  H   H272      1.0  0.37691  0.81883  0.74120  1.0000
  H   H273      1.0  0.07652  0.78453  0.68271  1.0000
  C   C350      1.0  0.10759  0.62051  0.69825  1.0000
  H   H274      1.0  0.11737  0.92983  0.79856  1.0000
  H   H275      1.0  0.37361  0.82932  0.83263  1.0000
  C   C351      1.0  0.14575  0.57802  0.78864  1.0000
  C   C352      1.0  0.07356  0.54316  0.80147  1.0000
  C   C353      1.0  0.02913  0.75045  0.69348  1.0000
  H   H276      1.0  0.22357  0.91812  0.79837  1.0000
  H   H277      1.0  0.14477  0.85577  0.68189  1.0000
  S   S50       1.0  0.48952  0.97682  0.72651  1.0000
  C   C354      1.0  0.21938  0.94064  0.75882  1.0000
  C   C355      1.0  0.17654  0.58096  0.80560  1.0000
  C   C356      1.0  0.19766  0.61363  0.80596  1.0000
  C   C357      1.0  0.18837  0.64336  0.78925  1.0000
  C   C358      1.0  0.15791  0.64050  0.77219  1.0000
  C   C359      1.0  0.13669  0.60802  0.77188  1.0000
  H   H278      1.0  0.22147  0.61576  0.81903  1.0000
  C   C360      1.0  0.22188  0.91177  0.77740  1.0000
  H   H279      1.0  0.10066  0.70713  0.72353  1.0000
  C   C361      1.0  0.14709  0.98935  0.72770  1.0000
  H   H280      1.0  0.16649  0.54882  0.74025  1.0000
  H   H281      1.0  0.22349  0.83808  0.73498  1.0000
  H   H282      1.0  0.02321  0.64417  0.65384  1.0000
  C   C362      1.0  0.39353  0.84296  0.81985  1.0000
  H   H283      1.0  0.16350  0.93469  0.67343  1.0000
  C   C363      1.0  0.22107  0.95202  0.67467  1.0000
  C   C364      1.0  0.40539  0.87904  0.82571  1.0000
  H   H284      1.0  0.20491  0.66853  0.78937  1.0000
  H   H285      1.0  0.15084  0.66327  0.75899  1.0000
  H   H286      1.0  0.11326  0.60615  0.75842  1.0000
  C   C365      1.0  0.08146  0.97754  0.79654  1.0000
  Fe  Fe25      1.0  0.17250  0.72708  0.65453  1.0000
  C   C366      1.0  0.01757  0.71427  0.74498  1.0000
  H   H287      1.0  0.08108  0.68173  0.65042  1.0000
  H   H288      1.0  0.44173  0.92388  0.81454  1.0000
  H   H289      1.0  0.22539  0.85237  0.78320  1.0000
  C   C367      1.0  0.08463  0.50171  0.74338  1.0000
  C   C368      1.0  0.40804  0.82415  0.79788  1.0000
  H   H290      1.0  0.39473  0.89350  0.84296  1.0000
  C   C369      1.0  0.18976  0.93547  0.66298  1.0000
  C   C370      1.0  0.11559  0.95984  0.80033  1.0000
  C   C371      1.0  0.26594  0.97183  0.83527  1.0000
  C   C372      1.0  0.29378  0.97899  0.81670  1.0000
  C   C373      1.0  0.04931  0.76252  0.64829  1.0000
  C   C374      1.0  0.00407  0.55280  0.82591  1.0000
  C   C375      1.0  0.42359  0.78080  0.74294  1.0000
  C   C376      1.0  0.43506  0.74388  0.73871  1.0000
  C   C377      1.0  0.41002  0.71757  0.72878  1.0000
  C   C378      1.0  0.37342  0.72791  0.72304  1.0000
  C   C379      1.0  0.11040  0.65036  0.68019  1.0000
  S   S51       1.0  0.27135  0.81431  0.69063  1.0000
  C   C380      1.0  0.43169  0.89629  0.80957  1.0000
  H   H291      1.0  0.34905  0.91396  0.65130  1.0000
  C   C381      1.0  0.01536  0.64653  0.74792  1.0000
  H   H292      1.0  0.39951  0.79574  0.79424  1.0000
  H   H293      1.0  0.41626  0.83834  0.70480  1.0000
  H   H294      1.0  0.21915  0.96924  0.76560  1.0000
  C   C382      1.0  0.45245  0.87596  0.68509  1.0000
  C   C383      1.0  0.43382  0.84173  0.78114  1.0000
  H   H295      1.0  0.05692  0.96128  0.79213  1.0000
  C   C384      1.0  0.25489  0.95193  0.66087  1.0000
  C   C385      1.0  0.13922  0.52321  0.70720  1.0000
  H   H296      1.0  0.35418  0.70772  0.71493  1.0000
  H   H297      1.0  0.04781  0.67625  0.71949  1.0000
  C   C386      1.0  0.31405  0.87125  0.66811  1.0000
  C   C387      1.0  0.36163  0.76441  0.72762  1.0000
  H   H298      1.0  0.27034  0.95095  0.85049  1.0000
  C   C388      1.0  0.01038  0.79708  0.74005  1.0000
  H   H299      1.0  0.12740  0.88863  0.72324  1.0000
  C   C389      1.0  0.10838  0.88824  0.70662  1.0000
  H   H300      1.0  0.46659  0.89163  0.77536  1.0000
  C   C390      1.0  0.11447  0.52343  0.75212  1.0000
  P   P13       1.0  0.45563  0.81593  0.75463  1.0000
  H   H301      1.0  0.04119  0.88840  0.64648  1.0000
  H   H302      1.0  0.18465  0.55808  0.81833  1.0000
  H   H303      1.0  0.02380  0.61943  0.74066  1.0000
  C   C391      1.0  0.46690  0.84705  0.72754  1.0000
  P   P14       1.0  0.11883  0.53571  0.78678  1.0000
  C   C392      1.0  0.29146  0.98358  0.72044  1.0000
  C   C393      1.0  0.01049  0.80648  0.76713  1.0000
  H   H304      1.0  0.30191  0.86351  0.64926  1.0000
  H   H305      1.0  0.99361  0.81555  0.70082  1.0000
  S   S52       1.0  0.00160  0.58139  0.68594  1.0000
  C   C394      1.0  0.99233  0.82076  0.72193  1.0000
  H   H306      1.0  0.34874  0.99279  0.73075  1.0000
  H   H307      1.0  0.13112  0.52324  0.84329  1.0000
  S   S53       1.0  0.99360  0.53435  0.75783  1.0000
  C   C395      1.0  0.13931  0.49735  0.80495  1.0000
  C   C396      1.0  0.99525  0.72428  0.65615  1.0000
  C   C397      1.0  0.14047  0.49863  0.83281  1.0000
  H   H308      1.0  0.10613  0.49491  0.67784  1.0000
  H   H309      1.0  0.96466  0.09354  0.11158  1.0000
  H   H310      1.0  0.81388  0.27981  0.28054  1.0000
  H   H311      1.0  0.69933  0.04228  0.28874  1.0000
  C   C398      1.0  0.89113  0.99552  0.11354  1.0000
  C   C399      1.0  0.59797  0.09526  0.22442  1.0000
  H   H312      1.0  0.68103  0.08542  0.25518  1.0000
  S   S54       1.0  0.90897  0.04254  0.25794  1.0000
  C   C400      1.0  0.84797  0.44017  0.19175  1.0000
  Fe  Fe26      1.0  0.93967  0.47107  0.26949  1.0000
  S   S55       1.0  0.93513  0.46636  0.22517  1.0000
  H   H313      1.0  0.63053  0.13054  0.24992  1.0000
  H   H314      1.0  0.78039  0.42534  0.23726  1.0000
  C   C401      1.0  0.85464  0.47791  0.19634  1.0000
  H   H315      1.0  0.86387  0.42546  0.17680  1.0000
  C   C402      1.0  0.92865  0.35831  0.20297  1.0000
  C   C403      1.0  0.84784  0.39831  0.28564  1.0000
  H   H316      1.0  0.93747  0.25080  0.20713  1.0000
  C   C404      1.0  0.71766  0.01215  0.18625  1.0000
  H   H317      1.0  0.85136  0.41167  0.26659  1.0000
  C   C405      1.0  0.81645  0.37574  0.29053  1.0000
  C   C406      1.0  0.75786  0.31112  0.23112  1.0000
  C   C407      1.0  0.88119  0.22463  0.24026  1.0000
  H   H318      1.0  0.82498  0.21911  0.22520  1.0000
  H   H319      1.0  0.74920  0.29783  0.27235  1.0000
  C   C408      1.0  0.91436  0.16601  0.24600  1.0000
  P   P15       1.0  0.68880  0.00621  0.23721  1.0000
  C   C409      1.0  0.79296  0.04819  0.28163  1.0000
  C   C410      1.0  0.91360  0.31486  0.28612  1.0000
  C   C411      1.0  0.78348  0.31245  0.21036  1.0000
  H   H320      1.0  0.67216  0.42112  0.26383  1.0000
  Fe  Fe27      1.0  0.97062  0.04090  0.25222  1.0000
  H   H321      1.0  0.82737  0.15074  0.22222  1.0000
  H   H322      1.0  0.62093  0.00716  0.20617  1.0000
  C   C412      1.0  0.75777  0.05267  0.29281  1.0000
  H   H323      1.0  0.74091  0.01727  0.14703  1.0000
  C   C413      1.0  0.59007  0.08616  0.30360  1.0000
  C   C414      1.0  0.87421  0.40406  0.30566  1.0000
  C   C415      1.0  0.75123  0.47188  0.27282  1.0000
  C   C416      1.0  0.90572  0.33849  0.22028  1.0000
  C   C417      1.0  0.91863  0.07328  0.17948  1.0000
  H   H324      1.0  0.76957  0.00335  0.22493  1.0000
  H   H325      1.0  0.83960  0.30219  0.19828  1.0000
  H   H326      1.0  0.81734  0.05852  0.29186  1.0000
  C   C418      1.0  0.62898  0.10388  0.23989  1.0000
  H   H327      1.0  0.69332  0.39361  0.30654  1.0000
  C   C419      1.0  0.59567  0.06068  0.21186  1.0000
  P   P16       1.0  0.96669  0.01133  0.12063  1.0000
  C   C420      1.0  0.74144  0.42862  0.30930  1.0000
  C   C421      1.0  0.76544  0.01740  0.24367  1.0000
  H   H328      1.0  0.78808  0.46466  0.30670  1.0000
  H   H329      1.0  0.92796  0.01555  0.17121  1.0000
  H   H330      1.0  0.90488  0.06760  0.19815  1.0000
  C   C422      1.0  0.92290  0.10989  0.17067  1.0000
  Fe  Fe28      1.0  0.90706  0.99402  0.23015  1.0000
  H   H331      1.0  0.94280  0.14522  0.13923  1.0000
  C   C423      1.0  0.94982  0.05039  0.13990  1.0000
  C   C424      1.0  0.69723  0.43128  0.27321  1.0000
  C   C425      1.0  0.80077  0.44060  0.22593  1.0000
  S   S56       1.0  0.56456  0.04485  0.29569  1.0000
  C   C426      1.0  0.88339  0.14656  0.23684  1.0000
  H   H332      1.0  0.81660  0.39199  0.20356  1.0000
  Fe  Fe29      1.0  0.91845  0.99936  0.28936  1.0000
  S   S57       1.0  0.96796  0.99624  0.22128  1.0000
  C   C427      1.0  0.91326  0.20490  0.24762  1.0000
  C   C428      1.0  0.95453  0.33947  0.18732  1.0000
  C   C429      1.0  0.57563  0.12197  0.29969  1.0000
  H   H333      1.0  0.72923  0.31922  0.22781  1.0000
  C   C430      1.0  0.82132  0.42142  0.20675  1.0000
  C   C431      1.0  0.85150  0.16595  0.22905  1.0000
  C   C432      1.0  0.98081  0.01158  0.06586  1.0000
  H   H334      1.0  0.91284  0.13279  0.18265  1.0000
  H   H335      1.0  0.70947  0.46987  0.24188  1.0000
  C   C433      1.0  0.72978  0.02257  0.25445  1.0000
  H   H336      1.0  0.88397  0.11643  0.23602  1.0000
  C   C434      1.0  0.62388  0.03434  0.21531  1.0000
  S   S58       1.0  0.91398  0.43305  0.30142  1.0000
  C   C435      1.0  0.93203  0.04371  0.16419  1.0000
  C   C436      1.0  0.88240  0.25819  0.29932  1.0000
  H   H337      1.0  0.54846  0.12528  0.29083  1.0000
  H   H338      1.0  0.77466  0.32140  0.19080  1.0000
  C   C437      1.0  0.93977  0.11685  0.14622  1.0000
  C   C438      1.0  0.85032  0.20484  0.23074  1.0000
  C   C439      1.0  0.95724  0.30069  0.18878  1.0000
  P   P17       1.0  0.87921  0.27453  0.24521  1.0000
  C   C440      1.0  0.82035  0.30177  0.21475  1.0000
  C   C441      1.0  0.80600  0.28877  0.26080  1.0000
  H   H339      1.0  0.92697  0.38843  0.20197  1.0000
  C   C442      1.0  0.83201  0.29020  0.24011  1.0000
  C   C443      1.0  0.90888  0.29955  0.22238  1.0000
  C   C444      1.0  0.76908  0.29903  0.25622  1.0000
  C   C445      1.0  0.72637  0.03917  0.27959  1.0000
  C   C446      1.0  0.89279  0.28327  0.27924  1.0000
  C   C447      1.0  0.93465  0.28074  0.20630  1.0000
  H   H340      1.0  0.88556  0.02416  0.11888  1.0000
  H   H341      1.0  0.98210  0.16441  0.19286  1.0000
  C   C448      1.0  0.65489  0.04249  0.23121  1.0000
  H   H342      1.0  0.93713  0.21972  0.25503  1.0000
  H   H343      1.0  0.88594  0.35366  0.23240  1.0000
  H   H344      1.0  0.92178  0.33516  0.27148  1.0000
  C   C449      1.0  0.95267  0.08726  0.13069  1.0000
  Fe  Fe30      1.0  0.51011  0.02882  0.27406  1.0000
  C   C450      1.0  0.65752  0.07778  0.24313  1.0000
  H   H345      1.0  0.57550  0.11518  0.22245  1.0000
  C   C451      1.0  0.79679  0.03019  0.25724  1.0000
  H   H346      1.0  0.72310  0.04096  0.19127  1.0000
  H   H347      1.0  0.79559  0.37260  0.27526  1.0000
  C   C452      1.0  0.70894  0.41590  0.29730  1.0000
  H   H348      1.0  0.57156  0.05382  0.19996  1.0000
  H   H349      1.0  0.97734  0.28623  0.17655  1.0000
  S   S59       1.0  0.98049  0.00163  0.28603  1.0000
  H   H350      1.0  0.86598  0.23376  0.29473  1.0000
  C   C453      1.0  0.80725  0.47868  0.23059  1.0000
  S   S60       1.0  0.50111  0.03739  0.23023  1.0000
  H   H351      1.0  0.93895  0.15080  0.25228  1.0000
  H   H352      1.0  0.82414  0.02618  0.24876  1.0000
  C   C454      1.0  0.71832  0.45905  0.26095  1.0000
  H   H353      1.0  0.84600  0.47813  0.28371  1.0000
  C   C455      1.0  0.72768  0.99887  0.16117  1.0000
  C   C456      1.0  0.76260  0.45637  0.29715  1.0000
  H   H354      1.0  0.61542  0.99830  0.26335  1.0000
  H   H355      1.0  0.97496  0.24743  0.28991  1.0000
  H   H356      1.0  0.97278  0.35507  0.17432  1.0000
  C   C457      1.0  0.97425  0.19474  0.30975  1.0000
  C   C458      1.0  0.59600  0.15362  0.30783  1.0000
  H   H357      1.0  0.87563  0.49247  0.18495  1.0000
  H   H358      1.0  0.58415  0.18106  0.30503  1.0000
  H   H359      1.0  0.92435  0.06973  0.31051  1.0000
  H   H360      1.0  0.98935  0.39341  0.28352  1.0000
  C   C459      1.0  0.99031  0.22197  0.29360  1.0000
  H   H361      1.0  0.75487  0.06693  0.31162  1.0000
  H   H362      1.0  0.99132  0.01208  0.02374  1.0000
  C   C460      1.0  0.99069  0.02615  0.09078  1.0000
  Fe  Fe31      1.0  0.73176  0.21759  0.60277  1.0000
  H   H363      1.0  0.88386  0.21959  0.46691  1.0000
  S   S61       1.0  0.70583  0.23239  0.56225  1.0000
  C   C461      1.0  0.75350  0.12239  0.47489  1.0000
  H   H364      1.0  0.81037  0.11058  0.35757  1.0000
  H   H365      1.0  0.80927  0.12897  0.41548  1.0000
  C   C462      1.0  0.83849  0.36263  0.33483  1.0000
  H   H366      1.0  0.56046  0.03222  0.48642  1.0000
  C   C463      1.0  0.52297  0.05455  0.35734  1.0000
  S   S62       1.0  0.71543  0.16242  0.62075  1.0000
  S   S63       1.0  0.79284  0.21106  0.61148  1.0000
  Fe  Fe32      1.0  0.71087  0.20951  0.34881  1.0000
  S   S64       1.0  0.74959  0.17873  0.37680  1.0000
  H   H367      1.0  0.74433  0.09133  0.51127  1.0000
  Fe  Fe33      1.0  0.76267  0.27876  0.34572  1.0000
  S   S65       1.0  0.80388  0.25296  0.37347  1.0000
  H   H368      1.0  0.69830  0.01044  0.34615  1.0000
  Fe  Fe34      1.0  0.79497  0.20050  0.35041  1.0000
  Fe  Fe35      1.0  0.75572  0.23359  0.39862  1.0000
  S   S66       1.0  0.77039  0.23449  0.44332  1.0000
  S   S67       1.0  0.71422  0.26361  0.37223  1.0000
  S   S68       1.0  0.84816  0.17556  0.33520  1.0000
  H   H369      1.0  0.68011  0.11339  0.51717  1.0000
  H   H370      1.0  0.75217  0.15578  0.43908  1.0000
  H   H371      1.0  0.52283  0.11164  0.34443  1.0000
  C   C464      1.0  0.75094  0.31556  0.57779  1.0000
  H   H372      1.0  0.87286  0.04114  0.54107  1.0000
  C   C465      1.0  0.83517  0.10152  0.34738  1.0000
  C   C466      1.0  0.84444  0.06342  0.34614  1.0000
  H   H373      1.0  0.67958  0.03248  0.48995  1.0000
  C   C467      1.0  0.72422  0.23170  0.52930  1.0000
  C   C468      1.0  0.70026  0.23858  0.50769  1.0000
  C   C469      1.0  0.71368  0.23958  0.48132  1.0000
  C   C470      1.0  0.75144  0.23389  0.47616  1.0000
  C   C471      1.0  0.77544  0.22752  0.49784  1.0000
  C   C472      1.0  0.76197  0.22599  0.52415  1.0000
  H   H374      1.0  0.67108  0.24339  0.51140  1.0000
  H   H375      1.0  0.69484  0.24500  0.46504  1.0000
  H   H376      1.0  0.80474  0.22403  0.49427  1.0000
  H   H377      1.0  0.78088  0.22126  0.54051  1.0000
  C   C473      1.0  0.54057  0.02776  0.37308  1.0000
  C   C474      1.0  0.84906  0.17095  0.46911  1.0000
  C   C475      1.0  0.73235  0.10971  0.49651  1.0000
  C   C476      1.0  0.82760  0.14521  0.45485  1.0000
  C   C477      1.0  0.82594  0.14804  0.42703  1.0000
  H   H378      1.0  0.53101  0.99919  0.37253  1.0000
  C   C478      1.0  0.95229  0.31093  0.52390  1.0000
  C   C479      1.0  0.80499  0.06746  0.45173  1.0000
  C   C480      1.0  0.93858  0.34033  0.50850  1.0000
  H   H379      1.0  0.82663  0.04288  0.35519  1.0000
  C   C481      1.0  0.53579  0.09121  0.35732  1.0000
  H   H380      1.0  0.58469  0.01637  0.40056  1.0000
  H   H381      1.0  0.57664  0.12940  0.37153  1.0000
  H   H382      1.0  0.63717  0.05522  0.31810  1.0000
  C   C482      1.0  0.67961  0.14564  0.48118  1.0000
  H   H383      1.0  0.56246  0.06221  0.44240  1.0000
  H   H384      1.0  0.81440  0.13878  0.56719  1.0000
  C   C483      1.0  0.89935  0.07835  0.32064  1.0000
  Fe  Fe36      1.0  0.77554  0.15818  0.63188  1.0000
  C   C484      1.0  0.82031  0.10190  0.50477  1.0000
  H   H385      1.0  0.97966  0.13946  0.32595  1.0000
  C   C485      1.0  0.89229  0.26487  0.32573  1.0000
  H   H386      1.0  0.85109  0.05179  0.49515  1.0000
  H   H387      1.0  0.88060  0.22393  0.41781  1.0000
  H   H388      1.0  0.75133  0.32335  0.62016  1.0000
  C   C486      1.0  0.65410  0.03852  0.47932  1.0000
  H   H389      1.0  0.68216  0.06236  0.44601  1.0000
  H   H390      1.0  0.64034  0.03039  0.36751  1.0000
  C   C487      1.0  0.88608  0.25805  0.59340  1.0000
  C   C488      1.0  0.88464  0.23099  0.57331  1.0000
  P   P18       1.0  0.87810  0.30637  0.58533  1.0000
  C   C489      1.0  0.82847  0.31102  0.58206  1.0000
  C   C490      1.0  0.89681  0.33732  0.61025  1.0000
  C   C491      1.0  0.77553  0.01435  0.43054  1.0000
  S   S69       1.0  0.80119  0.10098  0.62855  1.0000
  C   C492      1.0  0.87906  0.37126  0.61593  1.0000
  C   C493      1.0  0.80662  0.31656  0.60470  1.0000
  H   H391      1.0  0.91956  0.30209  0.35290  1.0000
  C   C494      1.0  0.58826  0.05520  0.45231  1.0000
  H   H392      1.0  0.88875  0.26663  0.63596  1.0000
  C   C495      1.0  0.81107  0.30656  0.55730  1.0000
  C   C496      1.0  0.90155  0.31918  0.55509  1.0000
  C   C497      1.0  0.93401  0.30052  0.54722  1.0000
  C   C498      1.0  0.89401  0.39551  0.63480  1.0000
  C   C499      1.0  0.62559  0.08271  0.31517  1.0000
  C   C500      1.0  0.83922  0.02960  0.42004  1.0000
  C   C501      1.0  0.88856  0.34934  0.53993  1.0000
  H   H393      1.0  0.94537  0.27810  0.55914  1.0000
  H   H394      1.0  0.74841  0.04980  0.45873  1.0000
  C   C502      1.0  0.83785  0.05945  0.43783  1.0000
  C   C503      1.0  0.56647  0.10112  0.37277  1.0000
  H   H395      1.0  0.87933  0.23898  0.55292  1.0000
  S   S70       1.0  0.71998  0.24928  0.64110  1.0000
  H   H396      1.0  0.65174  0.15608  0.48427  1.0000
  H   H397      1.0  0.85358  0.37906  0.60594  1.0000
  H   H398      1.0  0.81943  0.31832  0.62405  1.0000
  C   C504      1.0  0.65545  0.05530  0.45428  1.0000
  C   C505      1.0  0.84513  0.08935  0.55695  1.0000
  H   H399      1.0  0.85397  0.08418  0.57725  1.0000
  H   H400      1.0  0.82703  0.30033  0.53967  1.0000
  S   S71       1.0  0.76973  0.33268  0.32155  1.0000
  H   H401      1.0  0.67319  0.11108  0.33214  1.0000
  H   H402      1.0  0.86428  0.36493  0.54614  1.0000
  C   C506      1.0  0.85803  0.12779  0.33500  1.0000
  C   C507      1.0  0.73241  0.04986  0.36715  1.0000
  C   C508      1.0  0.57100  0.03762  0.38883  1.0000
  H   H403      1.0  0.88916  0.39051  0.34597  1.0000
  C   C509      1.0  0.81070  0.12666  0.52530  1.0000
  P   P19       1.0  0.80174  0.10913  0.47174  1.0000
  C   C510      1.0  0.69572  0.12175  0.49980  1.0000
  H   H404      1.0  0.84390  0.17808  0.39237  1.0000
  H   H405      1.0  0.88335  0.24591  0.34117  1.0000
  H   H406      1.0  0.85057  0.16990  0.49051  1.0000
  C   C511      1.0  0.89025  0.11613  0.32197  1.0000
  H   H407      1.0  0.79313  0.15059  0.52132  1.0000
  H   H408      1.0  0.71961  0.04674  0.64016  1.0000
  S   S72       1.0  0.65477  0.19157  0.33044  1.0000
  C   C512      1.0  0.94520  0.35298  0.64208  1.0000
  C   C513      1.0  0.87615  0.05185  0.33219  1.0000
  C   C514      1.0  0.66591  0.04414  0.37292  1.0000
  C   C515      1.0  0.85554  0.06504  0.53657  1.0000
  C   C516      1.0  0.73297  0.07894  0.38552  1.0000
  C   C517      1.0  0.70002  0.09075  0.39753  1.0000
  C   C518      1.0  0.66616  0.07345  0.39138  1.0000
  C   C519      1.0  0.84314  0.07120  0.51055  1.0000
  P   P20       1.0  0.62415  0.08680  0.40868  1.0000
  C   C520      1.0  0.62254  0.06348  0.44046  1.0000
  C   C521      1.0  0.62306  0.13644  0.41446  1.0000
  C   C522      1.0  0.63923  0.16085  0.39613  1.0000
  C   C523      1.0  0.63756  0.19932  0.40016  1.0000
  C   C524      1.0  0.62002  0.21376  0.42261  1.0000
  C   C525      1.0  0.60357  0.18967  0.44089  1.0000
  C   C526      1.0  0.60478  0.15115  0.43675  1.0000
  C   C527      1.0  0.82282  0.12021  0.55128  1.0000
  C   C528      1.0  0.63129  0.15020  0.31974  1.0000
  H   H409      1.0  0.84161  0.03450  0.64078  1.0000
  C   C529      1.0  0.76803  0.31919  0.60255  1.0000
  H   H410      1.0  0.68790  0.17629  0.44489  1.0000
  H   H411      1.0  0.88844  0.17250  0.56397  1.0000
  C   C530      1.0  0.91280  0.29641  0.33235  1.0000
  H   H412      1.0  0.86214  0.07689  0.44016  1.0000
  C   C531      1.0  0.73671  0.14548  0.45590  1.0000
  H   H413      1.0  0.75894  0.09248  0.39034  1.0000
  H   H414      1.0  0.70095  0.11341  0.41160  1.0000
  S   S73       1.0  0.75643  0.22706  0.32106  1.0000
  H   H415      1.0  0.65260  0.15024  0.37846  1.0000
  H   H416      1.0  0.64943  0.21798  0.38559  1.0000
  H   H417      1.0  0.61898  0.24362  0.42566  1.0000
  H   H418      1.0  0.58971  0.20094  0.45820  1.0000
  H   H419      1.0  0.59143  0.13309  0.45098  1.0000
  H   H420      1.0  0.75898  0.30563  0.53612  1.0000
  C   C532      1.0  0.89530  0.18236  0.60582  1.0000
  C   C533      1.0  0.58418  0.07443  0.38883  1.0000
  C   C534      1.0  0.86825  0.19915  0.45578  1.0000
  C   C535      1.0  0.93053  0.32882  0.62298  1.0000
  H   H421      1.0  0.83500  0.34941  0.35396  1.0000
  C   C536      1.0  0.77246  0.30935  0.55518  1.0000
  C   C537      1.0  0.92353  0.32128  0.31253  1.0000
  C   C538      1.0  0.88956  0.19330  0.57950  1.0000
  H   H422      1.0  0.89886  0.15313  0.61064  1.0000
  C   C539      1.0  0.84553  0.17592  0.41378  1.0000
  C   C540      1.0  0.77398  0.04436  0.44821  1.0000
  H   H423      1.0  0.75135  0.99697  0.42756  1.0000
  C   C541      1.0  0.69992  0.15699  0.45904  1.0000
  C   C542      1.0  0.86643  0.20166  0.42813  1.0000
  H   H424      1.0  0.89638  0.38265  0.50479  1.0000
  H   H425      1.0  0.72093  0.31644  0.57618  1.0000
  C   C543      1.0  0.86911  0.38621  0.33027  1.0000
  H   H426      1.0  0.75793  0.04084  0.35777  1.0000
  C   C544      1.0  0.69887  0.03263  0.36072  1.0000
  C   C545      1.0  0.90683  0.35962  0.51659  1.0000
  C   C546      1.0  0.89546  0.20903  0.62601  1.0000
  H   H427      1.0  0.94539  0.30344  0.61829  1.0000
  C   C547      1.0  0.89020  0.24666  0.61991  1.0000
  C   C548      1.0  0.58700  0.03843  0.47736  1.0000
  H   H428      1.0  0.86431  0.02422  0.40876  1.0000
  H   H429      1.0  0.61886  0.01729  0.51034  1.0000
  C   C549      1.0  0.61990  0.03005  0.49085  1.0000
  C   C550      1.0  0.80805  0.00715  0.41631  1.0000
  C   C551      1.0  0.64612  0.11438  0.32314  1.0000
  H   H430      1.0  0.93824  0.34652  0.31775  1.0000
  H   H431      1.0  0.94710  0.19945  0.31846  1.0000
  H   H432      1.0  0.87970  0.42122  0.63970  1.0000
  H   H433      1.0  0.95272  0.34837  0.49042  1.0000
  H   H434      1.0  0.97721  0.29632  0.51781  1.0000
  H   H435      1.0  0.75095  0.41597  0.32768  1.0000
  C   C552      1.0  0.81166  0.35752  0.31511  1.0000
  S   S74       1.0  0.88569  0.00440  0.32731  1.0000
  H   H436      1.0  0.50017  0.04668  0.34444  1.0000
  H   H437      1.0  0.90795  0.13638  0.31242  1.0000
  S   S75       1.0  0.76790  0.18524  0.67128  1.0000
  H   H438      1.0  0.76439  0.13388  0.84848  1.0000
  C   C553      1.0  0.58279  0.10604  0.67384  1.0000
  S   S76       1.0  0.52547  0.06953  0.69935  1.0000
  Fe  Fe37      1.0  0.91598  0.47674  0.72275  1.0000
  S   S77       1.0  0.92761  0.47256  0.76672  1.0000
  S   S78       1.0  0.86957  0.44423  0.70093  1.0000
  Fe  Fe38      1.0  0.96077  0.02625  0.71486  1.0000
  S   S79       1.0  0.92006  0.02206  0.74818  1.0000
  C   C554      1.0  0.79127  0.02666  0.69644  1.0000
  C   C555      1.0  0.85655  0.39663  0.69514  1.0000
  C   C556      1.0  0.82377  0.38912  0.68078  1.0000
  C   C557      1.0  0.68976  0.01615  0.67030  1.0000
  C   C558      1.0  0.83570  0.32208  0.68170  1.0000
  C   C559      1.0  0.87834  0.36634  0.70335  1.0000
  H   H439      1.0  0.86046  0.07302  0.72656  1.0000
  C   C560      1.0  0.84634  0.01404  0.79323  1.0000
  H   H440      1.0  0.90337  0.37135  0.71458  1.0000
  C   C561      1.0  0.69690  0.08054  0.70095  1.0000
  H   H441      1.0  0.76574  0.06031  0.72582  1.0000
  C   C562      1.0  0.98804  0.32956  0.72601  1.0000
  C   C563      1.0  0.91046  0.08147  0.67258  1.0000
  C   C564      1.0  0.62840  0.14716  0.69439  1.0000
  H   H442      1.0  0.56030  0.04910  0.76344  1.0000
  C   C565      1.0  0.96581  0.19822  0.74329  1.0000
  H   H443      1.0  0.75007  0.26871  0.69898  1.0000
  C   C566      1.0  0.61100  0.14050  0.71899  1.0000
  C   C567      1.0  0.57985  0.11672  0.72106  1.0000
  C   C568      1.0  0.56522  0.09953  0.69840  1.0000
  H   H444      1.0  0.88550  0.30666  0.70284  1.0000
  C   C569      1.0  0.91600  0.25869  0.78543  1.0000
  C   C570      1.0  0.67997  0.10758  0.77680  1.0000
  H   H445      1.0  0.56668  0.11237  0.74006  1.0000
  C   C571      1.0  0.86806  0.32951  0.69658  1.0000
  C   C572      1.0  0.61428  0.12934  0.67185  1.0000
  S   S80       1.0  0.82538  0.27481  0.67257  1.0000
  H   H446      1.0  0.81612  0.11451  0.70324  1.0000
  H   H447      1.0  0.93134  0.31619  0.78025  1.0000
  H   H448      1.0  0.79583  0.17293  0.72381  1.0000
  H   H449      1.0  0.72167  0.14446  0.76136  1.0000
  H   H450      1.0  0.89348  0.20404  0.78916  1.0000
  C   C573      1.0  0.78600  0.00844  0.74289  1.0000
  H   H451      1.0  0.83886  0.09718  0.84206  1.0000
  H   H452      1.0  0.80512  0.24719  0.72367  1.0000
  C   C574      1.0  0.59884  0.01797  0.73973  1.0000
  C   C575      1.0  0.70021  0.04448  0.78622  1.0000
  Fe  Fe39      1.0  0.70813  0.19268  0.65934  1.0000
  H   H453      1.0  0.66715  0.05132  0.73104  1.0000
  H   H454      1.0  0.82222  0.25418  0.82340  1.0000
  H   H455      1.0  0.86924  0.33533  0.76381  1.0000
  H   H456      1.0  0.62138  0.15429  0.73654  1.0000
  C   C576      1.0  0.84091  0.07417  0.82825  1.0000
  H   H457      1.0  0.78033  0.14596  0.80159  1.0000
  C   C577      1.0  0.88992  0.05132  0.66306  1.0000
  H   H458      1.0  0.80645  0.41213  0.67442  1.0000
  H   H459      1.0  0.93094  0.14957  0.74374  1.0000
  C   C578      1.0  0.91370  0.22809  0.70805  1.0000
  H   H460      1.0  0.98612  0.18547  0.75628  1.0000
  C   C579      1.0  0.97148  0.23407  0.73281  1.0000
  H   H461      1.0  0.94301  0.25036  0.79283  1.0000
  H   H462      1.0  0.96324  0.32308  0.73715  1.0000
  C   C580      1.0  0.81275  0.03378  0.79510  1.0000
  H   H463      1.0  0.81854  0.29018  0.76174  1.0000
  H   H464      1.0  0.88354  0.08998  0.77145  1.0000
  C   C581      1.0  0.58959  0.00817  0.78676  1.0000
  H   H465      1.0  0.69340  0.01676  0.79304  1.0000
  C   C582      1.0  0.73627  0.05329  0.77778  1.0000
  C   C583      1.0  0.58108  0.02730  0.76341  1.0000
  C   C584      1.0  0.74405  0.08993  0.76974  1.0000
  Fe  Fe40      1.0  0.97058  0.02008  0.77413  1.0000
  C   C585      1.0  0.77954  0.03421  0.72232  1.0000
  H   H466      1.0  0.88414  0.17671  0.71313  1.0000
  C   C586      1.0  0.87686  0.02437  0.80872  1.0000
  H   H467      1.0  0.80655  0.24148  0.87010  1.0000
  P   P21       1.0  0.77241  0.01814  0.77687  1.0000
  C   C587      1.0  0.90823  0.19275  0.71883  1.0000
  H   H468      1.0  0.78681  0.04699  0.68080  1.0000
  H   H469      1.0  0.89357  0.23937  0.69416  1.0000
  C   C588      1.0  0.93446  0.17763  0.73620  1.0000
  H   H470      1.0  0.86298  0.14809  0.79271  1.0000
  S   S81       1.0  0.95455  0.07479  0.68681  1.0000
  H   H471      1.0  0.78407  0.07788  0.81616  1.0000
  S   S82       1.0  0.66717  0.17829  0.69302  1.0000
  C   C589      1.0  0.81328  0.35226  0.67426  1.0000
  C   C590      1.0  0.74673  0.25594  0.71833  1.0000
  C   C591      1.0  0.71128  0.25055  0.72874  1.0000
  C   C592      1.0  0.70703  0.23388  0.75360  1.0000
  C   C593      1.0  0.73825  0.22251  0.76809  1.0000
  C   C594      1.0  0.77403  0.22744  0.75759  1.0000
  C   C595      1.0  0.77792  0.24399  0.73250  1.0000
  P   P22       1.0  0.81449  0.20945  0.77471  1.0000
  C   C596      1.0  0.85216  0.24290  0.77436  1.0000
  C   C597      1.0  0.80309  0.20061  0.80904  1.0000
  C   C598      1.0  0.80999  0.22762  0.82856  1.0000
  C   C599      1.0  0.80099  0.22059  0.85510  1.0000
  C   C600      1.0  0.78474  0.18676  0.86228  1.0000
  C   C601      1.0  0.77733  0.15995  0.84292  1.0000
  C   C602      1.0  0.78646  0.16683  0.81639  1.0000
  C   C603      1.0  0.84573  0.28045  0.76768  1.0000
  C   C604      1.0  0.87442  0.30653  0.76925  1.0000
  C   C605      1.0  0.90945  0.29572  0.77833  1.0000
  C   C606      1.0  0.88764  0.23236  0.78328  1.0000
  C   C607      1.0  0.82863  0.16585  0.75960  1.0000
  C   C608      1.0  0.85284  0.14152  0.77304  1.0000
  C   C609      1.0  0.86424  0.10820  0.76117  1.0000
  C   C610      1.0  0.85119  0.09856  0.73598  1.0000
  C   C611      1.0  0.82630  0.12199  0.72280  1.0000
  C   C612      1.0  0.81499  0.15540  0.73454  1.0000
  H   H472      1.0  0.68704  0.25861  0.71726  1.0000
  H   H473      1.0  0.67939  0.22933  0.76137  1.0000
  H   H474      1.0  0.73417  0.20949  0.78720  1.0000
  C   C613      1.0  0.94542  0.24848  0.71464  1.0000
  C   C614      1.0  0.67228  0.07164  0.78585  1.0000
  H   H475      1.0  0.69873  0.10598  0.71242  1.0000
  H   H476      1.0  0.77772  0.18143  0.88285  1.0000
  C   C615      1.0  0.81007  0.06347  0.81318  1.0000
  C   C616      1.0  0.87434  0.05467  0.82594  1.0000
  H   H477      1.0  0.94957  0.27495  0.70497  1.0000
  H   H478      1.0  0.89834  0.06268  0.83765  1.0000
  H   H479      1.0  0.65801  0.12825  0.77583  1.0000
  H   H480      1.0  0.72522  0.10387  0.66722  1.0000
  H   H481      1.0  0.77183  0.09751  0.76364  1.0000
  C   C617      1.0  0.71588  0.11675  0.76880  1.0000
  H   H482      1.0  0.91299  0.14106  0.67613  1.0000
  H   H483      1.0  0.64444  0.06469  0.79220  1.0000
  C   C618      1.0  0.67881  0.04940  0.71137  1.0000
  H   H484      1.0  0.59138  0.03309  0.72204  1.0000
  C   C619      1.0  0.86238  0.12389  0.65675  1.0000
  H   H485      1.0  0.62719  0.13405  0.65278  1.0000
  H   H486      1.0  0.78801  0.34737  0.66323  1.0000
  H   H487      1.0  0.57458  0.01428  0.80489  1.0000
  H   H488      1.0  0.57186  0.09308  0.65613  1.0000
  S   S83       1.0  0.97602  0.47455  0.71067  1.0000
  H   H489      1.0  0.96940  0.38525  0.71692  1.0000
  Fe  Fe41      1.0  0.98808  0.47152  0.75480  1.0000
  C   C620      1.0  0.71160  0.07950  0.67535  1.0000
  S   S84       1.0  0.97474  0.05245  0.81235  1.0000
  H   H490      1.0  0.89888  0.20053  0.64650  1.0000
  H   H491      1.0  0.90267  0.00887  0.80740  1.0000
  H   H492      1.0  0.97068  0.34591  0.65236  1.0000
  C   C621      1.0  0.70826  0.04724  0.66008  1.0000
  C   C622      1.0  0.89678  0.11775  0.66920  1.0000
  C   C623      1.0  0.84265  0.09389  0.64626  1.0000
  C   C624      1.0  0.67489  0.01696  0.69607  1.0000
  H   H493      1.0  0.93766  0.40480  0.66316  1.0000
  H   H494      1.0  0.85156  0.15185  0.65460  1.0000
  C   C625      1.0  0.59361  0.00106  0.67233  1.0000
  H   H495      1.0  0.90061  0.02330  0.66528  1.0000
  H   H496      1.0  0.60103  0.02915  0.67791  1.0000
  C   C626      1.0  0.99127  0.36478  0.71443  1.0000
  C   C627      1.0  0.92684  0.38625  0.64805  1.0000
  C   C628      1.0  0.85654  0.05765  0.64930  1.0000
  H   H497      1.0  0.54926  0.02012  0.64710  1.0000
  Fe  Fe42      1.0  0.78070  0.23963  0.65073  1.0000
  C   C629      1.0  0.56448  0.99606  0.65437  1.0000
  H   H498      1.0  0.78346  0.54538  0.20341  1.0000
  C   C630      1.0  0.57427  0.79309  0.07650  1.0000
  S   S85       1.0  0.52235  0.94186  0.19583  1.0000
  Fe  Fe43      1.0  0.78914  0.81267  0.13713  1.0000
  S   S86       1.0  0.76442  0.79392  0.17552  1.0000
  S   S87       1.0  0.84404  0.84269  0.13708  1.0000
  Fe  Fe44      1.0  0.73072  0.77550  0.10362  1.0000
  S   S88       1.0  0.70166  0.75313  0.14036  1.0000
  S   S89       1.0  0.70557  0.76176  0.06254  1.0000
  Fe  Fe45      1.0  0.70915  0.81066  0.15783  1.0000
  S   S90       1.0  0.67066  0.84076  0.18803  1.0000
  Fe  Fe46      1.0  0.75870  0.73786  0.15609  1.0000
  S   S91       1.0  0.76960  0.68698  0.18360  1.0000
  S   S92       1.0  0.73509  0.83378  0.12045  1.0000
  S   S93       1.0  0.78679  0.75585  0.11824  1.0000
  H   H499      1.0  0.62221  0.81834  0.05825  1.0000
  C   C631      1.0  0.98688  0.78674  0.25170  1.0000
  S   S94       1.0  0.91228  0.95053  0.26184  1.0000
  Fe  Fe47      1.0  0.93614  0.52960  0.22397  1.0000
  S   S95       1.0  0.90388  0.56875  0.19529  1.0000
  S   S96       1.0  0.93651  0.53391  0.26833  1.0000
  C   C632      1.0  0.85527  0.95062  0.18395  1.0000
  C   C633      1.0  0.82170  0.94218  0.17126  1.0000
  C   C634      1.0  0.81726  0.90805  0.15806  1.0000
  C   C635      1.0  0.84698  0.88302  0.15661  1.0000
  C   C636      1.0  0.88055  0.89148  0.16935  1.0000
  C   C637      1.0  0.88439  0.92484  0.18356  1.0000
  H   H500      1.0  0.79904  0.96191  0.17189  1.0000
  H   H501      1.0  0.79135  0.90166  0.14822  1.0000
  H   H502      1.0  0.90359  0.87219  0.16817  1.0000
  H   H503      1.0  0.91004  0.93092  0.19381  1.0000
  C   C638      1.0  0.80894  0.65651  0.18727  1.0000
  C   C639      1.0  0.83373  0.64954  0.16647  1.0000
  C   C640      1.0  0.86255  0.62297  0.16950  1.0000
  C   C641      1.0  0.86763  0.60317  0.19343  1.0000
  C   C642      1.0  0.84344  0.61084  0.21452  1.0000
  C   C643      1.0  0.81421  0.63702  0.21135  1.0000
  H   H504      1.0  0.83018  0.66397  0.14778  1.0000
  H   H505      1.0  0.88096  0.61748  0.15300  1.0000
  H   H506      1.0  0.84682  0.59609  0.23309  1.0000
  H   H507      1.0  0.79530  0.64193  0.22763  1.0000
  C   C644      1.0  0.68043  0.74707  0.01220  1.0000
  C   C645      1.0  0.70795  0.76537  0.02692  1.0000
  C   C646      1.0  0.73569  0.78476  0.01286  1.0000
  H   H508      1.0  0.65891  0.73194  0.02252  1.0000
  H   H509      1.0  0.75721  0.79906  0.02377  1.0000
  C   C647      1.0  0.56478  0.91532  0.19416  1.0000
  C   C648      1.0  0.58489  0.90470  0.21678  1.0000
  C   C649      1.0  0.61697  0.88201  0.21443  1.0000
  C   C650      1.0  0.62984  0.86967  0.18948  1.0000
  C   C651      1.0  0.61004  0.88068  0.16684  1.0000
  C   C652      1.0  0.57785  0.90320  0.16921  1.0000
  H   H510      1.0  0.57539  0.91351  0.23613  1.0000
  H   H511      1.0  0.63190  0.87391  0.23216  1.0000
  H   H512      1.0  0.61938  0.87181  0.14747  1.0000
  H   H513      1.0  0.56272  0.91107  0.15150  1.0000
  H   H514      1.0  0.67950  0.93255  0.21107  1.0000
  H   H515      1.0  0.83358  0.92789  0.23384  1.0000
  H   H516      1.0  0.58879  0.94895  0.29065  1.0000
  H   H517      1.0  0.86177  0.86811  0.24688  1.0000
  C   C653      1.0  0.58036  0.77825  0.12343  1.0000
  C   C654      1.0  0.61558  0.79482  0.12350  1.0000
  C   C655      1.0  0.63045  0.80927  0.10006  1.0000
  C   C656      1.0  0.75710  0.73670  0.30026  1.0000
  C   C657      1.0  0.63787  0.91431  0.28968  1.0000
  C   C658      1.0  0.84157  0.50710  0.28870  1.0000
  C   C659      1.0  0.70818  0.59781  0.21845  1.0000
  C   C660      1.0  0.86338  0.73234  0.22735  1.0000
  H   H518      1.0  0.63177  0.79641  0.14157  1.0000
  H   H519      1.0  0.65813  0.82093  0.09996  1.0000
  H   H520      1.0  0.53151  0.76719  0.09954  1.0000
  C   C661      1.0  0.95619  0.66311  0.24031  1.0000
  S   S97       1.0  0.50182  0.96638  0.27257  1.0000
  C   C662      1.0  0.75109  0.53930  0.23955  1.0000
  C   C663      1.0  0.53309  0.78547  0.20014  1.0000
  H   H521      1.0  0.85639  0.71604  0.24470  1.0000
  H   H522      1.0  0.75595  0.81408  0.23543  1.0000
  H   H523      1.0  0.55836  0.79252  0.05824  1.0000
  C   C664      1.0  0.53953  0.69576  0.12287  1.0000
  C   C665      1.0  0.80074  0.70932  0.00904  1.0000
  C   C666      1.0  0.78019  0.70704  0.03250  1.0000
  C   C667      1.0  0.75295  0.67977  0.03537  1.0000
  C   C668      1.0  0.74671  0.65419  0.01499  1.0000
  H   H524      1.0  0.79769  0.77961  0.30587  1.0000
  H   H525      1.0  0.71809  0.93635  0.25798  1.0000
  C   C669      1.0  0.97516  0.78477  0.22512  1.0000
  C   C670      1.0  0.95205  0.81237  0.21449  1.0000
  C   C671      1.0  0.70111  0.98829  0.20487  1.0000
  H   H526      1.0  0.78698  0.58215  0.27413  1.0000
  C   C672      1.0  0.49875  0.71293  0.15908  1.0000
  C   C673      1.0  0.53136  0.71912  0.14447  1.0000
  H   H527      1.0  0.72925  0.87353  0.22036  1.0000
  P   P23       1.0  0.56262  0.75655  0.15319  1.0000
  H   H528      1.0  0.73620  0.67913  0.05323  1.0000
  H   H529      1.0  0.72533  0.63328  0.01718  1.0000
  C   C674      1.0  0.81237  0.52732  0.27713  1.0000
  C   C675      1.0  0.96722  0.69855  0.24862  1.0000
  C   C676      1.0  0.61702  0.94602  0.28348  1.0000
  C   C677      1.0  0.86115  0.97177  0.10874  1.0000
  H   H530      1.0  0.60325  0.68515  0.15070  1.0000
  H   H531      1.0  0.52636  0.82765  0.13959  1.0000
  C   C678      1.0  0.74995  0.71361  0.25544  1.0000
  C   C679      1.0  0.61590  0.70238  0.16571  1.0000
  C   C680      1.0  0.64803  0.68938  0.17835  1.0000
  H   H532      1.0  0.92709  0.65644  0.23796  1.0000
  C   C681      1.0  0.79529  0.76184  0.26483  1.0000
  C   C682      1.0  0.77705  0.73848  0.24670  1.0000
  P   P24       1.0  0.83120  0.79297  0.25349  1.0000
  C   C683      1.0  0.81082  0.83663  0.24289  1.0000
  C   C684      1.0  0.86334  0.80038  0.28072  1.0000
  C   C685      1.0  0.89102  0.77397  0.28651  1.0000
  C   C686      1.0  0.83261  0.86897  0.24177  1.0000
  C   C687      1.0  0.81680  0.90291  0.23416  1.0000
  C   C688      1.0  0.77966  0.90455  0.22632  1.0000
  C   C689      1.0  0.75792  0.87242  0.22689  1.0000
  C   C690      1.0  0.77330  0.83862  0.23538  1.0000
  C   C691      1.0  0.85468  0.77052  0.22602  1.0000
  H   H533      1.0  0.73698  0.69495  0.24133  1.0000
  C   C692      1.0  0.86507  0.52393  0.30720  1.0000
  H   H534      1.0  0.84187  0.52567  0.22014  1.0000
  C   C693      1.0  0.91517  0.77930  0.30792  1.0000
  H   H535      1.0  0.78399  0.73919  0.22579  1.0000
  H   H536      1.0  0.89407  0.74916  0.27470  1.0000
  H   H537      1.0  0.76799  0.93062  0.21936  1.0000
  H   H538      1.0  0.78435  0.72731  0.04817  1.0000
  C   C694      1.0  0.69348  0.95132  0.19764  1.0000
  H   H539      1.0  0.72871  0.95136  0.13500  1.0000
  C   C695      1.0  0.87985  0.71436  0.20577  1.0000
  C   C696      1.0  0.69894  0.58228  0.24299  1.0000
  C   C697      1.0  0.66612  0.71162  0.19702  1.0000
  C   C698      1.0  0.80845  0.56536  0.28322  1.0000
  C   C699      1.0  0.65197  0.74679  0.20320  1.0000
  H   H540      1.0  0.85499  0.81924  0.20038  1.0000
  H   H541      1.0  0.97405  0.60816  0.22917  1.0000
  C   C700      1.0  0.73993  0.71269  0.28221  1.0000
  C   C701      1.0  0.85974  0.83174  0.29725  1.0000
  H   H542      1.0  0.71336  0.54215  0.27292  1.0000
  H   H543      1.0  0.69051  0.88639  0.28523  1.0000
  C   C702      1.0  0.97484  0.81664  0.26745  1.0000
  C   C703      1.0  0.86224  0.79011  0.20250  1.0000
  C   C704      1.0  0.67434  0.91097  0.28050  1.0000
  C   C705      1.0  0.93370  0.94448  0.10516  1.0000
  H   H544      1.0  0.95192  0.95386  0.16042  1.0000
  H   H545      1.0  0.51135  0.80849  0.23650  1.0000
  H   H546      1.0  0.66674  0.76474  0.21688  1.0000
  H   H547      1.0  0.88563  0.68479  0.20661  1.0000
  H   H548      1.0  0.69217  0.62080  0.21043  1.0000
  C   C706      1.0  0.86739  0.93445  0.10229  1.0000
  C   C707      1.0  0.66869  0.97065  0.25802  1.0000
  Fe  Fe48      1.0  0.49232  0.97510  0.22890  1.0000
  C   C708      1.0  0.83287  0.58245  0.30104  1.0000
  H   H549      1.0  0.94400  0.81129  0.19379  1.0000
  H   H550      1.0  0.92237  0.86340  0.22204  1.0000
  C   C709      1.0  0.68026  0.74790  0.98428  1.0000
  C   C710      1.0  0.52287  0.82262  0.16060  1.0000
  C   C711      1.0  0.88736  0.73405  0.18255  1.0000
  C   C712      1.0  0.87855  0.77183  0.18092  1.0000
  C   C713      1.0  0.73849  0.58398  0.20430  1.0000
  H   H551      1.0  0.95883  0.99131  0.06394  1.0000
  C   C714      1.0  0.73556  0.78551  0.98453  1.0000
  H   H552      1.0  0.52192  0.64906  0.09921  1.0000
  C   C715      1.0  0.55930  0.77852  0.09991  1.0000
  C   C716      1.0  0.53792  0.79075  0.17271  1.0000
  C   C717      1.0  0.72082  0.96181  0.15437  1.0000
  Fe  Fe49      1.0  0.97372  0.95678  0.25547  1.0000
  H   H553      1.0  0.83856  0.62188  0.99121  1.0000
  C   C718      1.0  0.70362  0.93814  0.17255  1.0000
  H   H554      1.0  0.90818  0.89163  0.09607  1.0000
  C   C719      1.0  0.95090  0.84362  0.25694  1.0000
  C   C720      1.0  0.72033  0.55323  0.25355  1.0000
  C   C721      1.0  0.78465  0.76127  0.29162  1.0000
  H   H555      1.0  0.61044  0.78791  0.19476  1.0000
  C   C722      1.0  0.68982  0.93921  0.26494  1.0000
  H   H556      1.0  0.56456  0.69990  0.11133  1.0000
  H   H557      1.0  0.88391  0.78684  0.16269  1.0000
  H   H558      1.0  0.74610  0.59654  0.18547  1.0000
  C   C723      1.0  0.90362  0.92083  0.10047  1.0000
  H   H559      1.0  0.94622  0.71933  0.25259  1.0000
  H   H560      1.0  0.94229  0.86694  0.26911  1.0000
  C   C724      1.0  0.61989  0.75988  0.19057  1.0000
  H   H561      1.0  0.65982  0.66270  0.17288  1.0000
  C   C725      1.0  0.75984  0.55484  0.21471  1.0000
  S   S98       1.0  0.85996  0.99310  0.20081  1.0000
  C   C726      1.0  0.76750  0.65607  0.99160  1.0000
  H   H562      1.0  0.69193  0.70224  0.20583  1.0000
  C   C727      1.0  0.60139  0.73772  0.17181  1.0000
  C   C728      1.0  0.93978  0.84171  0.23042  1.0000
  C   C729      1.0  0.61007  0.80795  0.07649  1.0000
  H   H563      1.0  0.69793  0.90954  0.16709  1.0000
  H   H564      1.0  0.96161  0.93332  0.10403  1.0000
  H   H565      1.0  0.82102  0.73128  0.00711  1.0000
  C   C730      1.0  0.51429  0.81215  0.21527  1.0000
  H   H566      1.0  0.54414  0.76094  0.20988  1.0000
  H   H567      1.0  0.84414  0.91576  0.09932  1.0000
  H   H568      1.0  0.67546  0.59307  0.25400  1.0000
  H   H569      1.0  0.89921  0.71979  0.16560  1.0000
  H   H570      1.0  0.71880  0.69346  0.28892  1.0000
  H   H571      1.0  0.83299  0.98203  0.11068  1.0000
  H   H572      1.0  0.83781  0.85191  0.29408  1.0000
  C   C731      1.0  0.79434  0.68401  0.98830  1.0000
  C   C732      1.0  0.63231  0.97410  0.26774  1.0000
  C   C733      1.0  0.51545  0.66687  0.11595  1.0000
  C   C734      1.0  0.98275  0.63567  0.23539  1.0000
  C   C735      1.0  0.50372  0.84897  0.17576  1.0000
  C   C736      1.0  0.92769  0.98194  0.11207  1.0000
  H   H573      1.0  0.83010  0.61185  0.30537  1.0000
  H   H574      1.0  0.98458  0.76234  0.21241  1.0000
  P   P25       1.0  0.78041  0.50423  0.25486  1.0000
  H   H575      1.0  0.62569  0.89236  0.30154  1.0000
  C   C737      1.0  0.83522  0.49679  0.21622  1.0000
  H   H576      1.0  0.89253  0.57977  0.99247  1.0000
  C   C738      1.0  0.49976  0.84396  0.20309  1.0000
  H   H577      1.0  0.49314  0.87414  0.16652  1.0000
  H   H578      1.0  0.98407  0.81971  0.28772  1.0000
  C   C739      1.0  0.98165  0.95759  0.15932  1.0000
  H   H579      1.0  0.88722  0.50784  0.31632  1.0000
  H   H580      1.0  0.88212  0.86216  0.33048  1.0000
  C   C740      1.0  0.91230  0.81125  0.32356  1.0000
  H   H581      1.0  0.93159  0.81568  0.33979  1.0000
  H   H582      1.0  0.53172  0.95654  0.63255  1.0000
  C   C741      1.0  0.88451  0.83742  0.31827  1.0000
  H   H583      1.0  0.88011  0.57481  0.32689  1.0000
  C   C742      1.0  0.86100  0.56166  0.31318  1.0000
  H   H584      1.0  0.97697  0.62678  0.58664  1.0000
  H   H585      1.0  0.96584  0.58456  0.54853  1.0000
  H   H586      1.0  0.80914  0.98428  0.40229  1.0000
  H   H587      1.0  0.74914  0.73618  0.32098  1.0000
  C   C743      1.0  0.98878  0.60401  0.54802  1.0000
  H   H588      1.0  0.93647  0.75885  0.31220  1.0000
  Fe  Fe50      1.0  0.69670  0.80458  0.83608  1.0000
  S   S99       1.0  0.72054  0.83371  0.87190  1.0000
  S   S100      1.0  0.65561  0.82798  0.80460  1.0000
  Fe  Fe51      1.0  0.75533  0.73911  0.84027  1.0000
  S   S101      1.0  0.78240  0.76442  0.87631  1.0000
  S   S102      1.0  0.77258  0.68701  0.81602  1.0000
  Fe  Fe52      1.0  0.72462  0.77708  0.89133  1.0000
  S   S103      1.0  0.70475  0.76587  0.93431  1.0000
  Fe  Fe53      1.0  0.77623  0.81905  0.85473  1.0000
  S   S104      1.0  0.82253  0.86138  0.85459  1.0000
  S   S105      1.0  0.69710  0.74809  0.85624  1.0000
  S   S106      1.0  0.75286  0.79330  0.81805  1.0000
  H   H589      1.0  0.88574  0.87742  0.66853  1.0000
  S   S107      1.0  0.51917  0.94460  0.80166  1.0000
  C   C744      1.0  0.72154  0.87361  0.72195  1.0000
  Fe  Fe54      1.0  0.93176  0.53587  0.76619  1.0000
  S   S108      1.0  0.91410  0.57932  0.79785  1.0000
  S   S109      1.0  0.91633  0.54008  0.72312  1.0000
  C   C745      1.0  0.89006  0.66123  0.94186  1.0000
  S   S110      1.0  0.88245  0.91759  0.74356  1.0000
  S   S111      1.0  0.96403  0.96438  0.70809  1.0000
  C   C746      1.0  0.83758  0.87851  0.82362  1.0000
  C   C747      1.0  0.86747  0.90340  0.82270  1.0000
  C   C748      1.0  0.88116  0.91603  0.79821  1.0000
  C   C749      1.0  0.86510  0.90364  0.77455  1.0000
  C   C750      1.0  0.83471  0.87950  0.77544  1.0000
  C   C751      1.0  0.82091  0.86712  0.79990  1.0000
  H   H590      1.0  0.88032  0.91260  0.84096  1.0000
  H   H591      1.0  0.90431  0.93502  0.79773  1.0000
  H   H592      1.0  0.82196  0.87011  0.75721  1.0000
  H   H593      1.0  0.79761  0.84859  0.80030  1.0000
  C   C752      1.0  0.81311  0.65867  0.81065  1.0000
  C   C753      1.0  0.81274  0.63207  0.79008  1.0000
  C   C754      1.0  0.84338  0.60809  0.78555  1.0000
  C   C755      1.0  0.87496  0.61001  0.80173  1.0000
  C   C756      1.0  0.87562  0.63707  0.82202  1.0000
  C   C757      1.0  0.84512  0.66130  0.82639  1.0000
  H   H594      1.0  0.78835  0.62969  0.77766  1.0000
  H   H595      1.0  0.84221  0.58764  0.76981  1.0000
  H   H596      1.0  0.89977  0.63904  0.83470  1.0000
  H   H597      1.0  0.84607  0.68139  0.84233  1.0000
  C   C758      1.0  0.61822  0.86114  0.80446  1.0000
  C   C759      1.0  0.60329  0.87633  0.82770  1.0000
  C   C760      1.0  0.57299  0.90150  0.82638  1.0000
  C   C761      1.0  0.55756  0.91264  0.80187  1.0000
  C   C762      1.0  0.57308  0.89811  0.77861  1.0000
  C   C763      1.0  0.60257  0.87204  0.77996  1.0000
  H   H598      1.0  0.61469  0.86829  0.84674  1.0000
  H   H599      1.0  0.56149  0.91256  0.84458  1.0000
  H   H600      1.0  0.56236  0.90706  0.75962  1.0000
  H   H601      1.0  0.61320  0.85996  0.76191  1.0000
  H   H602      1.0  0.73883  0.84959  0.72625  1.0000
  C   C764      1.0  0.83643  0.81974  0.70880  1.0000
  H   H603      1.0  0.81055  0.69310  0.71420  1.0000
  H   H604      1.0  0.80641  0.81767  0.92844  1.0000
  H   H605      1.0  0.53593  0.90587  0.70804  1.0000
  H   H606      1.0  0.72939  0.65614  0.86780  1.0000
  C   C765      1.0  0.73247  0.95182  0.77802  1.0000
  C   C766      1.0  0.83582  0.73459  0.95385  1.0000
  H   H607      1.0  0.51952  0.86337  0.74455  1.0000
  C   C767      1.0  0.57391  0.92945  0.65617  1.0000
  C   C768      1.0  0.54651  0.79189  0.80080  1.0000
  P   P26       1.0  0.64816  0.97771  0.70798  1.0000
  Fe  Fe55      1.0  0.97796  0.53726  0.71488  1.0000
  C   C769      1.0  0.88837  0.68589  0.74637  1.0000
  C   C770      1.0  0.87984  0.71333  0.72743  1.0000
  C   C771      1.0  0.85091  0.75167  0.79208  1.0000
  C   C772      1.0  0.90676  0.65324  0.73877  1.0000
  H   H608      1.0  0.80924  0.81800  0.71766  1.0000
  C   C773      1.0  0.79207  0.71172  0.72471  1.0000
  H   H609      1.0  0.91525  0.66966  0.67273  1.0000
  H   H610      1.0  0.93187  0.62265  0.70669  1.0000
  C   C774      1.0  0.81267  0.76092  0.94155  1.0000
  C   C775      1.0  0.66151  0.90396  0.72290  1.0000
  H   H611      1.0  0.72804  0.96199  0.69844  1.0000
  C   C776      1.0  0.80551  0.74395  0.73722  1.0000
  C   C777      1.0  0.75445  0.70250  0.72634  1.0000
  H   H612      1.0  0.61699  0.90995  0.68175  1.0000
  C   C778      1.0  0.71501  0.93716  0.70617  1.0000
  C   C779      1.0  0.89924  0.79700  0.70306  1.0000
  C   C780      1.0  0.91718  0.64784  0.71239  1.0000
  C   C781      1.0  0.70761  0.76703  0.97000  1.0000
  H   H613      1.0  0.95875  0.87035  0.71718  1.0000
  H   H614      1.0  0.72297  0.95957  0.75844  1.0000
  H   H615      1.0  0.74444  0.67707  0.71730  1.0000
  C   C782      1.0  0.73119  0.67731  0.90783  1.0000
  C   C783      1.0  0.60269  0.93434  0.67454  1.0000
  H   H616      1.0  0.93405  0.82991  0.67738  1.0000
  C   C784      1.0  0.85922  0.80864  0.94763  1.0000
  C   C785      1.0  0.85835  0.76415  0.81778  1.0000
  C   C786      1.0  0.72993  0.72544  0.74030  1.0000
  H   H617      1.0  0.84469  0.75119  0.83454  1.0000
  H   H618      1.0  0.88677  0.80480  0.84167  1.0000
  C   C787      1.0  0.84435  0.85004  0.69232  1.0000
  C   C788      1.0  0.51086  0.80259  0.79279  1.0000
  C   C789      1.0  0.51031  0.89023  0.70713  1.0000
  H   H619      1.0  0.97882  0.74230  0.77148  1.0000
  C   C790      1.0  0.86124  0.62659  0.97758  1.0000
  H   H620      1.0  0.72255  0.88247  0.82349  1.0000
  H   H621      1.0  0.97287  0.70720  0.64863  1.0000
  H   H622      1.0  0.67177  0.84800  0.73680  1.0000
  C   C791      1.0  0.75699  0.97507  0.79187  1.0000
  P   P27       1.0  0.82047  0.68701  0.95776  1.0000
  C   C792      1.0  0.80627  0.65755  0.90715  1.0000
  C   C793      1.0  0.86369  0.79269  0.71409  1.0000
  C   C794      1.0  0.88895  0.70689  0.70067  1.0000
  C   C795      1.0  0.82445  0.79768  0.93825  1.0000
  C   C796      1.0  0.75631  0.93138  0.82878  1.0000
  C   C797      1.0  0.73711  0.90573  0.71103  1.0000
  H   H623      1.0  0.79045  0.79140  0.76155  1.0000
  C   C798      1.0  0.75347  0.68409  0.93004  1.0000
  C   C799      1.0  0.88225  0.79416  0.82179  1.0000
  C   C800      1.0  0.90800  0.67451  0.69329  1.0000
  C   C801      1.0  0.73202  0.90837  0.81478  1.0000
  C   C802      1.0  0.68370  0.87268  0.72780  1.0000
  H   H624      1.0  0.76599  0.92301  0.84830  1.0000
  C   C803      1.0  0.89895  0.81151  0.80006  1.0000
  H   H625      1.0  0.91630  0.83568  0.80319  1.0000
  H   H626      1.0  0.70098  0.71780  0.74212  1.0000
  H   H627      1.0  0.70104  0.90054  0.77893  1.0000
  H   H628      1.0  0.82348  0.87117  0.68873  1.0000
  H   H629      1.0  0.56629  0.90169  0.64982  1.0000
  C   C804      1.0  0.67693  0.93658  0.71219  1.0000
  C   C805      1.0  0.52387  0.78030  0.74837  1.0000
  H   H630      1.0  0.83156  0.72900  0.78934  1.0000
  S   S112      1.0  0.97463  0.95788  0.77352  1.0000
  C   C806      1.0  0.90676  0.82687  0.68607  1.0000
  Fe  Fe56      1.0  0.92796  0.96033  0.74427  1.0000
  C   C807      1.0  0.61241  0.97026  0.68317  1.0000
  H   H631      1.0  0.79542  0.63758  0.86748  1.0000
  C   C808      1.0  0.92055  0.63706  0.94261  1.0000
  H   H632      1.0  0.65556  0.94969  0.76354  1.0000
  C   C809      1.0  0.74638  0.66063  0.88530  1.0000
  C   C810      1.0  0.86723  0.76916  0.77009  1.0000
  C   C811      1.0  0.89153  0.79913  0.77428  1.0000
  C   C812      1.0  0.57078  0.77533  0.78272  1.0000
  H   H633      1.0  0.70234  0.68598  0.90794  1.0000
  H   H634      1.0  0.88095  0.72654  0.68540  1.0000
  H   H635      1.0  0.63237  0.90315  0.72817  1.0000
  C   C813      1.0  0.72004  0.91859  0.78946  1.0000
  H   H636      1.0  0.90379  0.81388  0.75778  1.0000
  H   H637      1.0  0.72397  0.77511  0.76377  1.0000
  H   H638      1.0  0.88825  0.72661  0.97427  1.0000
  P   P28       1.0  0.85453  0.75487  0.73692  1.0000
  H   H639      1.0  0.97683  0.55647  0.83469  1.0000
  H   H640      1.0  0.76651  0.90644  0.70679  1.0000
  C   C814      1.0  0.74294  0.75777  0.75252  1.0000
  C   C815      1.0  0.78061  0.76689  0.75117  1.0000
  H   H641      1.0  0.88034  0.68912  0.76693  1.0000
  H   H642      1.0  0.91282  0.63189  0.75335  1.0000
  C   C816      1.0  0.87946  0.85358  0.68093  1.0000
  H   H643      1.0  0.92130  0.77756  0.70782  1.0000
  H   H644      1.0  0.90883  0.79156  0.96822  1.0000
  C   C817      1.0  0.55454  0.96028  0.64633  1.0000
  H   H645      1.0  0.78531  0.75331  0.93465  1.0000
  C   C818      1.0  0.99051  0.83737  0.77615  1.0000
  C   C819      1.0  0.63501  0.97144  0.76293  1.0000
  H   H646      1.0  0.57849  0.75697  0.74249  1.0000
  H   H647      1.0  0.59868  0.76790  0.78895  1.0000
  H   H648      1.0  0.83525  0.65004  0.90612  1.0000
  H   H649      1.0  0.88960  0.68365  0.92744  1.0000
  C   C820      1.0  0.97270  0.85191  0.73103  1.0000
  H   H650      1.0  0.62319  0.96536  0.80465  1.0000
  H   H651      1.0  0.82973  0.94148  0.70640  1.0000
  H   H652      1.0  0.95594  0.68525  0.79227  1.0000
  C   C821      1.0  0.55941  0.76935  0.75654  1.0000
  C   C822      1.0  0.87043  0.74601  0.96381  1.0000
  C   C823      1.0  0.86023  0.65629  0.95943  1.0000
  H   H653      1.0  0.80878  0.95403  0.75204  1.0000
  C   C824      1.0  0.98955  0.64887  0.76844  1.0000
  H   H654      1.0  0.55584  0.79744  0.82089  1.0000
  C   C825      1.0  0.88211  0.78288  0.96058  1.0000
  H   H655      1.0  0.74130  0.69777  0.94709  1.0000
  H   H656      1.0  0.78761  0.98184  0.82878  1.0000
  H   H657      1.0  0.94339  0.64094  0.92893  1.0000
  C   C826      1.0  0.79130  0.67470  0.92983  1.0000
  H   H658      1.0  0.51595  0.77679  0.72777  1.0000
  C   C827      1.0  0.78378  0.65041  0.88508  1.0000
  C   C828      1.0  0.61691  0.98056  0.78658  1.0000
  H   H659      1.0  0.81875  0.98750  0.67075  1.0000
  H   H660      1.0  0.86821  0.83719  0.94501  1.0000
  H   H661      1.0  0.97823  0.62364  0.77705  1.0000
  H   H662      1.0  0.68651  0.99169  0.65796  1.0000
  C   C829      1.0  0.76868  0.96470  0.81748  1.0000
  C   C830      1.0  0.92148  0.60777  0.96088  1.0000
  C   C831      1.0  0.97105  0.85961  0.75813  1.0000
  H   H663      1.0  0.95475  0.88296  0.76512  1.0000
  C   C832      1.0  0.97703  0.68364  0.77697  1.0000
  H   H664      1.0  0.98010  0.71594  0.69688  1.0000
  C   C833      1.0  0.80362  0.97463  0.73675  1.0000
  H   H665      1.0  0.94508  0.58900  0.96145  1.0000
  C   C834      1.0  0.62578  0.98971  0.73910  1.0000
  C   C835      1.0  0.49922  0.79690  0.76644  1.0000
  C   C836      1.0  0.50074  0.86636  0.72793  1.0000
  H   H666      1.0  0.75683  0.80064  0.97401  1.0000
  H   H667      1.0  0.76227  0.63608  0.97597  1.0000
  H   H668      1.0  0.65857  0.73347  0.97360  1.0000
  C   C837      1.0  0.99055  0.71616  0.76514  1.0000
  C   C838      1.0  0.81535  0.96723  0.71083  1.0000
  H   H669      1.0  0.99012  0.84418  0.79709  1.0000
  H   H670      1.0  0.84899  0.99018  0.78027  1.0000
  H   H671      1.0  0.49242  0.91507  0.67029  1.0000
  H   H672      1.0  0.49315  0.81635  0.80708  1.0000
  C   C839      1.0  0.80924  0.99320  0.69072  1.0000
  C   C840      1.0  0.89185  0.60255  0.97835  1.0000
