data_image0
_chemical_formula_structural       FeSHCHCH2SHCFeSHFeSFeHCSC3H3FeHS2FeS2H2FeH2SHC2HFeH2CSFeC3H2C2SC5H3C2HCHSHCPC4HC2H5C2HC2HCHCHC3H3C2HC8HCHCHCHC2H2C2HCSC3HC3PC4H2C12H3CH3C3H8SHCHC2SC2HCH3C2HC3H2CH3CHC3H2CH3CHCH2CHPHSHCSC4HCHSCHCHC2H2CH2C2HC6HCHC2PCHC2H4CHSHFeS2C2H2FeHS2C2FeS2FeHSFeSFeHS2HCHCHCHCHSC2HC3HC8H4CSCHC3H2CHCHC4PC6HC12PHCH4CH3C2H2C2H3CH2C3HFeHCH3PC7HFeHC6H2CHCHC2H2SHC9H7C2H2C2HC2HC2HC3SH2C2H4C2H3C3PHC2H3CHC2H3SC2SCH2CH2C2SHCHC2HCH3CHCHC3HCHC2H2SFeS2FeCHFeSFeS3H2FeS2FeCFeHS2HC2HCHC5H3C7H7C4H3CHC2SCHCHCH2C5HC4HCH5PHC2HC3PC18HCH9CH9C2SH4C2H2SC2FeCHCHCHC3HSCH2CH2CHCPH3CHC4SHC5HC4SCHC2HSCH2C4HCH2C2H2SCH2C5H2SHCHFeSHFeSCSFeH3FeS2HFeSCHFeSFeSHC3HC4H2CHFeCFeC4HCH3C3SH2CHCHC3H2C3HSCHC4PCHCHCSH2CHCH6C5PC19FeCH5CH4CH6CHCPCH3C2HC3HCHC4FeSHCH4C4H2SHCHCHCH4C2HCHC12PCH2SCH5C3H5C3H2C4S2CHPSHC3H2SC2H2CHC2HC2H4C2HCFeCHCH2S2H3CHC2HSCH2C3HCH2C2H2CHCFeCH2C2HCHPCHCH3C18HC3H7C2H3CHCHC5H3CHFeCH2C2HCH2C2H2SHCHC3HCH2C2PC3H2PCHC2SH2C2HC4HC8H2CH2C2H2CHC3HCHCHC4HCH7CHCHCHCH4CHCHPCPHCHC2HC2HSHFeSCFeSFeSCSFeS2FeS2FeSFeHS2C3HCH2C3HCH2CHC6H4C2H2CHC4H2SHCH3C4HCH2CHC4HCH2C3PC2HC2HC3H6C2H2CHCH2FeHSHC4H2C2HC2HCH2CH2CHC5HC2HCHCHC2HC3PC18H11C2H2CHC2HC2HC2H3C2SHCHC2HCH2CHCH7C2HC4HC5H3CH2PCHC4H2CSHCH2FeS2FeCSFeCFeS3FeSCFeSHFeSFeSCSCHCHCHSCH2CHC7H4CHC2HC2H2PHPC2HC2HC5HC5H2C2PC18HCH9CH6CH2CH8CH4C7HCH8CPC3H2C8H2C2HCHSHCHCHC2HC3HCHC2PC7HC2HC2H3C3H2SHSCH2C4HCH2C2HCHCHCHCH2C2HCH2SCH3CFeCPH2CH2CHC5H4C3PC2HC6HC2H2CHFeH2C3HCHCH2SHC4H4C5H2C4HC4H2SCPH2C5HCH3C2HSH2CHC4SHC2H3C2HC2HCH3C5HCH2CHCH8C2H3C5SCHCH2C3H3CH2CHC2H2CHCH4CFeS2FeCFeHS2FeHSCFeSC2FeC2HSHFe2SHC2H5CFeHC2SH2S2CH2SC6H2C2H3CHCHC3SC2PC8PC18H16SH3C7FeHCHCHC2HCHC2HCH8C2H3C6PCHCH4CHC2SC6H6CHCHCSC2H7C3SHCSCH3PC2HC2HCSCHC3SH2CH2C2H2SCFeCHCHC4SFeHCSHCHC4HC3HPSCHCHSC2SCFeCFeS2FeS2FeHFeCFeS3C2H2C2HPCH2C2HCH2C6H4C3HPCHC3SH3C2HCHCHCH3CHCSHCH2CH3C3HC8HC2HCH2C2HPH2C8HCHC4H2C6PC17H4CHFeCHCH7CHC3HCHCSH3CH2C3HSCHCH2C4SHC3HCH3C4HCFeHCH9CSC3HC2H4CH3FeHCHCFeS2FeSHFeSFeS2HFeS2FeHCH3S2CSC2SH5C2HPC6H5C2H2SC2H2C3H3C2FeHCH3C2HC3H7C5H4C3HCHCH3CH2C3H2C3H4C2HC3HC3HC4H2C2HC3HCH2C4HC3HCHCHCSHC5SCHSHCHC8PC4HCHC3H2C2HFeCH6CHC2HCHC2H2C2HCHC2H3C2HCHC4H3SC2HSCHC4HFeS2FeSFeHS2H3SCH3SFeS2FeCFeSHSCHFeSC4H2CHC5HC3SHCH2CHC8H3C4HC2HCHC4HFeHPHCSCHPC2H2C5HC8HC3HSH5SHCH6C5H3CHC6PC18H19C4HC2HCHCHC2H4FeC2HSPH2C2H2SCH3PH2C2HC2HFeCH5C4HC2HC2HCH
_chemical_formula_sum              "Fe96 S192 H1152 C1440 P48"
_cell_length_a       62.2922
_cell_length_b       49.3691
_cell_length_c       36.5984
_cell_angle_alpha    89.3926
_cell_angle_beta     89.1482
_cell_angle_gamma    89.025

_space_group_name_H-M_alt    "P 1"
_space_group_IT_number       1

loop_
  _space_group_symop_operation_xyz
  'x, y, z'

loop_
  _atom_site_type_symbol
  _atom_site_label
  _atom_site_symmetry_multiplicity
  _atom_site_fract_x
  _atom_site_fract_y
  _atom_site_fract_z
  _atom_site_occupancy
  Fe  Fe1       1.0  0.01962  0.36768  0.43682  1.0000
  S   S1        1.0  0.02092  0.40606  0.40346  1.0000
  H   H1        1.0  0.18412  0.42401  0.32399  1.0000
  C   C1        1.0  0.00859  0.45986  0.48083  1.0000
  H   H2        1.0  0.07047  0.36645  0.41486  1.0000
  C   C2        1.0  0.22999  0.24453  0.48337  1.0000
  H   H3        1.0  0.12477  0.33001  0.28406  1.0000
  H   H4        1.0  0.16260  0.04700  0.10194  1.0000
  S   S2        1.0  0.32651  0.08157  0.40882  1.0000
  H   H5        1.0  0.28925  0.04835  0.09777  1.0000
  C   C3        1.0  0.16683  0.45896  0.30323  1.0000
  Fe  Fe2       1.0  0.31219  0.11296  0.37011  1.0000
  S   S3        1.0  0.27861  0.10849  0.39299  1.0000
  H   H6        1.0  0.22129  0.20422  0.46738  1.0000
  Fe  Fe3       1.0  0.28637  0.14256  0.43183  1.0000
  S   S4        1.0  0.25983  0.17501  0.44549  1.0000
  Fe  Fe4       1.0  0.29347  0.07933  0.43410  1.0000
  H   H7        1.0  0.29831  0.00524  0.03200  1.0000
  C   C4        1.0  0.25559  0.20866  0.46333  1.0000
  S   S5        1.0  0.04402  0.35533  0.47960  1.0000
  C   C5        1.0  0.27232  0.22677  0.46878  1.0000
  C   C6        1.0  0.06386  0.43479  0.33740  1.0000
  C   C7        1.0  0.29742  0.17189  0.20709  1.0000
  H   H8        1.0  0.03178  0.43648  0.12879  1.0000
  H   H9        1.0  0.21220  0.48376  0.14070  1.0000
  H   H10       1.0  0.09801  0.41827  0.40594  1.0000
  Fe  Fe5       1.0  0.01956  0.36118  0.04553  1.0000
  H   H11       1.0  0.21989  0.44181  0.30664  1.0000
  S   S6        1.0  0.00986  0.38725  0.09335  1.0000
  S   S7        1.0  0.00724  0.34231  0.39096  1.0000
  Fe  Fe6       1.0  0.30067  0.10782  0.08885  1.0000
  S   S8        1.0  0.27735  0.10275  0.04245  1.0000
  S   S9        1.0  0.28867  0.09871  0.14760  1.0000
  H   H12       1.0  0.21577  0.43425  0.45327  1.0000
  H   H13       1.0  0.15124  0.45129  0.31126  1.0000
  Fe  Fe7       1.0  0.28996  0.14226  0.01938  1.0000
  H   H14       1.0  0.00584  0.38533  0.17015  1.0000
  H   H15       1.0  0.10168  0.36481  0.03913  1.0000
  S   S10       1.0  0.31186  0.14824  0.06747  1.0000
  H   H16       1.0  0.14139  0.08754  0.37561  1.0000
  C   C8        1.0  0.17041  0.48834  0.38500  1.0000
  C   C9        1.0  0.04069  0.33079  0.19737  1.0000
  H   H17       1.0  0.13315  0.45942  0.48664  1.0000
  Fe  Fe8       1.0  0.00604  0.38162  0.35901  1.0000
  H   H18       1.0  0.04865  0.39097  0.13316  1.0000
  H   H19       1.0  0.23753  0.06809  0.42307  1.0000
  C   C10       1.0  0.08695  0.45912  0.39319  1.0000
  S   S11       1.0  0.01819  0.39047  0.30149  1.0000
  Fe  Fe9       1.0  0.30442  0.08091  0.01246  1.0000
  C   C11       1.0  0.30362  0.99695  0.44035  1.0000
  C   C12       1.0  0.05504  0.42302  0.02891  1.0000
  C   C13       1.0  0.07479  0.47514  0.36895  1.0000
  H   H20       1.0  0.10172  0.40574  0.14730  1.0000
  H   H21       1.0  0.10024  0.31857  0.15771  1.0000
  C   C14       1.0  0.08827  0.43098  0.38814  1.0000
  C   C15       1.0  0.29920  0.10265  0.19248  1.0000
  S   S12       1.0  0.99877  0.38478  0.00650  1.0000
  C   C16       1.0  0.07066  0.43103  0.05331  1.0000
  C   C17       1.0  0.31399  0.10971  0.26521  1.0000
  C   C18       1.0  0.29299  0.10139  0.25912  1.0000
  C   C19       1.0  0.28569  0.09790  0.22306  1.0000
  C   C20       1.0  0.10928  0.33922  0.27805  1.0000
  H   H22       1.0  0.27862  0.17903  0.37483  1.0000
  H   H23       1.0  0.28237  0.09759  0.28218  1.0000
  H   H24       1.0  0.26937  0.09161  0.21883  1.0000
  C   C21       1.0  0.10772  0.38578  0.14015  1.0000
  C   C22       1.0  0.00065  0.37834  0.19675  1.0000
  H   H25       1.0  0.28290  0.26448  0.35458  1.0000
  C   C23       1.0  0.15598  0.40458  0.02309  1.0000
  H   H26       1.0  0.05392  0.37243  0.25755  1.0000
  S   S13       1.0  0.29870  0.11287  0.47394  1.0000
  H   H27       1.0  0.01134  0.43607  0.00087  1.0000
  C   C24       1.0  0.18536  0.44360  0.31048  1.0000
  P   P1        1.0  0.10173  0.47433  0.42946  1.0000
  C   C25       1.0  0.09715  0.35529  0.01398  1.0000
  C   C26       1.0  0.00430  0.37887  0.26305  1.0000
  C   C27       1.0  0.18080  0.22264  0.42408  1.0000
  C   C28       1.0  0.14421  0.45883  0.41349  1.0000
  H   H28       1.0  0.10121  0.44971  0.05949  1.0000
  C   C29       1.0  0.11711  0.35446  0.46121  1.0000
  C   C30       1.0  0.05613  0.34111  0.17276  1.0000
  H   H29       1.0  0.05447  0.42524  0.31656  1.0000
  H   H30       1.0  0.13069  0.40151  0.10096  1.0000
  H   H31       1.0  0.20603  0.07794  0.02823  1.0000
  H   H32       1.0  0.15295  0.48282  0.03108  1.0000
  H   H33       1.0  0.06770  0.44052  0.46014  1.0000
  C   C31       1.0  0.10338  0.36092  0.43211  1.0000
  C   C32       1.0  0.08093  0.36147  0.43734  1.0000
  H   H34       1.0  0.11017  0.36542  0.40542  1.0000
  C   C33       1.0  0.13905  0.41894  0.00680  1.0000
  C   C34       1.0  0.29946  0.99450  0.00647  1.0000
  H   H35       1.0  0.01017  0.29575  0.13835  1.0000
  C   C35       1.0  0.08376  0.35722  0.23393  1.0000
  H   H36       1.0  0.24032  0.08437  0.48631  1.0000
  C   C36       1.0  0.03856  0.31784  0.12339  1.0000
  H   H37       1.0  0.22293  0.48666  0.27672  1.0000
  C   C37       1.0  0.13198  0.35795  0.10354  1.0000
  C   C38       1.0  0.04591  0.45070  0.17832  1.0000
  C   C39       1.0  0.09889  0.36243  0.15627  1.0000
  H   H38       1.0  0.06210  0.45898  0.22853  1.0000
  H   H39       1.0  0.04480  0.47854  0.00534  1.0000
  H   H40       1.0  0.05649  0.48966  0.44049  1.0000
  C   C40       1.0  0.01052  0.38811  0.22817  1.0000
  C   C41       1.0  0.16514  0.46338  0.40081  1.0000
  H   H41       1.0  0.04059  0.33596  0.22591  1.0000
  C   C42       1.0  0.02443  0.31414  0.18502  1.0000
  C   C43       1.0  0.30242  0.19096  0.33496  1.0000
  C   C44       1.0  0.31225  0.21261  0.31654  1.0000
  C   C45       1.0  0.07208  0.35513  0.47164  1.0000
  C   C46       1.0  0.28576  0.19579  0.36013  1.0000
  C   C47       1.0  0.27874  0.22223  0.36721  1.0000
  C   C48       1.0  0.28827  0.24395  0.34877  1.0000
  C   C49       1.0  0.20717  0.47910  0.28388  1.0000
  H   H42       1.0  0.28186  0.16255  0.20541  1.0000
  C   C50       1.0  0.21420  0.45486  0.46284  1.0000
  H   H43       1.0  0.07891  0.41360  0.23329  1.0000
  C   C51       1.0  0.26856  0.22843  0.99751  1.0000
  H   H44       1.0  0.31593  0.20246  0.04247  1.0000
  C   C52       1.0  0.05153  0.40560  0.15426  1.0000
  H   H45       1.0  0.21802  0.47273  0.40910  1.0000
  C   C53       1.0  0.12418  0.38350  0.11384  1.0000
  C   C54       1.0  0.23070  0.08773  0.43022  1.0000
  H   H46       1.0  0.11537  0.34081  0.22030  1.0000
  H   H47       1.0  0.09876  0.33953  0.33453  1.0000
  C   C55       1.0  0.05921  0.44413  0.20767  1.0000
  C   C56       1.0  0.23225  0.09689  0.46602  1.0000
  H   H48       1.0  0.26613  0.22584  0.38743  1.0000
  C   C57       1.0  0.22390  0.12240  0.47532  1.0000
  S   S14       1.0  0.32405  0.11545  0.31002  1.0000
  C   C58       1.0  0.26246  0.03585  0.06596  1.0000
  C   C59       1.0  0.21364  0.23259  0.39085  1.0000
  C   C60       1.0  0.19617  0.24123  0.41238  1.0000
  H   H49       1.0  0.20836  0.15881  0.45643  1.0000
  C   C61       1.0  0.18273  0.19546  0.41387  1.0000
  C   C62       1.0  0.19999  0.18671  0.39156  1.0000
  C   C63       1.0  0.21565  0.20541  0.38065  1.0000
  P   P2        1.0  0.20171  0.15174  0.37726  1.0000
  C   C64       1.0  0.21901  0.14905  0.33730  1.0000
  C   C65       1.0  0.21297  0.13009  0.41253  1.0000
  C   C66       1.0  0.22121  0.10428  0.40350  1.0000
  C   C67       1.0  0.19035  0.03651  0.06883  1.0000
  H   H50       1.0  0.32546  0.02885  0.10972  1.0000
  H   H51       1.0  0.16751  0.22932  0.44139  1.0000
  C   C68       1.0  0.07538  0.34968  0.00811  1.0000
  C   C69       1.0  0.21057  0.14740  0.30202  1.0000
  C   C70       1.0  0.22436  0.14482  0.27164  1.0000
  C   C71       1.0  0.24659  0.14379  0.27627  1.0000
  C   C72       1.0  0.25509  0.14550  0.31125  1.0000
  C   C73       1.0  0.24136  0.14827  0.34161  1.0000
  C   C74       1.0  0.17495  0.14117  0.36625  1.0000
  C   C75       1.0  0.16098  0.15915  0.34787  1.0000
  C   C76       1.0  0.14015  0.15134  0.33957  1.0000
  C   C77       1.0  0.13310  0.12554  0.34951  1.0000
  C   C78       1.0  0.14688  0.10752  0.36777  1.0000
  C   C79       1.0  0.16773  0.11527  0.37615  1.0000
  H   H52       1.0  0.22588  0.24689  0.38286  1.0000
  H   H53       1.0  0.19488  0.26221  0.42083  1.0000
  H   H54       1.0  0.20655  0.48505  0.20754  1.0000
  C   C80       1.0  0.15337  0.46102  0.02876  1.0000
  H   H55       1.0  0.22952  0.19918  0.36455  1.0000
  H   H56       1.0  0.22068  0.09711  0.37567  1.0000
  H   H57       1.0  0.27026  0.27202  0.00217  1.0000
  C   C81       1.0  0.04216  0.43148  0.15153  1.0000
  C   C82       1.0  0.12346  0.33465  0.11972  1.0000
  C   C83       1.0  0.09467  0.34462  0.30653  1.0000
  H   H58       1.0  0.19345  0.14793  0.29773  1.0000
  H   H59       1.0  0.21782  0.14340  0.24447  1.0000
  H   H60       1.0  0.25722  0.14146  0.25279  1.0000
  H   H61       1.0  0.27233  0.14434  0.31489  1.0000
  H   H62       1.0  0.24809  0.14978  0.36863  1.0000
  H   H63       1.0  0.16621  0.17924  0.33999  1.0000
  H   H64       1.0  0.12944  0.16536  0.32552  1.0000
  H   H65       1.0  0.11692  0.11954  0.34318  1.0000
  S   S15       1.0  0.20319  0.36057  0.48089  1.0000
  H   H66       1.0  0.17802  0.10101  0.39051  1.0000
  C   C84       1.0  0.20551  0.45364  0.30074  1.0000
  H   H67       1.0  0.31038  0.00966  0.41902  1.0000
  C   C85       1.0  0.21547  0.47680  0.43781  1.0000
  C   C86       1.0  0.06442  0.39858  0.18410  1.0000
  S   S16       1.0  0.14515  0.35318  0.45313  1.0000
  C   C87       1.0  0.12852  0.47956  0.41135  1.0000
  C   C88       1.0  0.08909  0.44391  0.04029  1.0000
  H   H68       1.0  0.14045  0.43924  0.42540  1.0000
  C   C89       1.0  0.10703  0.33685  0.14605  1.0000
  H   H69       1.0  0.06864  0.42664  0.08217  1.0000
  H   H70       1.0  0.06603  0.34267  0.11575  1.0000
  H   H71       1.0  0.12930  0.31484  0.11128  1.0000
  C   C90       1.0  0.23445  0.21782  0.47114  1.0000
  C   C91       1.0  0.21416  0.13889  0.44876  1.0000
  H   H72       1.0  0.31224  0.25639  0.30994  1.0000
  C   C92       1.0  0.17019  0.44655  0.04525  1.0000
  C   C93       1.0  0.17162  0.41839  0.04209  1.0000
  C   C94       1.0  0.06309  0.46293  0.34139  1.0000
  H   H73       1.0  0.23312  0.48147  0.02915  1.0000
  H   H74       1.0  0.04086  0.41279  0.03898  1.0000
  C   C95       1.0  0.28785  0.00765  0.46398  1.0000
  H   H75       1.0  0.03757  0.31329  0.09455  1.0000
  H   H76       1.0  0.01510  0.44176  0.46819  1.0000
  H   H77       1.0  0.02314  0.40274  0.22540  1.0000
  C   C96       1.0  0.10081  0.45172  0.46854  1.0000
  H   H78       1.0  0.15730  0.38281  0.02009  1.0000
  C   C97       1.0  0.06859  0.41824  0.21046  1.0000
  C   C98       1.0  0.31048  0.17357  0.17585  1.0000
  C   C99       1.0  0.09190  0.44910  0.00272  1.0000
  H   H79       1.0  0.18257  0.45732  0.05933  1.0000
  H   H80       1.0  0.18511  0.40732  0.05367  1.0000
  C   C100      1.0  0.30496  0.23922  0.32347  1.0000
  H   H81       1.0  0.30787  0.17031  0.33022  1.0000
  H   H82       1.0  0.29438  0.17926  0.26438  1.0000
  H   H83       1.0  0.03845  0.47062  0.17633  1.0000
  C   C101      1.0  0.07659  0.41888  0.36061  1.0000
  H   H84       1.0  0.14445  0.35613  0.08267  1.0000
  C   C102      1.0  0.02327  0.30781  0.14803  1.0000
  H   H85       1.0  0.28870  0.22032  0.46306  1.0000
  H   H86       1.0  0.17741  0.44771  0.40390  1.0000
  C   C103      1.0  0.26788  0.25346  0.48123  1.0000
  H   H87       1.0  0.26876  0.04506  0.04119  1.0000
  P   P3        1.0  0.07607  0.36489  0.18736  1.0000
  H   H88       1.0  0.06310  0.36030  0.32070  1.0000
  S   S17       1.0  0.05628  0.35718  0.04331  1.0000
  H   H89       1.0  0.07715  0.39709  0.35773  1.0000
  C   C104      1.0  0.16843  0.48451  0.28657  1.0000
  S   S18       1.0  0.31937  0.14838  0.40685  1.0000
  C   C105      1.0  0.10386  0.34538  0.24184  1.0000
  C   C106      1.0  0.07469  0.35644  0.29886  1.0000
  C   C107      1.0  0.06940  0.36303  0.26285  1.0000
  C   C108      1.0  0.08190  0.43757  0.47653  1.0000
  H   H90       1.0  0.30492  0.16559  0.15022  1.0000
  C   C109      1.0  0.22001  0.48210  0.01009  1.0000
  H   H91       1.0  0.17074  0.18129  0.42336  1.0000
  S   S19       1.0  0.27771  0.04162  0.45938  1.0000
  C   C110      1.0  0.30468  0.18132  0.24056  1.0000
  H   H92       1.0  0.28194  0.22457  0.01532  1.0000
  C   C111      1.0  0.05480  0.33451  0.13562  1.0000
  H   H93       1.0  0.01215  0.30702  0.20392  1.0000
  C   C112      1.0  0.13783  0.44733  0.00894  1.0000
  C   C113      1.0  0.32036  0.11038  0.19859  1.0000
  H   H94       1.0  0.05316  0.47521  0.32345  1.0000
  H   H95       1.0  0.13749  0.02048  0.06499  1.0000
  C   C114      1.0  0.24667  0.26273  0.48845  1.0000
  H   H96       1.0  0.28102  0.26713  0.48510  1.0000
  H   H97       1.0  0.21362  0.25102  0.48900  1.0000
  C   C115      1.0  0.16855  0.03584  0.07842  1.0000
  C   C116      1.0  0.32504  0.19296  0.24287  1.0000
  H   H98       1.0  0.20107  0.04839  0.08507  1.0000
  C   C117      1.0  0.23555  0.00975  0.09839  1.0000
  C   C118      1.0  0.27442  0.03723  0.09787  1.0000
  C   C119      1.0  0.24252  0.02307  0.06633  1.0000
  C   C120      1.0  0.11867  0.44795  0.49112  1.0000
  C   C121      1.0  0.19819  0.02219  0.03830  1.0000
  C   C122      1.0  0.24769  0.01089  0.13021  1.0000
  H   H99       1.0  0.27606  0.02674  0.15496  1.0000
  C   C123      1.0  0.26695  0.02503  0.13009  1.0000
  H   H100      1.0  0.21515  0.12109  0.99818  1.0000
  C   C124      1.0  0.15440  0.02093  0.05760  1.0000
  C   C125      1.0  0.21916  0.07819  0.00867  1.0000
  P   P4        1.0  0.22635  0.02331  0.02571  1.0000
  C   C126      1.0  0.16205  0.00671  0.02713  1.0000
  H   H101      1.0  0.22329  0.43947  0.99672  1.0000
  C   C127      1.0  0.18385  0.00734  0.01744  1.0000
  C   C128      1.0  0.23136  0.05463  0.00110  1.0000
  H   H102      1.0  0.32645  0.25083  0.23480  1.0000
  H   H103      1.0  0.24204  0.00114  0.15512  1.0000
  H   H104      1.0  0.15108  0.99521  0.01090  1.0000
  H   H105      1.0  0.22067  0.99875  0.09896  1.0000
  C   C129      1.0  0.23341  0.99415  0.99838  1.0000
  H   H106      1.0  0.18938  0.99627  0.99364  1.0000
  S   S20       1.0  0.32667  0.08363  0.05999  1.0000
  H   H107      1.0  0.12981  0.35230  0.99294  1.0000
  Fe  Fe10      1.0  0.18196  0.34560  0.57995  1.0000
  S   S21       1.0  0.21619  0.35515  0.56632  1.0000
  S   S22       1.0  0.16821  0.33777  0.63800  1.0000
  C   C130      1.0  0.10906  0.46843  0.60375  1.0000
  C   C131      1.0  0.11409  0.38281  0.69190  1.0000
  H   H108      1.0  0.06086  0.47546  0.56163  1.0000
  H   H109      1.0  0.19555  0.41184  0.84201  1.0000
  Fe  Fe11      1.0  0.20299  0.38829  0.52925  1.0000
  H   H110      1.0  0.21983  0.24356  0.93474  1.0000
  S   S23       1.0  0.17950  0.31508  0.53408  1.0000
  S   S24       1.0  0.16877  0.38011  0.54566  1.0000
  C   C132      1.0  0.08350  0.41384  0.68944  1.0000
  C   C133      1.0  0.19930  0.48057  0.79014  1.0000
  Fe  Fe12      1.0  0.19578  0.34969  0.85768  1.0000
  S   S25       1.0  0.22018  0.36108  0.89975  1.0000
  S   S26       1.0  0.20617  0.35786  0.79782  1.0000
  Fe  Fe13      1.0  0.16245  0.33674  0.91821  1.0000
  H   H111      1.0  0.07801  0.44410  0.94929  1.0000
  S   S27       1.0  0.12710  0.32502  0.92244  1.0000
  Fe  Fe14      1.0  0.19342  0.38374  0.92903  1.0000
  S   S28       1.0  0.19008  0.42939  0.94180  1.0000
  Fe  Fe15      1.0  0.21001  0.32339  0.93140  1.0000
  H   H112      1.0  0.30449  0.20858  0.84696  1.0000
  S   S29       1.0  0.16971  0.37413  0.88529  1.0000
  S   S30       1.0  0.18713  0.31094  0.88746  1.0000
  H   H113      1.0  0.24277  0.31874  0.79216  1.0000
  C   C134      1.0  0.05670  0.39652  0.59090  1.0000
  H   H114      1.0  0.06999  0.42343  0.70329  1.0000
  C   C135      1.0  0.04245  0.38241  0.56921  1.0000
  H   H115      1.0  0.09618  0.49079  0.86047  1.0000
  C   C136      1.0  0.11855  0.38802  0.65503  1.0000
  H   H116      1.0  0.03755  0.46808  0.51002  1.0000
  C   C137      1.0  0.10755  0.33519  0.95572  1.0000
  H   H117      1.0  0.27500  0.24077  0.83188  1.0000
  S   S31       1.0  0.24210  0.29696  0.50389  1.0000
  C   C138      1.0  0.27919  0.26507  0.87960  1.0000
  C   C139      1.0  0.01956  0.42230  0.56473  1.0000
  H   H118      1.0  0.25094  0.35847  0.65875  1.0000
  C   C140      1.0  0.25968  0.38117  0.61081  1.0000
  C   C141      1.0  0.28438  0.24368  0.85618  1.0000
  C   C142      1.0  0.21043  0.48670  0.51220  1.0000
  H   H119      1.0  0.21885  0.28915  0.75769  1.0000
  C   C143      1.0  0.30413  0.99438  0.94094  1.0000
  C   C144      1.0  0.02059  0.38700  0.88005  1.0000
  C   C145      1.0  0.17920  0.34349  0.68212  1.0000
  C   C146      1.0  0.16755  0.33525  0.71352  1.0000
  C   C147      1.0  0.17546  0.33942  0.74904  1.0000
  C   C148      1.0  0.19522  0.35194  0.75371  1.0000
  C   C149      1.0  0.20687  0.36018  0.72230  1.0000
  C   C150      1.0  0.19896  0.35600  0.68679  1.0000
  H   H120      1.0  0.15233  0.32539  0.71035  1.0000
  H   H121      1.0  0.16632  0.33281  0.77277  1.0000
  H   H122      1.0  0.22220  0.36978  0.72544  1.0000
  H   H123      1.0  0.20812  0.36251  0.66304  1.0000
  C   C151      1.0  0.04878  0.47272  0.85668  1.0000
  S   S32       1.0  0.26556  0.17160  0.99072  1.0000
  C   C152      1.0  0.02402  0.39533  0.55587  1.0000
  H   H124      1.0  0.01000  0.46629  0.70871  1.0000
  C   C153      1.0  0.29985  0.12054  0.89494  1.0000
  C   C154      1.0  0.27152  0.35516  0.55833  1.0000
  C   C155      1.0  0.23260  0.29813  0.74402  1.0000
  H   H125      1.0  0.25512  0.40048  0.62268  1.0000
  H   H126      1.0  0.01273  0.40613  0.71627  1.0000
  C   C156      1.0  0.20179  0.45445  0.84639  1.0000
  H   H127      1.0  0.07908  0.34358  0.52724  1.0000
  C   C157      1.0  0.30780  0.25066  0.91991  1.0000
  H   H128      1.0  0.26761  0.39864  0.55819  1.0000
  C   C158      1.0  0.23341  0.23962  0.95221  1.0000
  C   C159      1.0  0.26742  0.32255  0.70864  1.0000
  C   C160      1.0  0.25355  0.30645  0.68856  1.0000
  C   C161      1.0  0.21454  0.45821  0.99160  1.0000
  P   P5        1.0  0.25921  0.30073  0.64063  1.0000
  C   C162      1.0  0.23771  0.28351  0.61840  1.0000
  C   C163      1.0  0.26258  0.33206  0.61544  1.0000
  C   C164      1.0  0.26933  0.33121  0.57868  1.0000
  C   C165      1.0  0.32391  0.20104  0.98515  1.0000
  C   C166      1.0  0.10555  0.40613  0.63532  1.0000
  C   C167      1.0  0.13755  0.44832  0.88290  1.0000
  H   H129      1.0  0.27394  0.33995  0.76109  1.0000
  C   C168      1.0  0.21637  0.29236  0.62361  1.0000
  C   C169      1.0  0.26405  0.46721  0.89663  1.0000
  C   C170      1.0  0.20411  0.25684  0.58425  1.0000
  C   C171      1.0  0.22536  0.24848  0.57791  1.0000
  C   C172      1.0  0.24213  0.26192  0.59456  1.0000
  C   C173      1.0  0.28334  0.28001  0.63931  1.0000
  C   C174      1.0  0.28266  0.25312  0.65207  1.0000
  C   C175      1.0  0.30112  0.23660  0.65079  1.0000
  C   C176      1.0  0.32044  0.24695  0.63724  1.0000
  C   C177      1.0  0.31287  0.22875  0.89690  1.0000
  C   C178      1.0  0.30293  0.29047  0.62654  1.0000
  C   C179      1.0  0.24025  0.21253  0.95955  1.0000
  P   P6        1.0  0.07119  0.44273  0.62647  1.0000
  H   H130      1.0  0.10933  0.40984  0.60678  1.0000
  C   C180      1.0  0.03553  0.37402  0.72780  1.0000
  H   H131      1.0  0.22589  0.28028  0.69263  1.0000
  H   H132      1.0  0.27231  0.31195  0.56538  1.0000
  H   H133      1.0  0.20893  0.49072  0.54112  1.0000
  H   H134      1.0  0.07100  0.38604  0.60022  1.0000
  C   C181      1.0  0.12095  0.48611  0.58153  1.0000
  H   H135      1.0  0.28659  0.28495  0.92971  1.0000
  H   H136      1.0  0.21262  0.30978  0.64042  1.0000
  H   H137      1.0  0.09312  0.39144  0.73765  1.0000
  C   C182      1.0  0.26675  0.38016  0.57440  1.0000
  C   C183      1.0  0.19788  0.45868  0.96635  1.0000
  H   H138      1.0  0.25846  0.25575  0.58798  1.0000
  H   H139      1.0  0.26775  0.24485  0.66253  1.0000
  C   C184      1.0  0.11814  0.42869  0.51942  1.0000
  C   C185      1.0  0.11313  0.34826  0.98787  1.0000
  H   H140      1.0  0.04446  0.46556  0.88386  1.0000
  H   H141      1.0  0.27603  0.35421  0.52965  1.0000
  H   H142      1.0  0.11869  0.34332  0.51809  1.0000
  C   C186      1.0  0.02478  0.47319  0.69605  1.0000
  H   H143      1.0  0.27472  0.45062  0.88887  1.0000
  H   H144      1.0  0.13229  0.42498  0.53575  1.0000
  C   C187      1.0  0.11867  0.46394  0.93756  1.0000
  C   C188      1.0  0.02336  0.41260  0.86362  1.0000
  C   C189      1.0  0.99972  0.49062  0.94759  1.0000
  H   H145      1.0  0.05308  0.33274  0.97067  1.0000
  Fe  Fe16      1.0  0.16938  0.35090  0.49909  1.0000
  H   H146      1.0  0.15042  0.43632  0.87052  1.0000
  C   C190      1.0  0.05343  0.37655  0.78598  1.0000
  H   H147      1.0  0.28108  0.33199  0.69535  1.0000
  H   H148      1.0  0.08986  0.38962  0.94217  1.0000
  H   H149      1.0  0.01862  0.45426  0.93914  1.0000
  P   P7        1.0  0.04698  0.41884  0.83555  1.0000
  C   C191      1.0  0.05096  0.45458  0.82757  1.0000
  C   C192      1.0  0.07112  0.40737  0.85802  1.0000
  C   C193      1.0  0.07116  0.40246  0.89585  1.0000
  C   C194      1.0  0.08998  0.39387  0.91305  1.0000
  C   C195      1.0  0.10889  0.39015  0.89270  1.0000
  C   C196      1.0  0.10913  0.39542  0.85513  1.0000
  C   C197      1.0  0.09039  0.40444  0.83789  1.0000
  H   H150      1.0  0.28795  0.18522  0.91960  1.0000
  Fe  Fe17      1.0  0.21350  0.32623  0.51870  1.0000
  H   H151      1.0  0.03143  0.43551  0.66884  1.0000
  C   C198      1.0  0.04286  0.40132  0.79325  1.0000
  C   C199      1.0  0.32199  0.12265  0.88940  1.0000
  C   C200      1.0  0.22424  0.10281  0.99164  1.0000
  C   C201      1.0  0.24610  0.31483  0.76350  1.0000
  C   C202      1.0  0.05798  0.42738  0.99144  1.0000
  C   C203      1.0  0.02800  0.41177  0.76807  1.0000
  H   H152      1.0  0.30905  0.19136  0.97841  1.0000
  H   H153      1.0  0.20511  0.45293  0.87532  1.0000
  C   C204      1.0  0.29769  0.16804  0.91071  1.0000
  H   H154      1.0  0.03261  0.37108  0.87647  1.0000
  C   C205      1.0  0.13504  0.44837  0.92090  1.0000
  H   H155      1.0  0.05674  0.40517  0.91226  1.0000
  C   C206      1.0  0.12344  0.46342  0.86110  1.0000
  C   C207      1.0  0.08136  0.41862  0.50506  1.0000
  H   H156      1.0  0.12388  0.39236  0.83952  1.0000
  H   H157      1.0  0.09088  0.40880  0.80885  1.0000
  S   S33       1.0  0.18459  0.34727  0.96383  1.0000
  H   H158      1.0  0.05991  0.45085  0.77026  1.0000
  C   C208      1.0  0.06971  0.33733  0.97550  1.0000
  C   C209      1.0  0.08575  0.32992  0.94964  1.0000
  C   C210      1.0  0.00402  0.45491  0.99261  1.0000
  C   C211      1.0  0.30265  0.00898  0.97382  1.0000
  C   C212      1.0  0.08581  0.34862  0.50069  1.0000
  C   C213      1.0  0.19618  0.43114  0.82770  1.0000
  C   C214      1.0  0.19203  0.43246  0.79034  1.0000
  C   C215      1.0  0.19340  0.45722  0.77162  1.0000
  C   C216      1.0  0.29101  0.26866  0.91124  1.0000
  H   H159      1.0  0.18807  0.41415  0.77589  1.0000
  H   H160      1.0  0.19030  0.45811  0.74256  1.0000
  H   H161      1.0  0.26671  0.99843  0.50945  1.0000
  H   H162      1.0  0.08126  0.31985  0.92485  1.0000
  H   H163      1.0  0.24576  0.12348  0.95486  1.0000
  H   H164      1.0  0.26752  0.08198  0.94102  1.0000
  H   H165      1.0  0.00821  0.45201  0.85424  1.0000
  C   C217      1.0  0.25369  0.08086  0.95921  1.0000
  C   C218      1.0  0.02440  0.39818  0.73542  1.0000
  H   H166      1.0  0.27061  0.14171  0.91051  1.0000
  H   H167      1.0  0.04599  0.42045  0.97273  1.0000
  C   C219      1.0  0.24410  0.26148  0.96746  1.0000
  C   C220      1.0  0.19964  0.27875  0.60712  1.0000
  H   H168      1.0  0.24697  0.46678  0.84628  1.0000
  C   C221      1.0  0.24818  0.47637  0.87265  1.0000
  C   C222      1.0  0.10825  0.34848  0.49560  1.0000
  H   H169      1.0  0.25875  0.03861  0.97068  1.0000
  C   C223      1.0  0.05719  0.46446  0.79289  1.0000
  C   C224      1.0  0.23643  0.29364  0.70681  1.0000
  H   H170      1.0  0.03270  0.36342  0.70255  1.0000
  C   C225      1.0  0.24865  0.05621  0.97616  1.0000
  C   C226      1.0  0.07622  0.44070  0.97833  1.0000
  C   C227      1.0  0.00834  0.46546  0.95786  1.0000
  S   S34       1.0  0.21299  0.43282  0.53358  1.0000
  H   H171      1.0  0.22891  0.23199  0.55936  1.0000
  H   H172      1.0  0.30644  0.00524  0.91543  1.0000
  C   C228      1.0  0.20382  0.47926  0.82764  1.0000
  C   C229      1.0  0.02125  0.47468  0.50468  1.0000
  H   H173      1.0  0.14604  0.43629  0.93703  1.0000
  H   H174      1.0  0.12528  0.46310  0.83163  1.0000
  H   H175      1.0  0.00046  0.36223  0.91497  1.0000
  H   H176      1.0  0.22507  0.01312  0.94669  1.0000
  C   C230      1.0  0.03694  0.45584  0.67352  1.0000
  C   C231      1.0  0.08797  0.41935  0.65236  1.0000
  H   H177      1.0  0.18318  0.28558  0.61153  1.0000
  H   H178      1.0  0.30038  0.21571  0.66004  1.0000
  H   H179      1.0  0.26575  0.27861  0.87375  1.0000
  C   C232      1.0  0.28772  0.14325  0.90556  1.0000
  C   C233      1.0  0.04994  0.36315  0.75316  1.0000
  C   C234      1.0  0.32137  0.27391  0.62533  1.0000
  P   P8        1.0  0.11605  0.46538  0.98678  1.0000
  H   H180      1.0  0.09947  0.39797  0.54671  1.0000
  C   C235      1.0  0.09656  0.39566  0.70909  1.0000
  C   C236      1.0  0.24152  0.10416  0.96702  1.0000
  H   H181      1.0  0.12334  0.38299  0.90612  1.0000
  H   H182      1.0  0.01906  0.43030  0.77389  1.0000
  H   H183      1.0  0.03023  0.45762  0.59219  1.0000
  C   C237      1.0  0.00700  0.43238  0.86748  1.0000
  H   H184      1.0  0.06413  0.36728  0.80573  1.0000
  C   C238      1.0  0.05596  0.46486  0.65664  1.0000
  C   C239      1.0  0.30113  0.22557  0.86476  1.0000
  H   H185      1.0  0.12429  0.36873  0.70698  1.0000
  H   H186      1.0  0.13214  0.37793  0.64170  1.0000
  H   H187      1.0  0.04596  0.36157  0.56174  1.0000
  S   S35       1.0  0.30457  0.04517  0.97206  1.0000
  C   C240      1.0  0.25742  0.35722  0.63123  1.0000
  C   C241      1.0  0.09960  0.41375  0.52598  1.0000
  S   S36       1.0  0.23655  0.29648  0.95895  1.0000
  C   C242      1.0  0.26358  0.32692  0.74589  1.0000
  H   H188      1.0  0.01344  0.38449  0.53804  1.0000
  H   H189      1.0  0.30405  0.31133  0.61744  1.0000
  C   C243      1.0  0.03376  0.43652  0.58639  1.0000
  H   H190      1.0  0.05820  0.34408  0.74762  1.0000
  H   H191      1.0  0.19115  0.24677  0.57078  1.0000
  C   C244      1.0  0.05257  0.42383  0.59945  1.0000
  C   C245      1.0  0.08738  0.46360  0.59625  1.0000
  S   S37       1.0  0.31551  0.12000  0.98632  1.0000
  H   H192      1.0  0.23170  0.19603  0.94754  1.0000
  C   C246      1.0  0.18674  0.48333  0.96022  1.0000
  H   H193      1.0  0.29218  0.10120  0.89168  1.0000
  C   C247      1.0  0.31992  0.17047  0.90488  1.0000
  C   C248      1.0  0.23101  0.99496  0.96025  1.0000
  H   H194      1.0  0.06697  0.40700  0.51001  1.0000
  C   C249      1.0  0.21197  0.45964  0.50035  1.0000
  H   H195      1.0  0.31622  0.25355  0.94517  1.0000
  H   H196      1.0  0.11684  0.45889  0.62688  1.0000
  H   H197      1.0  0.22560  0.12979  0.50286  1.0000
  C   C250      1.0  0.26178  0.25550  0.99008  1.0000
  H   H198      1.0  0.27792  0.47166  0.94977  1.0000
  C   C251      1.0  0.26588  0.47906  0.93088  1.0000
  H   H199      1.0  0.17377  0.48381  0.94099  1.0000
  C   C252      1.0  0.00239  0.38183  0.90171  1.0000
  C   C253      1.0  0.25784  0.20657  0.98235  1.0000
  C   C254      1.0  0.10700  0.47892  0.87739  1.0000
  H   H200      1.0  0.13777  0.48936  0.58697  1.0000
  C   C255      1.0  0.10476  0.47946  0.91551  1.0000
  H   H201      1.0  0.00536  0.43238  0.55400  1.0000
  C   C256      1.0  0.32235  0.03016  0.52616  1.0000
  C   C257      1.0  0.07766  0.47777  0.56731  1.0000
  H   H202      1.0  0.30689  0.03641  0.53751  1.0000
  H   H203      1.0  0.12721  0.40794  0.99171  1.0000
  S   S38       1.0  0.00990  0.57619  0.48627  1.0000
  Fe  Fe18      1.0  0.20316  0.62248  0.36170  1.0000
  S   S39       1.0  0.23269  0.60613  0.38990  1.0000
  S   S40       1.0  0.20966  0.63131  0.30051  1.0000
  Fe  Fe19      1.0  0.17786  0.62241  0.43444  1.0000
  C   C258      1.0  0.05601  0.53032  0.46035  1.0000
  H   H204      1.0  0.08576  0.49958  0.03028  1.0000
  Fe  Fe20      1.0  0.22553  0.63673  0.43428  1.0000
  S   S41       1.0  0.25159  0.66237  0.46199  1.0000
  Fe  Fe21      1.0  0.21054  0.57694  0.41908  1.0000
  S   S42       1.0  0.21594  0.53066  0.41648  1.0000
  S   S43       1.0  0.19720  0.65450  0.40485  1.0000
  S   S44       1.0  0.18132  0.59210  0.38905  1.0000
  H   H205      1.0  0.26797  0.80551  0.39768  1.0000
  H   H206      1.0  0.11413  0.58645  0.29480  1.0000
  Fe  Fe22      1.0  0.18032  0.61817  0.08495  1.0000
  S   S45       1.0  0.21489  0.61082  0.06871  1.0000
  S   S46       1.0  0.16594  0.61889  0.14348  1.0000
  Fe  Fe23      1.0  0.20934  0.64254  0.02404  1.0000
  C   C259      1.0  0.21378  0.50386  0.44960  1.0000
  Fe  Fe24      1.0  0.20252  0.57954  0.02963  1.0000
  H   H207      1.0  0.17849  0.56148  0.32012  1.0000
  S   S47       1.0  0.17507  0.65123  0.04215  1.0000
  S   S48       1.0  0.16833  0.58513  0.04837  1.0000
  H   H208      1.0  0.29343  0.72439  0.21474  1.0000
  C   C260      1.0  0.09869  0.51196  0.02008  1.0000
  C   C261      1.0  0.12174  0.62770  0.46856  1.0000
  H   H209      1.0  0.22082  0.56967  0.22806  1.0000
  C   C262      1.0  0.24926  0.57083  0.30622  1.0000
  H   H210      1.0  0.00333  0.62844  0.24940  1.0000
  C   C263      1.0  0.28173  0.76544  0.22062  1.0000
  C   C264      1.0  0.20903  0.50686  0.00358  1.0000
  C   C265      1.0  0.18996  0.54933  0.18589  1.0000
  C   C266      1.0  0.19463  0.52657  0.20791  1.0000
  C   C267      1.0  0.06622  0.50675  0.44765  1.0000
  H   H211      1.0  0.29076  0.77298  0.19720  1.0000
  H   H212      1.0  0.29456  0.95516  0.03145  1.0000
  H   H213      1.0  0.06438  0.54079  0.12375  1.0000
  C   C268      1.0  0.15463  0.50853  0.38102  1.0000
  C   C269      1.0  0.19705  0.62752  0.25727  1.0000
  C   C270      1.0  0.17512  0.62256  0.25399  1.0000
  C   C271      1.0  0.16590  0.62025  0.21908  1.0000
  C   C272      1.0  0.17844  0.62273  0.18684  1.0000
  C   C273      1.0  0.20039  0.62767  0.19014  1.0000
  C   C274      1.0  0.20953  0.63029  0.22505  1.0000
  H   H214      1.0  0.16521  0.62092  0.27834  1.0000
  H   H215      1.0  0.14892  0.61643  0.21704  1.0000
  H   H216      1.0  0.21031  0.62966  0.16577  1.0000
  H   H217      1.0  0.22647  0.63439  0.22709  1.0000
  H   H218      1.0  0.09991  0.56787  0.47765  1.0000
  H   H219      1.0  0.25158  0.59214  0.25474  1.0000
  H   H220      1.0  0.09937  0.56068  0.13825  1.0000
  C   C275      1.0  0.20585  0.50199  0.15340  1.0000
  C   C276      1.0  0.21385  0.54504  0.27616  1.0000
  C   C277      1.0  0.13180  0.54510  0.99490  1.0000
  C   C278      1.0  0.21999  0.53939  0.31231  1.0000
  H   H221      1.0  0.10892  0.60597  0.11387  1.0000
  H   H222      1.0  0.12185  0.63288  0.41014  1.0000
  H   H223      1.0  0.11507  0.57733  0.02305  1.0000
  C   C279      1.0  0.23775  0.55203  0.32704  1.0000
  H   H224      1.0  0.03897  0.57856  0.00557  1.0000
  C   C280      1.0  0.00744  0.58403  0.06759  1.0000
  C   C281      1.0  0.18865  0.49486  0.27697  1.0000
  S   S49       1.0  0.21794  0.53683  0.02545  1.0000
  C   C282      1.0  0.01708  0.53874  0.11435  1.0000
  H   H225      1.0  0.32433  0.87460  0.02099  1.0000
  C   C283      1.0  0.10083  0.52713  0.45677  1.0000
  H   H226      1.0  0.31309  0.98138  0.10733  1.0000
  C   C284      1.0  0.16269  0.72634  0.46113  1.0000
  H   H227      1.0  0.18406  0.56794  0.19805  1.0000
  H   H228      1.0  0.06018  0.57073  0.48061  1.0000
  C   C285      1.0  0.21102  0.50865  0.48703  1.0000
  C   C286      1.0  0.16203  0.75239  0.44532  1.0000
  C   C287      1.0  0.16102  0.75562  0.40734  1.0000
  C   C288      1.0  0.16023  0.73289  0.38498  1.0000
  C   C289      1.0  0.16031  0.70697  0.40064  1.0000
  H   H229      1.0  0.15008  0.53704  0.21910  1.0000
  C   C290      1.0  0.19322  0.54844  0.14805  1.0000
  C   C291      1.0  0.05895  0.60097  0.07797  1.0000
  C   C292      1.0  0.01193  0.52747  0.17876  1.0000
  C   C293      1.0  0.11201  0.63045  0.43451  1.0000
  H   H230      1.0  0.24233  0.54762  0.35497  1.0000
  C   C294      1.0  0.13367  0.50403  0.39357  1.0000
  H   H231      1.0  0.16042  0.77574  0.39527  1.0000
  H   H232      1.0  0.15921  0.73533  0.35559  1.0000
  H   H233      1.0  0.15910  0.68931  0.38353  1.0000
  H   H234      1.0  0.19968  0.75232  0.48744  1.0000
  H   H235      1.0  0.22747  0.71264  0.44262  1.0000
  P   P9        1.0  0.02854  0.56002  0.07888  1.0000
  H   H236      1.0  0.09928  0.69405  0.99510  1.0000
  C   C295      1.0  0.28326  0.73807  0.23054  1.0000
  C   C296      1.0  0.11544  0.50081  0.99865  1.0000
  H   H237      1.0  0.03866  0.53122  0.46282  1.0000
  C   C297      1.0  0.25654  0.77322  0.27064  1.0000
  C   C298      1.0  0.25823  0.74581  0.28112  1.0000
  C   C299      1.0  0.27150  0.72823  0.26057  1.0000
  P   P10       1.0  0.24180  0.73298  0.31833  1.0000
  C   C300      1.0  0.23850  0.75929  0.35208  1.0000
  C   C301      1.0  0.21627  0.72247  0.30090  1.0000
  C   C302      1.0  0.20976  0.73010  0.26561  1.0000
  C   C303      1.0  0.19115  0.71934  0.25094  1.0000
  C   C304      1.0  0.17895  0.70095  0.27134  1.0000
  C   C305      1.0  0.18507  0.69374  0.30673  1.0000
  C   C306      1.0  0.20358  0.70455  0.32158  1.0000
  C   C307      1.0  0.25636  0.77420  0.36268  1.0000
  C   C308      1.0  0.25402  0.79473  0.38853  1.0000
  C   C309      1.0  0.23381  0.80096  0.40343  1.0000
  C   C310      1.0  0.21592  0.78637  0.39289  1.0000
  C   C311      1.0  0.21823  0.76549  0.36745  1.0000
  C   C312      1.0  0.25491  0.70345  0.33818  1.0000
  C   C313      1.0  0.26755  0.70538  0.36950  1.0000
  C   C314      1.0  0.27738  0.68222  0.38443  1.0000
  C   C315      1.0  0.27438  0.65692  0.36875  1.0000
  C   C316      1.0  0.26190  0.65482  0.33756  1.0000
  C   C317      1.0  0.25230  0.67795  0.32223  1.0000
  H   H238      1.0  0.03123  0.56027  0.15910  1.0000
  C   C318      1.0  0.20118  0.52479  0.13177  1.0000
  H   H239      1.0  0.16125  0.68345  0.45027  1.0000
  H   H240      1.0  0.24596  0.78702  0.28542  1.0000
  H   H241      1.0  0.27272  0.70690  0.26740  1.0000
  H   H242      1.0  0.21928  0.74364  0.24884  1.0000
  H   H243      1.0  0.18656  0.72457  0.22327  1.0000
  H   H244      1.0  0.16509  0.69169  0.25937  1.0000
  H   H245      1.0  0.17613  0.67862  0.32194  1.0000
  H   H246      1.0  0.20856  0.69793  0.34852  1.0000
  H   H247      1.0  0.27218  0.76966  0.35141  1.0000
  C   C319      1.0  0.27903  0.99052  0.49117  1.0000
  H   H248      1.0  0.23221  0.81656  0.42400  1.0000
  H   H249      1.0  0.20035  0.79098  0.40501  1.0000
  H   H250      1.0  0.20425  0.75425  0.35999  1.0000
  H   H251      1.0  0.26960  0.72444  0.38313  1.0000
  H   H252      1.0  0.28664  0.68369  0.40916  1.0000
  H   H253      1.0  0.28129  0.63891  0.38138  1.0000
  H   H254      1.0  0.25913  0.63518  0.32571  1.0000
  H   H255      1.0  0.24254  0.67574  0.29820  1.0000
  H   H256      1.0  0.03579  0.50162  0.06242  1.0000
  C   C320      1.0  0.06813  0.55245  0.47071  1.0000
  C   C321      1.0  0.22546  0.56412  0.25549  1.0000
  S   S50       1.0  0.20608  0.60572  0.46583  1.0000
  H   H257      1.0  0.11693  0.56229  0.23570  1.0000
  H   H258      1.0  0.26702  0.80417  0.23273  1.0000
  H   H259      1.0  0.27403  0.70664  0.00924  1.0000
  H   H260      1.0  0.08525  0.54824  0.04411  1.0000
  C   C322      1.0  0.29748  0.96599  0.00607  1.0000
  C   C323      1.0  0.00512  0.60847  0.08661  1.0000
  H   H261      1.0  0.08195  0.63409  0.40599  1.0000
  H   H262      1.0  0.08333  0.63149  0.07475  1.0000
  S   S51       1.0  0.26791  0.78950  0.49114  1.0000
  C   C324      1.0  0.08943  0.63121  0.43226  1.0000
  C   C325      1.0  0.09054  0.55082  0.46903  1.0000
  Fe  Fe25      1.0  0.16613  0.61729  0.00460  1.0000
  C   C326      1.0  0.11507  0.55605  0.01612  1.0000
  H   H263      1.0  0.27068  0.62664  0.01912  1.0000
  C   C327      1.0  0.13033  0.56184  0.25421  1.0000
  H   H264      1.0  0.11044  0.63358  0.01278  1.0000
  C   C328      1.0  0.26836  0.78300  0.24065  1.0000
  H   H265      1.0  0.20391  0.52427  0.10241  1.0000
  C   C329      1.0  0.08872  0.50519  0.44491  1.0000
  C   C330      1.0  0.30145  0.95235  0.47087  1.0000
  C   C331      1.0  0.03836  0.51362  0.03792  1.0000
  H   H266      1.0  0.07053  0.63678  0.01045  1.0000
  S   S52       1.0  0.31044  0.91772  0.47310  1.0000
  C   C332      1.0  0.16515  0.56134  0.30154  1.0000
  H   H267      1.0  0.21098  0.52549  0.32948  1.0000
  H   H268      1.0  0.12164  0.51986  0.38991  1.0000
  C   C333      1.0  0.16160  0.70368  0.43855  1.0000
  H   H269      1.0  0.26268  0.58107  0.31807  1.0000
  H   H270      1.0  0.15883  0.52786  0.36888  1.0000
  C   C334      1.0  0.31002  0.96941  0.44336  1.0000
  H   H271      1.0  0.04836  0.61197  0.05961  1.0000
  C   C335      1.0  0.24308  0.57693  0.27051  1.0000
  P   P11       1.0  0.19098  0.52838  0.25703  1.0000
  H   H272      1.0  0.01624  0.61352  0.10784  1.0000
  H   H273      1.0  0.18978  0.56625  0.13138  1.0000
  H   H274      1.0  0.01523  0.53125  0.20722  1.0000
  C   C336      1.0  0.14608  0.57500  0.31123  1.0000
  H   H275      1.0  0.06361  0.71478  0.00969  1.0000
  C   C337      1.0  0.05316  0.57563  0.09248  1.0000
  C   C338      1.0  0.14926  0.54782  0.24470  1.0000
  C   C339      1.0  0.09334  0.59755  0.10806  1.0000
  C   C340      1.0  0.08790  0.57206  0.12192  1.0000
  S   S53       1.0  0.04819  0.63138  0.46029  1.0000
  H   H276      1.0  0.24262  0.96878  0.04448  1.0000
  C   C341      1.0  0.12874  0.57544  0.28747  1.0000
  C   C342      1.0  0.09841  0.53955  0.02835  1.0000
  C   C343      1.0  0.24151  0.71817  0.45771  1.0000
  C   C344      1.0  0.02114  0.54371  0.15134  1.0000
  C   C345      1.0  0.04031  0.55667  0.00587  1.0000
  H   H277      1.0  0.14488  0.58564  0.33695  1.0000
  C   C346      1.0  0.06797  0.56102  0.11397  1.0000
  C   C347      1.0  0.04391  0.50035  0.00555  1.0000
  C   C348      1.0  0.07645  0.62860  0.46386  1.0000
  C   C349      1.0  0.16698  0.54787  0.26804  1.0000
  S   S54       1.0  0.14983  0.62991  0.47391  1.0000
  C   C350      1.0  0.07888  0.61197  0.08608  1.0000
  H   H278      1.0  0.11820  0.52596  0.45709  1.0000
  C   C351      1.0  0.03585  0.54190  0.03797  1.0000
  C   C352      1.0  0.25569  0.69785  0.47003  1.0000
  H   H279      1.0  0.16189  0.77020  0.46237  1.0000
  S   S55       1.0  0.23552  0.67486  0.01287  1.0000
  C   C353      1.0  0.20262  0.50284  0.19134  1.0000
  H   H280      1.0  0.25941  0.57860  0.02051  1.0000
  H   H281      1.0  0.00735  0.62059  0.41847  1.0000
  C   C354      1.0  0.24065  0.97007  0.01521  1.0000
  C   C355      1.0  0.00268  0.51833  0.10544  1.0000
  C   C356      1.0  0.25943  0.58997  0.99498  1.0000
  C   C357      1.0  0.27400  0.70587  0.48921  1.0000
  H   H282      1.0  0.25184  0.92895  0.00709  1.0000
  C   C358      1.0  0.24574  0.94734  0.99416  1.0000
  H   H283      1.0  0.32150  0.96117  0.42390  1.0000
  H   H284      1.0  0.23429  0.76103  0.45536  1.0000
  C   C359      1.0  0.24555  0.74578  0.46469  1.0000
  C   C360      1.0  0.99832  0.50647  0.16948  1.0000
  H   H285      1.0  0.07407  0.49695  0.37166  1.0000
  H   H286      1.0  0.18673  0.49211  0.37590  1.0000
  S   S56       1.0  0.31859  0.84127  0.48542  1.0000
  C   C361      1.0  0.26391  0.75389  0.48358  1.0000
  H   H287      1.0  0.99844  0.51485  0.07728  1.0000
  H   H288      1.0  0.15389  0.49620  0.28176  1.0000
  C   C362      1.0  0.26589  0.61692  0.99415  1.0000
  C   C363      1.0  0.26213  0.71752  0.99334  1.0000
  C   C364      1.0  0.08697  0.69522  0.97449  1.0000
  C   C365      1.0  0.29868  0.77213  0.72869  1.0000
  C   C366      1.0  0.24605  0.53053  0.80815  1.0000
  H   H289      1.0  0.31162  0.78056  0.81821  1.0000
  H   H290      1.0  0.13753  0.51866  0.89347  1.0000
  S   S57       1.0  0.03426  0.59740  0.55965  1.0000
  H   H291      1.0  0.10682  0.67600  0.93333  1.0000
  C   C367      1.0  0.17226  0.64894  0.56117  1.0000
  H   H292      1.0  0.20035  0.62296  0.55751  1.0000
  Fe  Fe26      1.0  0.29226  0.81924  0.51651  1.0000
  S   S58       1.0  0.99451  0.63339  0.52246  1.0000
  H   H293      1.0  0.05625  0.61428  0.82698  1.0000
  Fe  Fe27      1.0  0.30074  0.85169  0.58712  1.0000
  S   S59       1.0  0.28661  0.85619  0.64552  1.0000
  C   C368      1.0  0.09801  0.70272  0.51580  1.0000
  S   S60       1.0  0.27872  0.85882  0.53892  1.0000
  Fe  Fe28      1.0  0.00966  0.58739  0.83493  1.0000
  H   H294      1.0  0.31991  0.98894  0.54539  1.0000
  H   H295      1.0  0.03611  0.81189  0.84761  1.0000
  H   H296      1.0  0.22489  0.52495  0.92648  1.0000
  Fe  Fe29      1.0  0.01893  0.60281  0.91457  1.0000
  S   S61       1.0  0.04013  0.62302  0.95617  1.0000
  S   S62       1.0  0.03074  0.56949  0.87846  1.0000
  H   H297      1.0  0.04879  0.51442  0.87306  1.0000
  Fe  Fe30      1.0  0.31478  0.84853  0.86678  1.0000
  S   S63       1.0  0.28252  0.85806  0.89347  1.0000
  C   C369      1.0  0.28598  0.96319  0.49496  1.0000
  H   H298      1.0  0.05789  0.53202  0.81109  1.0000
  Fe  Fe31      1.0  0.28704  0.81823  0.92491  1.0000
  S   S64       1.0  0.25887  0.78791  0.93094  1.0000
  Fe  Fe32      1.0  0.30154  0.87820  0.93796  1.0000
  S   S65       1.0  0.32676  0.85222  0.80674  1.0000
  H   H299      1.0  0.20290  0.69619  0.49384  1.0000
  C   C370      1.0  0.08938  0.49595  0.54584  1.0000
  C   C371      1.0  0.18611  0.77171  0.58757  1.0000
  C   C372      1.0  0.05103  0.63513  0.82286  1.0000
  H   H300      1.0  0.29153  0.71668  0.73951  1.0000
  C   C373      1.0  0.03149  0.49967  0.70178  1.0000
  C   C374      1.0  0.00805  0.69029  0.90204  1.0000
  C   C375      1.0  0.00127  0.61836  0.67158  1.0000
  C   C376      1.0  0.23649  0.97230  0.93924  1.0000
  H   H301      1.0  0.06459  0.73215  0.84349  1.0000
  H   H302      1.0  0.05552  0.52935  0.68922  1.0000
  C   C377      1.0  0.10208  0.62619  0.98928  1.0000
  H   H303      1.0  0.09220  0.49194  0.92782  1.0000
  Fe  Fe33      1.0  0.30652  0.88031  0.51126  1.0000
  C   C378      1.0  0.24393  0.94853  0.95620  1.0000
  Fe  Fe34      1.0  0.02590  0.61397  0.50405  1.0000
  C   C379      1.0  0.10273  0.60704  0.92875  1.0000
  C   C380      1.0  0.08013  0.60816  0.92783  1.0000
  C   C381      1.0  0.06842  0.61896  0.95729  1.0000
  C   C382      1.0  0.08623  0.62508  0.49773  1.0000
  H   H304      1.0  0.07184  0.60139  0.90394  1.0000
  C   C383      1.0  0.29819  0.85535  0.69006  1.0000
  H   H305      1.0  0.00610  0.79430  0.88583  1.0000
  H   H306      1.0  0.06538  0.78075  0.82672  1.0000
  H   H307      1.0  0.05153  0.50468  0.94817  1.0000
  C   C384      1.0  0.29292  0.85608  0.75692  1.0000
  C   C385      1.0  0.28458  0.85687  0.72113  1.0000
  C   C386      1.0  0.07533  0.68611  0.91305  1.0000
  S   S66       1.0  0.02491  0.58037  0.77897  1.0000
  H   H308      1.0  0.28218  0.85725  0.78035  1.0000
  H   H309      1.0  0.26742  0.85863  0.71749  1.0000
  C   C387      1.0  0.25208  0.57804  0.96321  1.0000
  H   H310      1.0  0.04913  0.63134  0.76442  1.0000
  C   C388      1.0  0.32037  0.85341  0.69539  1.0000
  H   H311      1.0  0.16360  0.63535  0.57926  1.0000
  C   C389      1.0  0.10876  0.62502  0.50008  1.0000
  C   C390      1.0  0.02310  0.58539  0.70465  1.0000
  C   C391      1.0  0.01623  0.59694  0.67146  1.0000
  H   H312      1.0  0.03504  0.56929  0.70437  1.0000
  H   H313      1.0  0.02283  0.58968  0.64580  1.0000
  C   C392      1.0  0.01485  0.59480  0.73817  1.0000
  C   C393      1.0  0.03920  0.67114  0.78218  1.0000
  C   C394      1.0  0.03581  0.68818  0.81209  1.0000
  H   H314      1.0  0.04952  0.55501  0.94914  1.0000
  S   S67       1.0  0.31295  0.81155  0.56577  1.0000
  C   C395      1.0  0.01873  0.78063  0.87630  1.0000
  H   H315      1.0  0.28367  0.75022  0.97886  1.0000
  C   C396      1.0  0.30223  0.78141  0.79351  1.0000
  C   C397      1.0  0.19294  0.64194  0.54894  1.0000
  C   C398      1.0  0.05137  0.50049  0.85071  1.0000
  C   C399      1.0  0.04755  0.65204  0.85285  1.0000
  P   P12       1.0  0.30912  0.75617  0.68761  1.0000
  C   C400      1.0  0.04692  0.64470  0.78755  1.0000
  H   H316      1.0  0.05000  0.64399  0.88016  1.0000
  C   C401      1.0  0.01816  0.75312  0.88578  1.0000
  H   H317      1.0  0.03541  0.67815  0.75481  1.0000
  C   C402      1.0  0.05987  0.49228  0.78710  1.0000
  S   S68       1.0  0.14228  0.61585  0.95785  1.0000
  H   H318      1.0  0.30349  0.95504  0.91504  1.0000
  H   H319      1.0  0.11166  0.59941  0.90536  1.0000
  C   C403      1.0  0.04029  0.67886  0.84765  1.0000
  H   H320      1.0  0.27619  0.80391  0.81874  1.0000
  C   C404      1.0  0.19529  0.75822  0.51498  1.0000
  H   H321      1.0  0.29475  0.59799  0.76214  1.0000
  H   H322      1.0  0.29229  0.73916  0.51057  1.0000
  H   H323      1.0  0.08830  0.68574  0.50793  1.0000
  H   H324      1.0  0.14243  0.56448  0.91844  1.0000
  H   H325      1.0  0.02926  0.70833  0.80739  1.0000
  H   H326      1.0  0.27098  0.54633  0.77296  1.0000
  C   C405      1.0  0.04779  0.51511  0.97342  1.0000
  C   C406      1.0  0.25191  0.50015  0.94107  1.0000
  C   C407      1.0  0.26485  0.63202  0.96166  1.0000
  C   C408      1.0  0.25760  0.62013  0.92955  1.0000
  C   C409      1.0  0.25111  0.59301  0.93062  1.0000
  P   P13       1.0  0.25281  0.64026  0.88896  1.0000
  C   C410      1.0  0.26444  0.67346  0.89114  1.0000
  C   C411      1.0  0.26508  0.62534  0.84888  1.0000
  C   C412      1.0  0.26067  0.63654  0.81432  1.0000
  C   C413      1.0  0.27123  0.62658  0.78312  1.0000
  C   C414      1.0  0.28642  0.60556  0.78627  1.0000
  C   C415      1.0  0.29099  0.59440  0.82062  1.0000
  C   C416      1.0  0.28046  0.60432  0.85188  1.0000
  C   C417      1.0  0.25261  0.69673  0.88083  1.0000
  C   C418      1.0  0.26221  0.72214  0.88072  1.0000
  C   C419      1.0  0.28359  0.72456  0.89096  1.0000
  C   C420      1.0  0.29556  0.70150  0.90075  1.0000
  C   C421      1.0  0.28611  0.67599  0.90042  1.0000
  C   C422      1.0  0.22395  0.64231  0.88624  1.0000
  C   C423      1.0  0.21285  0.62726  0.86041  1.0000
  C   C424      1.0  0.19037  0.62748  0.86070  1.0000
  C   C425      1.0  0.17889  0.64235  0.88703  1.0000
  C   C426      1.0  0.18985  0.65707  0.91302  1.0000
  C   C427      1.0  0.21229  0.65695  0.91278  1.0000
  C   C428      1.0  0.19099  0.52535  0.87492  1.0000
  Fe  Fe35      1.0  0.00156  0.61334  0.57699  1.0000
  C   C429      1.0  0.25428  0.54815  0.78146  1.0000
  H   H327      1.0  0.26866  0.65332  0.96244  1.0000
  H   H328      1.0  0.24460  0.58376  0.90660  1.0000
  H   H329      1.0  0.24930  0.65330  0.81167  1.0000
  H   H330      1.0  0.26778  0.63540  0.75655  1.0000
  H   H331      1.0  0.13243  0.76435  0.54123  1.0000
  C   C430      1.0  0.11109  0.49994  0.55262  1.0000
  H   H332      1.0  0.28472  0.59598  0.87832  1.0000
  H   H333      1.0  0.23599  0.69549  0.87304  1.0000
  H   H334      1.0  0.25290  0.74022  0.87397  1.0000
  H   H335      1.0  0.29065  0.74448  0.89222  1.0000
  C   C431      1.0  0.25260  0.75694  0.95526  1.0000
  H   H336      1.0  0.29564  0.65828  0.90786  1.0000
  H   H337      1.0  0.22144  0.61489  0.84064  1.0000
  H   H338      1.0  0.18178  0.61568  0.84106  1.0000
  H   H339      1.0  0.16148  0.64198  0.88797  1.0000
  H   H340      1.0  0.18097  0.66795  0.93412  1.0000
  H   H341      1.0  0.22058  0.66770  0.93393  1.0000
  C   C432      1.0  0.09123  0.68505  0.93962  1.0000
  H   H342      1.0  0.22255  0.78432  0.51960  1.0000
  C   C433      1.0  0.05091  0.70786  0.95617  1.0000
  P   P14       1.0  0.21320  0.50861  0.85150  1.0000
  C   C434      1.0  0.05658  0.51035  0.81584  1.0000
  H   H343      1.0  0.07923  0.67855  0.88611  1.0000
  H   H344      1.0  0.30292  0.67036  0.75733  1.0000
  H   H345      1.0  0.21417  0.79672  0.58368  1.0000
  C   C435      1.0  0.23374  0.49724  0.88294  1.0000
  C   C436      1.0  0.19415  0.68320  0.51262  1.0000
  H   H346      1.0  0.25311  0.50895  0.96797  1.0000
  C   C437      1.0  0.21103  0.55216  0.80241  1.0000
  C   C438      1.0  0.21936  0.56988  0.77593  1.0000
  C   C439      1.0  0.24095  0.56779  0.76534  1.0000
  H   H347      1.0  0.21032  0.71342  0.96683  1.0000
  C   C440      1.0  0.20846  0.77612  0.53329  1.0000
  H   H348      1.0  0.32583  0.75973  0.76161  1.0000
  C   C441      1.0  0.15320  0.52773  0.89219  1.0000
  C   C442      1.0  0.15597  0.55352  0.90645  1.0000
  C   C443      1.0  0.17621  0.56520  0.90544  1.0000
  C   C444      1.0  0.19364  0.55131  0.88947  1.0000
  Fe  Fe36      1.0  0.01602  0.56090  0.54281  1.0000
  S   S69       1.0  0.02899  0.51831  0.54814  1.0000
  H   H349      1.0  0.08138  0.50720  0.52432  1.0000
  C   C445      1.0  0.31747  0.72213  0.70015  1.0000
  H   H350      1.0  0.19411  0.55362  0.80953  1.0000
  H   H351      1.0  0.20896  0.58492  0.76314  1.0000
  H   H352      1.0  0.24728  0.58120  0.74433  1.0000
  H   H353      1.0  0.28519  0.69051  0.49888  1.0000
  C   C446      1.0  0.24141  0.70664  0.99032  1.0000
  C   C447      1.0  0.05039  0.50876  0.68509  1.0000
  C   C448      1.0  0.11382  0.61605  0.95941  1.0000
  C   C449      1.0  0.07949  0.62785  0.98800  1.0000
  H   H354      1.0  0.17832  0.58508  0.91706  1.0000
  H   H355      1.0  0.20914  0.56091  0.88833  1.0000
  S   S70       1.0  0.30333  0.83918  0.97089  1.0000
  H   H356      1.0  0.00707  0.54000  0.64954  1.0000
  C   C450      1.0  0.17061  0.51363  0.87648  1.0000
  H   H357      1.0  0.18282  0.77658  0.61592  1.0000
  C   C451      1.0  0.26766  0.74241  0.97617  1.0000
  H   H358      1.0  0.03552  0.71725  0.96276  1.0000
  C   C452      1.0  0.30557  0.70756  0.72644  1.0000
  H   H359      1.0  0.00514  0.74594  0.90303  1.0000
  H   H360      1.0  0.22005  0.75683  0.93610  1.0000
  H   H361      1.0  0.20063  0.49939  0.77496  1.0000
  H   H362      1.0  0.18366  0.52605  0.97308  1.0000
  C   C453      1.0  0.31033  0.76997  0.76124  1.0000
  C   C454      1.0  0.08835  0.72557  0.53162  1.0000
  H   H363      1.0  0.09329  0.76553  0.55264  1.0000
  C   C455      1.0  0.05484  0.69696  0.92138  1.0000
  H   H364      1.0  0.16807  0.49362  0.86576  1.0000
  C   C456      1.0  0.27857  0.78547  0.72924  1.0000
  C   C457      1.0  0.27037  0.79650  0.76176  1.0000
  C   C458      1.0  0.28224  0.79460  0.79382  1.0000
  C   C459      1.0  0.04632  0.54334  0.97377  1.0000
  C   C460      1.0  0.17703  0.74752  0.53249  1.0000
  C   C461      1.0  0.28949  0.75543  0.65169  1.0000
  C   C462      1.0  0.28221  0.73080  0.63795  1.0000
  C   C463      1.0  0.26867  0.73069  0.60771  1.0000
  C   C464      1.0  0.26225  0.75509  0.59115  1.0000
  C   C465      1.0  0.26919  0.77964  0.60500  1.0000
  C   C466      1.0  0.28287  0.77980  0.63494  1.0000
  C   C467      1.0  0.16257  0.67320  0.54944  1.0000
  P   P15       1.0  0.03456  0.70002  0.88667  1.0000
  C   C468      1.0  0.23191  0.74600  0.95215  1.0000
  H   H365      1.0  0.22004  0.65385  0.51587  1.0000
  H   H366      1.0  0.24869  0.93109  0.93999  1.0000
  S   S71       1.0  0.00541  0.50282  0.90373  1.0000
  C   C469      1.0  0.31507  0.85369  0.76226  1.0000
  H   H367      1.0  0.11617  0.62313  0.52656  1.0000
  H   H368      1.0  0.31206  0.70353  0.90911  1.0000
  H   H369      1.0  0.15976  0.74437  0.58408  1.0000
  H   H370      1.0  0.26919  0.78767  0.70477  1.0000
  H   H371      1.0  0.25509  0.80731  0.76186  1.0000
  C   C470      1.0  0.22434  0.53238  0.81882  1.0000
  C   C471      1.0  0.01298  0.49842  0.52056  1.0000
  C   C472      1.0  0.06263  0.49145  0.66271  1.0000
  H   H372      1.0  0.02199  0.51327  0.71895  1.0000
  H   H373      1.0  0.26349  0.71168  0.59650  1.0000
  H   H374      1.0  0.25227  0.75500  0.56710  1.0000
  H   H375      1.0  0.26456  0.79860  0.59180  1.0000
  H   H376      1.0  0.28876  0.79895  0.64451  1.0000
  C   C473      1.0  0.30250  0.96581  0.94060  1.0000
  C   C474      1.0  0.05211  0.77300  0.84299  1.0000
  C   C475      1.0  0.03565  0.79055  0.85482  1.0000
  H   H377      1.0  0.01795  0.67268  0.95374  1.0000
  H   H378      1.0  0.28734  0.71165  0.64979  1.0000
  C   C476      1.0  0.03439  0.73526  0.87326  1.0000
  C   C477      1.0  0.05158  0.74548  0.85239  1.0000
  C   C478      1.0  0.06685  0.70673  0.98272  1.0000
  C   C479      1.0  0.20381  0.78300  0.56950  1.0000
  S   S72       1.0  0.29464  0.91552  0.97438  1.0000
  S   S73       1.0  0.99986  0.62326  0.86959  1.0000
  C   C480      1.0  0.00474  0.67696  0.93569  1.0000
  H   H379      1.0  0.12018  0.51396  0.53575  1.0000
  P   P16       1.0  0.16149  0.72216  0.51011  1.0000
  S   S74       1.0  0.31834  0.80808  0.89597  1.0000
  H   H380      1.0  0.27905  0.95040  0.51606  1.0000
  C   C481      1.0  0.12021  0.70177  0.50974  1.0000
  C   C482      1.0  0.27811  0.73357  0.49589  1.0000
  C   C483      1.0  0.12313  0.74676  0.53487  1.0000
  H   H381      1.0  0.14483  0.50953  0.96909  1.0000
  H   H382      1.0  0.25661  0.51527  0.81990  1.0000
  S   S75       1.0  0.20013  0.61029  0.98407  1.0000
  C   C484      1.0  0.10088  0.74764  0.54097  1.0000
  C   C485      1.0  0.20397  0.65926  0.52513  1.0000
  H   H383      1.0  0.23519  0.97317  0.90977  1.0000
  H   H384      1.0  0.14669  0.67833  0.55978  1.0000
  C   C486      1.0  0.19219  0.50723  0.97867  1.0000
  H   H385      1.0  0.07111  0.72624  0.53621  1.0000
  C   C487      1.0  0.17292  0.75374  0.56931  1.0000
  C   C488      1.0  0.13302  0.72352  0.52001  1.0000
  H   H386      1.0  0.07644  0.62324  0.52226  1.0000
  C   C489      1.0  0.22633  0.72119  0.96949  1.0000
  C   C490      1.0  0.29893  0.95136  0.97317  1.0000
  H   H387      1.0  0.30293  0.57829  0.82315  1.0000
  H   H388      1.0  0.07710  0.49910  0.64982  1.0000
  H   H389      1.0  0.12739  0.68401  0.49694  1.0000
  H   H390      1.0  0.24631  0.55752  0.96444  1.0000
  C   C491      1.0  0.31188  0.68122  0.73643  1.0000
  C   C492      1.0  0.17329  0.69024  0.52443  1.0000
  H   H391      1.0  0.00813  0.49763  0.61419  1.0000
  C   C493      1.0  0.13185  0.51768  0.98578  1.0000
  Fe  Fe37      1.0  0.00140  0.54765  0.89702  1.0000
  C   C494      1.0  0.99963  0.61595  0.73837  1.0000
  H   H392      1.0  0.14476  0.55795  0.98557  1.0000
  C   C495      1.0  0.23586  0.50920  0.91731  1.0000
  H   H393      1.0  0.06428  0.49995  0.76025  1.0000
  H   H394      1.0  0.20986  0.52926  0.49668  1.0000
  S   S76       1.0  0.32733  0.87583  0.56093  1.0000
  S   S77       1.0  0.63000  0.10801  0.39249  1.0000
  H   H395      1.0  0.58932  0.15618  0.36346  1.0000
  H   H396      1.0  0.35407  0.20278  0.21257  1.0000
  H   H397      1.0  0.50988  0.12702  0.04020  1.0000
  C   C496      1.0  0.58408  0.29821  0.37097  1.0000
  H   H398      1.0  0.36780  0.01299  0.30039  1.0000
  C   C497      1.0  0.61160  0.26535  0.38804  1.0000
  C   C498      1.0  0.59221  0.10107  0.43049  1.0000
  H   H399      1.0  0.55756  0.13110  0.38408  1.0000
  S   S78       1.0  0.35852  0.11882  0.48678  1.0000
  C   C499      1.0  0.37743  0.26796  0.28904  1.0000
  H   H400      1.0  0.64074  0.03935  0.00310  1.0000
  H   H401      1.0  0.61543  0.30861  0.39000  1.0000
  C   C500      1.0  0.64959  0.06216  0.29092  1.0000
  C   C501      1.0  0.32781  0.20720  0.02162  1.0000
  C   C502      1.0  0.61236  0.11347  0.42999  1.0000
  H   H402      1.0  0.39077  0.12951  0.35526  1.0000
  C   C503      1.0  0.53529  0.99376  0.44873  1.0000
  H   H403      1.0  0.62205  0.02130  0.29401  1.0000
  H   H404      1.0  0.37780  0.30485  0.25704  1.0000
  C   C504      1.0  0.39443  0.10880  0.44251  1.0000
  C   C505      1.0  0.41681  0.10606  0.43661  1.0000
  H   H405      1.0  0.38354  0.10748  0.41989  1.0000
  H   H406      1.0  0.42307  0.10264  0.40931  1.0000
  C   C506      1.0  0.59777  0.24408  0.38011  1.0000
  H   H407      1.0  0.56568  0.03971  0.05339  1.0000
  C   C507      1.0  0.61744  0.13119  0.45793  1.0000
  Fe  Fe38      1.0  0.33114  0.11644  0.44657  1.0000
  C   C508      1.0  0.38037  0.14423  0.34186  1.0000
  H   H408      1.0  0.36107  0.05358  0.36084  1.0000
  H   H409      1.0  0.34424  0.99431  0.34938  1.0000
  C   C509      1.0  0.44033  0.02347  0.01986  1.0000
  C   C510      1.0  0.60199  0.13768  0.48503  1.0000
  H   H410      1.0  0.47769  0.02483  0.07759  1.0000
  C   C511      1.0  0.42905  0.04482  0.03701  1.0000
  H   H411      1.0  0.61993  0.05313  0.44106  1.0000
  P   P17       1.0  0.43923  0.05993  0.07816  1.0000
  C   C512      1.0  0.41773  0.07990  0.09884  1.0000
  H   H412      1.0  0.39573  0.04649  0.10239  1.0000
  C   C513      1.0  0.37483  0.04540  0.37534  1.0000
  H   H413      1.0  0.34661  0.19682  0.36220  1.0000
  H   H414      1.0  0.61861  0.00783  0.10493  1.0000
  H   H415      1.0  0.37882  0.00871  0.03926  1.0000
  C   C514      1.0  0.63484  0.01415  0.09895  1.0000
  C   C515      1.0  0.42000  0.10782  0.10435  1.0000
  C   C516      1.0  0.40277  0.12334  0.11815  1.0000
  C   C517      1.0  0.38322  0.11116  0.12666  1.0000
  C   C518      1.0  0.38084  0.08340  0.12143  1.0000
  C   C519      1.0  0.39796  0.06784  0.10730  1.0000
  C   C520      1.0  0.46151  0.08138  0.06618  1.0000
  C   C521      1.0  0.46291  0.09357  0.03146  1.0000
  C   C522      1.0  0.48016  0.11031  0.02248  1.0000
  C   C523      1.0  0.49626  0.11462  0.04779  1.0000
  C   C524      1.0  0.49485  0.10282  0.08259  1.0000
  C   C525      1.0  0.47743  0.08647  0.09192  1.0000
  C   C526      1.0  0.63332  0.09738  0.25350  1.0000
  C   C527      1.0  0.57032  0.27716  0.36260  1.0000
  C   C528      1.0  0.62816  0.20693  0.41722  1.0000
  C   C529      1.0  0.62429  0.20001  0.45402  1.0000
  C   C530      1.0  0.63879  0.08710  0.28791  1.0000
  C   C531      1.0  0.57651  0.00327  0.47514  1.0000
  H   H416      1.0  0.46379  0.00808  0.46258  1.0000
  C   C532      1.0  0.64465  0.03198  0.12273  1.0000
  C   C533      1.0  0.36966  0.28596  0.26242  1.0000
  C   C534      1.0  0.41331  0.03996  0.38101  1.0000
  H   H417      1.0  0.43478  0.11790  0.09714  1.0000
  H   H418      1.0  0.40437  0.14501  0.12119  1.0000
  H   H419      1.0  0.36972  0.12336  0.13641  1.0000
  H   H420      1.0  0.36552  0.07418  0.12756  1.0000
  H   H421      1.0  0.56132  0.09787  0.45785  1.0000
  H   H422      1.0  0.56993  0.04522  0.46053  1.0000
  H   H423      1.0  0.45520  0.01557  0.03071  1.0000
  C   C535      1.0  0.57043  0.19968  0.42878  1.0000
  C   C536      1.0  0.62433  0.03375  0.42936  1.0000
  H   H424      1.0  0.47651  0.07771  0.11913  1.0000
  H   H425      1.0  0.63464  0.09838  0.31237  1.0000
  H   H426      1.0  0.62508  0.11679  0.25113  1.0000
  C   C537      1.0  0.36419  0.16248  0.28679  1.0000
  H   H427      1.0  0.36233  0.16147  0.25755  1.0000
  C   C538      1.0  0.39559  0.05056  0.36239  1.0000
  H   H428      1.0  0.63572  0.03987  0.14596  1.0000
  C   C539      1.0  0.54323  0.02005  0.44865  1.0000
  C   C540      1.0  0.37795  0.14378  0.30396  1.0000
  C   C541      1.0  0.55263  0.18497  0.44080  1.0000
  C   C542      1.0  0.36911  0.16349  0.36262  1.0000
  C   C543      1.0  0.41031  0.02451  0.41289  1.0000
  H   H429      1.0  0.42425  0.01654  0.42708  1.0000
  H   H430      1.0  0.39790  0.06290  0.33804  1.0000
  H   H431      1.0  0.37316  0.23006  0.31701  1.0000
  C   C544      1.0  0.62568  0.99988  0.29228  1.0000
  H   H432      1.0  0.39158  0.27292  0.30432  1.0000
  Fe  Fe39      1.0  0.33639  0.12348  0.03519  1.0000
  C   C545      1.0  0.38627  0.11367  0.47773  1.0000
  H   H433      1.0  0.54273  0.19226  0.46335  1.0000
  H   H434      1.0  0.37080  0.16360  0.39209  1.0000
  C   C546      1.0  0.35531  0.18219  0.34555  1.0000
  C   C547      1.0  0.50041  0.00261  0.00761  1.0000
  H   H435      1.0  0.53333  0.03677  0.43881  1.0000
  C   C548      1.0  0.44637  0.00911  0.16742  1.0000
  H   H436      1.0  0.60831  0.19556  0.46392  1.0000
  H   H437      1.0  0.42942  0.04416  0.37119  1.0000
  C   C549      1.0  0.38952  0.02027  0.42697  1.0000
  C   C550      1.0  0.57696  0.10702  0.45814  1.0000
  H   H438      1.0  0.65418  0.04716  0.20050  1.0000
  H   H439      1.0  0.50731  0.10631  0.10223  1.0000
  S   S79       1.0  0.37223  0.13154  0.03330  1.0000
  H   H440      1.0  0.56633  0.23412  0.36012  1.0000
  C   C551      1.0  0.56099  0.15047  0.39615  1.0000
  H   H441      1.0  0.55434  0.28174  0.35268  1.0000
  C   C552      1.0  0.60472  0.29229  0.38361  1.0000
  C   C553      1.0  0.33090  0.18467  0.17799  1.0000
  C   C554      1.0  0.63368  0.17709  0.27529  1.0000
  H   H442      1.0  0.41786  0.12860  0.02189  1.0000
  C   C555      1.0  0.35258  0.18167  0.30749  1.0000
  H   H443      1.0  0.57388  0.21869  0.44178  1.0000
  H   H444      1.0  0.38640  0.12856  0.28795  1.0000
  C   C556      1.0  0.64135  0.00875  0.38001  1.0000
  C   C557      1.0  0.46848  0.02034  0.10217  1.0000
  P   P18       1.0  0.60361  0.00936  0.48920  1.0000
  C   C558      1.0  0.37177  0.03005  0.40729  1.0000
  C   C559      1.0  0.33817  0.19432  0.21134  1.0000
  C   C560      1.0  0.35300  0.02152  0.07470  1.0000
  H   H445      1.0  0.61657  0.21044  0.25008  1.0000
  H   H446      1.0  0.62766  0.26132  0.39777  1.0000
  P   P19       1.0  0.60653  0.20917  0.38484  1.0000
  C   C561      1.0  0.35133  0.27963  0.24288  1.0000
  H   H447      1.0  0.48131  0.11977  0.99569  1.0000
  C   C562      1.0  0.34078  0.25530  0.24990  1.0000
  C   C563      1.0  0.61861  0.00937  0.44668  1.0000
  S   S80       1.0  0.45917  0.10512  0.45768  1.0000
  H   H448      1.0  0.34397  0.12005  0.23885  1.0000
  H   H449      1.0  0.58822  0.08727  0.40896  1.0000
  C   C564      1.0  0.34682  0.21974  0.03112  1.0000
  C   C565      1.0  0.43111  0.10794  0.46586  1.0000
  H   H450      1.0  0.57879  0.31910  0.36761  1.0000
  C   C566      1.0  0.61173  0.20982  0.30857  1.0000
  C   C567      1.0  0.61662  0.19655  0.34162  1.0000
  C   C568      1.0  0.54786  0.16043  0.42440  1.0000
  C   C569      1.0  0.63892  0.08285  0.22207  1.0000
  H   H451      1.0  0.63297  0.14064  0.45784  1.0000
  C   C570      1.0  0.58388  0.18963  0.40070  1.0000
  C   C571      1.0  0.62026  0.20007  0.27552  1.0000
  C   C572      1.0  0.63591  0.03336  0.39641  1.0000
  C   C573      1.0  0.57714  0.25020  0.36698  1.0000
  C   C574      1.0  0.57908  0.16480  0.38459  1.0000
  C   C575      1.0  0.57244  0.02023  0.04545  1.0000
  C   C576      1.0  0.44898  0.03407  0.10974  1.0000
  C   C577      1.0  0.59468  0.01621  0.04391  1.0000
  H   H452      1.0  0.50527  0.01686  0.02801  1.0000
  H   H453      1.0  0.56647  0.11294  0.01913  1.0000
  C   C578      1.0  0.65475  0.04713  0.25955  1.0000
  H   H454      1.0  0.34111  0.18556  0.15379  1.0000
  H   H455      1.0  0.45924  0.00720  0.37154  1.0000
  C   C579      1.0  0.34855  0.23705  0.27649  1.0000
  C   C580      1.0  0.35417  0.04045  0.49025  1.0000
  H   H456      1.0  0.63533  0.09126  0.19529  1.0000
  H   H457      1.0  0.63386  0.16278  0.36627  1.0000
  C   C581      1.0  0.47580  0.99837  0.47955  1.0000
  H   H458      1.0  0.65741  0.13929  0.20268  1.0000
  C   C582      1.0  0.55888  0.99930  0.03604  1.0000
  C   C583      1.0  0.36692  0.24360  0.29613  1.0000
  C   C584      1.0  0.58158  0.12599  0.48486  1.0000
  H   H459      1.0  0.42354  0.03924  0.15051  1.0000
  C   C585      1.0  0.63844  0.16369  0.30807  1.0000
  H   H460      1.0  0.35823  0.04228  0.07505  1.0000
  C   C586      1.0  0.36460  0.00244  0.05425  1.0000
  H   H461      1.0  0.40202  0.07303  0.03139  1.0000
  C   C587      1.0  0.36103  0.01323  0.49260  1.0000
  C   C588      1.0  0.43814  0.02852  0.14294  1.0000
  C   C589      1.0  0.64133  0.19811  0.47848  1.0000
  C   C590      1.0  0.62993  0.17334  0.34106  1.0000
  H   H462      1.0  0.43793  0.00484  0.19289  1.0000
  C   C591      1.0  0.41049  0.05553  0.02032  1.0000
  H   H463      1.0  0.53433  0.14877  0.43432  1.0000
  H   H464      1.0  0.64049  0.16972  0.24977  1.0000
  H   H465      1.0  0.35554  0.02625  0.41688  1.0000
  H   H466      1.0  0.60151  0.22774  0.30815  1.0000
  H   H467      1.0  0.34992  0.22406  0.05949  1.0000
  H   H468      1.0  0.45077  0.09010  0.01127  1.0000
  H   H469      1.0  0.65272  0.21772  0.37727  1.0000
  C   C592      1.0  0.64926  0.21227  0.40546  1.0000
  H   H470      1.0  0.60635  0.11455  0.01367  1.0000
  C   C593      1.0  0.56385  0.02479  0.46144  1.0000
  H   H471      1.0  0.60493  0.03302  0.05006  1.0000
  C   C594      1.0  0.64972  0.05789  0.22506  1.0000
  H   H472      1.0  0.64075  0.05224  0.38374  1.0000
  C   C595      1.0  0.47664  0.00100  0.12670  1.0000
  H   H473      1.0  0.64888  0.14593  0.30817  1.0000
  H   H474      1.0  0.41156  0.05158  0.47862  1.0000
  H   H475      1.0  0.65352  0.05436  0.31777  1.0000
  H   H476      1.0  0.65067  0.00866  0.35495  1.0000
  C   C596      1.0  0.46558  0.99532  0.15925  1.0000
  H   H477      1.0  0.33103  0.11398  0.17555  1.0000
  C   C597      1.0  0.41051  0.12678  0.99544  1.0000
  H   H478      1.0  0.37636  0.23691  0.01125  1.0000
  P   P20       1.0  0.38578  0.00270  0.47012  1.0000
  C   C598      1.0  0.33452  0.01393  0.09406  1.0000
  P   P21       1.0  0.33461  0.20587  0.28571  1.0000
  H   H479      1.0  0.34523  0.29366  0.22237  1.0000
  C   C599      1.0  0.64571  0.00541  0.06721  1.0000
  H   H480      1.0  0.36361  0.05534  0.47547  1.0000
  C   C600      1.0  0.36169  0.22695  0.00395  1.0000
  C   C601      1.0  0.37199  0.99383  0.31338  1.0000
  H   H481      1.0  0.54168  0.00240  0.03736  1.0000
  C   C602      1.0  0.32764  0.11391  0.23464  1.0000
  C   C603      1.0  0.38801  0.12723  0.99298  1.0000
  H   H482      1.0  0.33637  0.28195  0.61493  1.0000
  S   S81       1.0  0.47643  0.08307  0.55723  1.0000
  H   H483      1.0  0.58394  0.04113  0.84074  1.0000
  Fe  Fe40      1.0  0.52982  0.11637  0.52451  1.0000
  S   S82       1.0  0.52631  0.09534  0.57868  1.0000
  C   C604      1.0  0.35520  0.06391  0.60265  1.0000
  Fe  Fe41      1.0  0.50883  0.06383  0.54845  1.0000
  S   S83       1.0  0.51505  0.01990  0.56086  1.0000
  Fe  Fe42      1.0  0.49446  0.11649  0.58328  1.0000
  S   S84       1.0  0.48276  0.13535  0.63619  1.0000
  C   C605      1.0  0.49401  0.01213  0.97318  1.0000
  S   S85       1.0  0.49871  0.14008  0.53073  1.0000
  Fe  Fe43      1.0  0.50246  0.09060  0.83923  1.0000
  S   S86       1.0  0.49583  0.12613  0.87620  1.0000
  S   S87       1.0  0.51922  0.08748  0.78425  1.0000
  Fe  Fe44      1.0  0.48623  0.04976  0.89513  1.0000
  S   S88       1.0  0.47810  0.08137  0.93654  1.0000
  S   S89       1.0  0.48053  0.00532  0.90284  1.0000
  Fe  Fe45      1.0  0.46453  0.10516  0.88964  1.0000
  S   S90       1.0  0.43026  0.12204  0.88891  1.0000
  Fe  Fe46      1.0  0.51014  0.09926  0.92038  1.0000
  H   H484      1.0  0.44105  0.06196  0.51928  1.0000
  S   S91       1.0  0.47045  0.07189  0.84902  1.0000
  S   S92       1.0  0.51890  0.06551  0.88240  1.0000
  C   C606      1.0  0.44652  0.01983  0.77974  1.0000
  C   C607      1.0  0.41104  0.01055  0.84831  1.0000
  C   C608      1.0  0.63047  0.07091  0.86388  1.0000
  H   H485      1.0  0.49949  0.03192  0.76425  1.0000
  C   C609      1.0  0.55032  0.13973  0.69150  1.0000
  H   H486      1.0  0.61728  0.14694  0.79234  1.0000
  H   H487      1.0  0.38453  0.12243  0.90035  1.0000
  C   C610      1.0  0.41432  0.12289  0.92944  1.0000
  C   C611      1.0  0.37870  0.12511  0.95857  1.0000
  C   C612      1.0  0.54969  0.00726  0.83178  1.0000
  H   H488      1.0  0.38563  0.05782  0.71939  1.0000
  C   C613      1.0  0.60012  0.04853  0.83786  1.0000
  H   H489      1.0  0.42264  0.17921  0.67189  1.0000
  H   H490      1.0  0.56215  0.08403  0.74882  1.0000
  C   C614      1.0  0.35752  0.22166  0.96730  1.0000
  H   H491      1.0  0.37511  0.17855  0.91939  1.0000
  C   C615      1.0  0.49140  0.12028  0.67744  1.0000
  C   C616      1.0  0.50650  0.09901  0.67739  1.0000
  C   C617      1.0  0.51444  0.08867  0.71046  1.0000
  C   C618      1.0  0.50702  0.09912  0.74387  1.0000
  C   C619      1.0  0.49119  0.11954  0.74415  1.0000
  C   C620      1.0  0.48354  0.13027  0.71092  1.0000
  H   H492      1.0  0.51254  0.09105  0.65190  1.0000
  H   H493      1.0  0.52665  0.07283  0.71010  1.0000
  H   H494      1.0  0.48548  0.12778  0.76987  1.0000
  H   H495      1.0  0.47181  0.14669  0.71111  1.0000
  C   C621      1.0  0.60974  0.06081  0.86742  1.0000
  C   C622      1.0  0.40622  0.01162  0.50197  1.0000
  H   H496      1.0  0.60395  0.03596  0.78206  1.0000
  H   H497      1.0  0.64318  0.16645  0.88602  1.0000
  C   C623      1.0  0.56797  0.04014  0.96073  1.0000
  H   H498      1.0  0.54978  0.13438  0.72023  1.0000
  C   C624      1.0  0.53478  0.15790  0.67818  1.0000
  C   C625      1.0  0.43274  0.04307  0.52290  1.0000
  C   C626      1.0  0.64288  0.02477  0.98141  1.0000
  C   C627      1.0  0.43877  0.02483  0.55046  1.0000
  H   H499      1.0  0.60228  0.03764  0.95661  1.0000
  H   H500      1.0  0.60884  0.10935  0.56437  1.0000
  S   S93       1.0  0.63506  0.11548  0.94884  1.0000
  H   H501      1.0  0.64674  0.10881  0.76686  1.0000
  C   C628      1.0  0.48791  0.99391  0.94643  1.0000
  H   H502      1.0  0.33941  0.08851  0.64347  1.0000
  H   H503      1.0  0.36142  0.12561  0.95628  1.0000
  H   H504      1.0  0.38346  0.06979  0.90160  1.0000
  C   C629      1.0  0.39111  0.05336  0.88659  1.0000
  C   C630      1.0  0.39339  0.05645  0.61017  1.0000
  C   C631      1.0  0.33200  0.14749  0.89422  1.0000
  C   C632      1.0  0.42976  0.11579  0.61091  1.0000
  H   H505      1.0  0.53706  0.03688  0.79407  1.0000
  C   C633      1.0  0.37468  0.05261  0.59039  1.0000
  H   H506      1.0  0.44064  0.02632  0.86919  1.0000
  H   H507      1.0  0.57234  0.04069  0.53351  1.0000
  C   C634      1.0  0.39815  0.06794  0.73387  1.0000
  H   H508      1.0  0.53329  0.99890  0.91852  1.0000
  C   C635      1.0  0.58737  0.02899  0.94803  1.0000
  C   C636      1.0  0.63990  0.99705  0.98826  1.0000
  C   C637      1.0  0.59670  0.11387  0.98937  1.0000
  C   C638      1.0  0.54956  0.15313  0.61710  1.0000
  H   H509      1.0  0.56456  0.09397  0.81433  1.0000
  C   C639      1.0  0.47510  0.04357  0.63791  1.0000
  H   H510      1.0  0.45186  0.02964  0.56830  1.0000
  H   H511      1.0  0.64075  0.05346  0.77540  1.0000
  C   C640      1.0  0.46497  0.03190  0.76519  1.0000
  C   C641      1.0  0.43810  0.05466  0.65454  1.0000
  C   C642      1.0  0.45899  0.06284  0.64563  1.0000
  P   P22       1.0  0.41730  0.07930  0.66551  1.0000
  C   C643      1.0  0.39273  0.07137  0.64268  1.0000
  C   C644      1.0  0.54860  0.02914  0.95017  1.0000
  H   H512      1.0  0.37870  0.00066  0.83244  1.0000
  C   C645      1.0  0.44821  0.99708  0.80300  1.0000
  C   C646      1.0  0.42360  0.12437  0.96387  1.0000
  H   H513      1.0  0.37535  0.04150  0.56498  1.0000
  C   C647      1.0  0.60541  0.04073  0.51380  1.0000
  C   C648      1.0  0.42346  0.11260  0.64769  1.0000
  C   C649      1.0  0.42038  0.13575  0.66934  1.0000
  H   H514      1.0  0.57473  0.08435  0.56492  1.0000
  H   H515      1.0  0.49109  0.05007  0.63011  1.0000
  H   H516      1.0  0.41790  0.02016  0.66519  1.0000
  H   H517      1.0  0.38830  0.05231  0.97608  1.0000
  H   H518      1.0  0.44332  0.10232  0.78786  1.0000
  H   H519      1.0  0.46284  0.08408  0.64429  1.0000
  C   C650      1.0  0.59386  0.11365  0.92367  1.0000
  C   C651      1.0  0.43068  0.09277  0.77276  1.0000
  H   H520      1.0  0.34345  0.23028  0.84016  1.0000
  H   H521      1.0  0.63776  0.08008  0.88730  1.0000
  C   C652      1.0  0.39428  0.20419  0.83913  1.0000
  H   H522      1.0  0.60105  0.06279  0.89310  1.0000
  C   C653      1.0  0.54854  0.00711  0.92651  1.0000
  H   H523      1.0  0.41468  0.13417  0.69729  1.0000
  H   H524      1.0  0.52173  0.17774  0.63056  1.0000
  Fe  Fe47      1.0  0.48324  0.10443  0.50402  1.0000
  H   H525      1.0  0.60145  0.11449  0.89702  1.0000
  S   S94       1.0  0.53288  0.11021  0.96615  1.0000
  H   H526      1.0  0.48307  0.00122  0.63288  1.0000
  C   C654      1.0  0.42333  0.02875  0.86811  1.0000
  C   C655      1.0  0.63213  0.05613  0.80104  1.0000
  C   C656      1.0  0.35445  0.07918  0.63460  1.0000
  C   C657      1.0  0.41623  0.03681  0.49925  1.0000
  H   H527      1.0  0.61505  0.13746  0.72653  1.0000
  H   H528      1.0  0.59204  0.12537  0.83633  1.0000
  C   C658      1.0  0.43197  0.09146  0.73465  1.0000
  C   C659      1.0  0.33480  0.04877  0.50666  1.0000
  H   H529      1.0  0.42304  0.06385  0.90260  1.0000
  C   C660      1.0  0.56127  0.11185  0.96103  1.0000
  C   C661      1.0  0.57133  0.11198  0.92661  1.0000
  H   H530      1.0  0.56171  0.11131  0.90229  1.0000
  C   C662      1.0  0.48711  0.99948  0.79805  1.0000
  H   H531      1.0  0.41209  0.08327  0.82104  1.0000
  H   H532      1.0  0.54732  0.02055  0.85480  1.0000
  C   C663      1.0  0.37873  0.03552  0.86671  1.0000
  H   H533      1.0  0.43938  0.14407  0.56858  1.0000
  H   H534      1.0  0.44089  0.12466  0.96599  1.0000
  C   C664      1.0  0.43380  0.02687  0.65736  1.0000
  H   H535      1.0  0.64110  0.09010  0.53268  1.0000
  C   C665      1.0  0.41181  0.99370  0.53047  1.0000
  C   C666      1.0  0.39182  0.12330  0.92693  1.0000
  C   C667      1.0  0.48526  0.02185  0.77452  1.0000
  C   C668      1.0  0.41340  0.05001  0.88718  1.0000
  C   C669      1.0  0.42454  0.16150  0.65488  1.0000
  H   H536      1.0  0.43171  0.09835  0.59341  1.0000
  C   C670      1.0  0.41543  0.07973  0.71484  1.0000
  C   C671      1.0  0.40056  0.11493  0.50698  1.0000
  H   H537      1.0  0.55888  0.99601  0.65887  1.0000
  C   C672      1.0  0.62621  0.07906  0.53326  1.0000
  H   H538      1.0  0.40787  0.17820  0.88084  1.0000
  C   C673      1.0  0.37517  0.18989  0.89385  1.0000
  H   H539      1.0  0.34912  0.14842  0.88982  1.0000
  C   C674      1.0  0.65415  0.13031  0.85841  1.0000
  C   C675      1.0  0.60811  0.08982  0.55128  1.0000
  H   H540      1.0  0.52256  0.16614  0.69649  1.0000
  C   C676      1.0  0.43381  0.14162  0.59654  1.0000
  C   C677      1.0  0.56579  0.12828  0.66767  1.0000
  C   C678      1.0  0.56519  0.13502  0.63026  1.0000
  P   P23       1.0  0.58550  0.10399  0.68430  1.0000
  C   C679      1.0  0.57653  0.06985  0.67715  1.0000
  C   C680      1.0  0.61050  0.10943  0.65967  1.0000
  C   C681      1.0  0.61695  0.13592  0.65109  1.0000
  C   C682      1.0  0.63576  0.14032  0.63066  1.0000
  C   C683      1.0  0.64829  0.11833  0.61864  1.0000
  C   C684      1.0  0.64207  0.09192  0.62718  1.0000
  C   C685      1.0  0.62325  0.08744  0.64754  1.0000
  C   C686      1.0  0.58566  0.04810  0.69689  1.0000
  C   C687      1.0  0.57929  0.02154  0.69040  1.0000
  C   C688      1.0  0.56374  0.01655  0.66423  1.0000
  C   C689      1.0  0.55451  0.03811  0.64467  1.0000
  C   C690      1.0  0.56089  0.06463  0.65112  1.0000
  C   C691      1.0  0.58887  0.10932  0.73268  1.0000
  C   C692      1.0  0.60432  0.12722  0.74535  1.0000
  C   C693      1.0  0.60563  0.13271  0.78270  1.0000
  C   C694      1.0  0.59145  0.12054  0.80757  1.0000
  C   C695      1.0  0.57602  0.10277  0.79519  1.0000
  C   C696      1.0  0.57476  0.09709  0.75796  1.0000
  H   H541      1.0  0.57651  0.12599  0.61102  1.0000
  H   H542      1.0  0.60726  0.15322  0.65973  1.0000
  H   H543      1.0  0.64046  0.16081  0.62372  1.0000
  H   H544      1.0  0.43497  0.18427  0.60750  1.0000
  H   H545      1.0  0.34078  0.06139  0.58688  1.0000
  H   H546      1.0  0.61860  0.06679  0.65303  1.0000
  H   H547      1.0  0.59790  0.05169  0.71685  1.0000
  H   H548      1.0  0.58652  0.00479  0.70543  1.0000
  H   H549      1.0  0.43369  0.11306  0.52364  1.0000
  H   H550      1.0  0.54248  0.03431  0.62425  1.0000
  H   H551      1.0  0.55360  0.08099  0.63575  1.0000
  C   C697      1.0  0.58884  0.07575  0.55150  1.0000
  C   C698      1.0  0.61137  0.04590  0.80476  1.0000
  H   H552      1.0  0.54894  0.15793  0.58815  1.0000
  H   H553      1.0  0.65601  0.02240  0.89096  1.0000
  C   C699      1.0  0.47057  0.01599  0.63961  1.0000
  H   H554      1.0  0.36889  0.22841  0.94667  1.0000
  C   C700      1.0  0.48653  0.01350  0.50560  1.0000
  C   C701      1.0  0.41307  0.08191  0.79148  1.0000
  H   H555      1.0  0.63798  0.12422  0.85273  1.0000
  C   C702      1.0  0.53431  0.16446  0.64099  1.0000
  C   C703      1.0  0.37608  0.21883  0.82786  1.0000
  H   H556      1.0  0.53363  0.03794  0.96021  1.0000
  C   C704      1.0  0.37318  0.08316  0.65436  1.0000
  C   C705      1.0  0.35673  0.20435  0.88264  1.0000
  H   H557      1.0  0.39437  0.11846  0.53433  1.0000
  H   H558      1.0  0.44577  0.09992  0.72052  1.0000
  H   H559      1.0  0.36143  0.03821  0.86628  1.0000
  C   C706      1.0  0.43135  0.16441  0.61856  1.0000
  C   C707      1.0  0.60670  0.11432  0.95490  1.0000
  S   S95       1.0  0.56211  0.13660  0.51751  1.0000
  H   H560      1.0  0.56791  0.05715  0.97915  1.0000
  C   C708      1.0  0.44996  0.00761  0.64966  1.0000
  H   H561      1.0  0.63833  0.19226  0.50666  1.0000
  C   C709      1.0  0.58749  0.05120  0.53306  1.0000
  C   C710      1.0  0.39381  0.18972  0.87211  1.0000
  H   H562      1.0  0.49409  0.03354  0.96732  1.0000
  C   C711      1.0  0.39692  0.06925  0.77209  1.0000
  H   H563      1.0  0.40747  0.01292  0.94811  1.0000
  H   H564      1.0  0.54137  0.00737  0.74010  1.0000
  C   C712      1.0  0.62497  0.05439  0.51502  1.0000
  H   H565      1.0  0.38342  0.06054  0.78676  1.0000
  C   C713      1.0  0.64158  0.06947  0.83035  1.0000
  H   H566      1.0  0.40877  0.20403  0.82236  1.0000
  H   H567      1.0  0.65123  0.05536  0.94162  1.0000
  H   H568      1.0  0.37250  0.09607  0.67811  1.0000
  H   H569      1.0  0.43096  0.02853  0.77342  1.0000
  H   H570      1.0  0.37650  0.23011  0.80231  1.0000
  H   H571      1.0  0.60573  0.15212  0.50590  1.0000
  H   H572      1.0  0.32933  0.06963  0.50378  1.0000
  C   C714      1.0  0.35733  0.21886  0.84945  1.0000
  C   C715      1.0  0.65128  0.01545  0.91796  1.0000
  H   H573      1.0  0.46367  0.04958  0.74751  1.0000
  C   C716      1.0  0.50189  0.00101  0.52796  1.0000
  C   C717      1.0  0.64861  0.03394  0.94640  1.0000
  C   C718      1.0  0.58746  0.00718  0.92394  1.0000
  C   C719      1.0  0.41355  0.02197  0.97264  1.0000
  H   H574      1.0  0.40843  0.04856  0.59928  1.0000
  C   C720      1.0  0.54383  0.01669  0.79716  1.0000
  C   C721      1.0  0.33874  0.20819  0.95767  1.0000
  C   C722      1.0  0.38863  0.01417  0.84760  1.0000
  C   C723      1.0  0.42798  0.00040  0.55475  1.0000
  C   C724      1.0  0.54631  0.00002  0.76676  1.0000
  H   H575      1.0  0.35020  0.00283  0.91772  1.0000
  H   H576      1.0  0.65164  0.07486  0.61735  1.0000
  H   H577      1.0  0.35705  0.99750  0.98291  1.0000
  C   C725      1.0  0.42284  0.11206  0.50106  1.0000
  H   H578      1.0  0.48277  0.03482  0.50843  1.0000
  H   H579      1.0  0.65657  0.11705  0.70205  1.0000
  P   P24       1.0  0.33242  0.20302  0.91026  1.0000
  C   C726      1.0  0.43258  0.01211  0.98790  1.0000
  H   H580      1.0  0.44151  0.99575  0.97482  1.0000
  C   C727      1.0  0.34909  0.99504  0.51421  1.0000
  C   C728      1.0  0.56799  0.99630  0.91260  1.0000
  C   C729      1.0  0.32964  0.00341  0.53039  1.0000
  C   C730      1.0  0.40268  0.04396  0.98854  1.0000
  H   H581      1.0  0.63918  0.04630  0.50125  1.0000
  H   H582      1.0  0.60268  0.99904  0.91427  1.0000
  C   C731      1.0  0.57408  0.11295  0.99237  1.0000
  S   S96       1.0  0.51494  0.08268  0.49341  1.0000
  H   H583      1.0  0.33469  0.23407  0.63592  1.0000
  C   C732      1.0  0.65703  0.15460  0.87692  1.0000
  H   H584      1.0  0.33145  0.10491  0.88188  1.0000
  H   H585      1.0  0.50278  0.99217  0.80639  1.0000
  Fe  Fe48      1.0  0.51106  0.87843  0.37994  1.0000
  S   S97       1.0  0.51372  0.84347  0.41982  1.0000
  S   S98       1.0  0.52810  0.87905  0.32471  1.0000
  Fe  Fe49      1.0  0.48466  0.91249  0.43371  1.0000
  C   C733      1.0  0.64946  0.96218  0.27711  1.0000
  S   S99       1.0  0.46759  0.95228  0.44214  1.0000
  Fe  Fe50      1.0  0.51995  0.87526  0.46206  1.0000
  C   C734      1.0  0.41019  0.92678  0.44945  1.0000
  Fe  Fe51      1.0  0.47847  0.85222  0.43131  1.0000
  S   S100      1.0  0.45265  0.82043  0.43058  1.0000
  S   S101      1.0  0.51983  0.90950  0.42122  1.0000
  S   S102      1.0  0.47572  0.88488  0.38861  1.0000
  Fe  Fe52      1.0  0.52186  0.86062  0.06629  1.0000
  S   S103      1.0  0.52151  0.89294  0.10930  1.0000
  C   C735      1.0  0.64343  0.81813  0.42726  1.0000
  Fe  Fe53      1.0  0.47518  0.87368  0.04249  1.0000
  S   S104      1.0  0.47191  0.90599  0.08468  1.0000
  H   H586      1.0  0.39765  0.80410  0.02188  1.0000
  Fe  Fe54      1.0  0.50469  0.91838  0.06698  1.0000
  S   S105      1.0  0.50969  0.96303  0.05811  1.0000
  Fe  Fe55      1.0  0.48866  0.87767  0.12325  1.0000
  S   S106      1.0  0.47337  0.87663  0.17975  1.0000
  C   C736      1.0  0.42130  0.93649  0.25519  1.0000
  S   S107      1.0  0.48947  0.84350  0.08261  1.0000
  C   C737      1.0  0.37378  0.87113  0.05912  1.0000
  H   H587      1.0  0.63626  0.92249  0.28556  1.0000
  C   C738      1.0  0.60926  0.83615  0.00211  1.0000
  H   H588      1.0  0.64791  0.78330  0.46246  1.0000
  C   C739      1.0  0.43945  0.94718  0.02433  1.0000
  H   H589      1.0  0.61876  0.96563  0.44181  1.0000
  S   S108      1.0  0.44969  0.87700  0.99838  1.0000
  C   C740      1.0  0.33928  0.96794  0.07248  1.0000
  H   H590      1.0  0.38635  0.92547  0.36085  1.0000
  H   H591      1.0  0.64783  0.98353  0.20357  1.0000
  C   C741      1.0  0.48151  0.94903  0.33836  1.0000
  H   H592      1.0  0.59367  0.88663  0.39880  1.0000
  C   C742      1.0  0.35789  0.97546  0.05301  1.0000
  C   C743      1.0  0.48890  0.87763  0.21960  1.0000
  C   C744      1.0  0.47852  0.87572  0.25378  1.0000
  C   C745      1.0  0.49038  0.87618  0.28612  1.0000
  C   C746      1.0  0.51270  0.87875  0.28456  1.0000
  C   C747      1.0  0.52309  0.88048  0.25034  1.0000
  C   C748      1.0  0.51124  0.87991  0.21792  1.0000
  H   H593      1.0  0.46128  0.87358  0.25526  1.0000
  H   H594      1.0  0.48228  0.87393  0.31220  1.0000
  H   H595      1.0  0.54036  0.88223  0.24886  1.0000
  H   H596      1.0  0.51939  0.88120  0.19170  1.0000
  C   C749      1.0  0.42849  0.82540  0.45602  1.0000
  H   H597      1.0  0.42456  0.71357  0.17033  1.0000
  C   C750      1.0  0.40288  0.93241  0.19731  1.0000
  C   C751      1.0  0.48004  0.97409  0.35562  1.0000
  H   H598      1.0  0.49378  0.93535  0.99476  1.0000
  C   C752      1.0  0.62561  0.88155  0.42154  1.0000
  C   C753      1.0  0.63483  0.98441  0.39611  1.0000
  H   H599      1.0  0.35374  0.96056  0.45665  1.0000
  H   H600      1.0  0.59728  0.80774  0.47743  1.0000
  P   P25       1.0  0.37369  0.95107  0.02718  1.0000
  H   H601      1.0  0.50081  0.74239  0.17960  1.0000
  P   P26       1.0  0.63227  0.98560  0.03344  1.0000
  C   C754      1.0  0.65243  0.83463  0.39982  1.0000
  C   C755      1.0  0.44224  0.97743  0.34086  1.0000
  H   H602      1.0  0.42673  0.91402  0.37732  1.0000
  C   C756      1.0  0.38271  0.94451  0.34730  1.0000
  C   C757      1.0  0.61367  0.95387  0.30114  1.0000
  H   H603      1.0  0.39323  0.88965  0.44097  1.0000
  C   C758      1.0  0.35378  0.86263  0.04728  1.0000
  C   C759      1.0  0.59555  0.90526  0.45087  1.0000
  C   C760      1.0  0.65485  0.79562  0.44078  1.0000
  C   C761      1.0  0.43976  0.82568  0.20877  1.0000
  C   C762      1.0  0.42429  0.84418  0.15326  1.0000
  H   H604      1.0  0.35369  0.95056  0.37923  1.0000
  C   C763      1.0  0.34579  0.90798  0.02514  1.0000
  C   C764      1.0  0.60411  0.89082  0.42125  1.0000
  C   C765      1.0  0.57412  0.84564  0.03084  1.0000
  C   C766      1.0  0.42498  0.84299  0.19140  1.0000
  C   C767      1.0  0.50069  0.97480  0.01544  1.0000
  H   H605      1.0  0.46388  0.79842  0.13303  1.0000
  H   H606      1.0  0.35715  0.91162  0.44584  1.0000
  C   C768      1.0  0.45401  0.80945  0.18803  1.0000
  C   C769      1.0  0.45304  0.81065  0.14969  1.0000
  P   P27       1.0  0.47279  0.78622  0.20974  1.0000
  C   C770      1.0  0.46172  0.75263  0.21131  1.0000
  C   C771      1.0  0.49739  0.78613  0.18274  1.0000
  C   C772      1.0  0.50727  0.76176  0.17142  1.0000
  C   C773      1.0  0.52550  0.76220  0.14856  1.0000
  C   C774      1.0  0.53399  0.78691  0.13687  1.0000
  C   C775      1.0  0.52443  0.81118  0.14839  1.0000
  C   C776      1.0  0.50622  0.81079  0.17115  1.0000
  C   C777      1.0  0.46963  0.73341  0.23653  1.0000
  C   C778      1.0  0.46125  0.70731  0.23797  1.0000
  C   C779      1.0  0.44499  0.70017  0.21418  1.0000
  C   C780      1.0  0.43712  0.71913  0.18888  1.0000
  C   C781      1.0  0.44544  0.74527  0.18738  1.0000
  C   C782      1.0  0.47770  0.79605  0.25639  1.0000
  C   C783      1.0  0.49745  0.80683  0.26647  1.0000
  C   C784      1.0  0.50121  0.81313  0.30301  1.0000
  C   C785      1.0  0.48519  0.80930  0.32959  1.0000
  C   C786      1.0  0.46553  0.79854  0.31987  1.0000
  C   C787      1.0  0.46184  0.79171  0.28351  1.0000
  H   H607      1.0  0.49658  0.93764  0.33813  1.0000
  C   C788      1.0  0.63360  0.90498  0.06217  1.0000
  H   H608      1.0  0.38811  0.93071  0.18228  1.0000
  H   H609      1.0  0.62289  0.89048  0.07494  1.0000
  H   H610      1.0  0.63891  0.96530  0.38324  1.0000
  H   H611      1.0  0.54782  0.78739  0.11848  1.0000
  H   H612      1.0  0.53092  0.83032  0.13898  1.0000
  H   H613      1.0  0.49881  0.82974  0.17929  1.0000
  H   H614      1.0  0.48233  0.73857  0.25500  1.0000
  H   H615      1.0  0.46740  0.69259  0.25754  1.0000
  H   H616      1.0  0.43852  0.67993  0.21529  1.0000
  C   C789      1.0  0.42493  0.84830  0.47772  1.0000
  H   H617      1.0  0.43911  0.75954  0.16749  1.0000
  H   H618      1.0  0.50998  0.81060  0.24639  1.0000
  H   H619      1.0  0.51640  0.82168  0.31063  1.0000
  H   H620      1.0  0.48796  0.81476  0.35774  1.0000
  H   H621      1.0  0.45323  0.79547  0.34072  1.0000
  H   H622      1.0  0.44659  0.78308  0.27650  1.0000
  C   C790      1.0  0.63344  0.94410  0.28786  1.0000
  H   H623      1.0  0.41551  0.78746  0.43907  1.0000
  H   H624      1.0  0.33357  0.94740  0.07193  1.0000
  C   C791      1.0  0.41294  0.80519  0.45579  1.0000
  H   H625      1.0  0.61224  0.93876  0.07133  1.0000
  H   H626      1.0  0.33497  0.92183  0.01108  1.0000
  H   H627      1.0  0.38490  0.85653  0.07097  1.0000
  H   H628      1.0  0.42601  0.91736  0.44686  1.0000
  H   H629      1.0  0.61511  0.81230  0.37154  1.0000
  H   H630      1.0  0.41513  0.83668  0.29490  1.0000
  H   H631      1.0  0.42100  0.82866  0.36127  1.0000
  H   H632      1.0  0.62771  0.82292  0.43868  1.0000
  C   C792      1.0  0.56747  0.97453  0.02427  1.0000
  H   H633      1.0  0.42660  0.86737  0.40196  1.0000
  H   H634      1.0  0.55674  0.95855  0.01651  1.0000
  H   H635      1.0  0.56245  0.88664  0.02488  1.0000
  H   H636      1.0  0.41465  0.88324  0.26974  1.0000
  C   C793      1.0  0.61624  0.85416  0.35308  1.0000
  C   C794      1.0  0.60642  0.87382  0.33056  1.0000
  C   C795      1.0  0.58837  0.86744  0.31025  1.0000
  C   C796      1.0  0.58016  0.84131  0.31191  1.0000
  C   C797      1.0  0.59012  0.82145  0.33361  1.0000
  C   C798      1.0  0.60806  0.82782  0.35421  1.0000
  C   C799      1.0  0.41788  0.94462  0.01512  1.0000
  H   H637      1.0  0.59050  0.80683  0.03239  1.0000
  C   C800      1.0  0.62745  0.93231  0.05938  1.0000
  H   H638      1.0  0.49390  0.98208  0.36913  1.0000
  H   H639      1.0  0.41321  0.85802  0.13979  1.0000
  H   H640      1.0  0.61214  0.89436  0.33010  1.0000
  H   H641      1.0  0.58020  0.88291  0.29412  1.0000
  H   H642      1.0  0.56579  0.83667  0.29695  1.0000
  H   H643      1.0  0.58358  0.80126  0.33515  1.0000
  H   H644      1.0  0.57877  0.91152  0.45110  1.0000
  H   H645      1.0  0.62223  0.82201  0.99589  1.0000
  C   C801      1.0  0.62951  0.90100  0.48169  1.0000
  P   P28       1.0  0.42017  0.93662  0.30468  1.0000
  C   C802      1.0  0.42014  0.90221  0.32191  1.0000
  C   C803      1.0  0.44363  0.95227  0.32330  1.0000
  C   C804      1.0  0.64057  0.95070  0.04030  1.0000
  H   H646      1.0  0.41450  0.85605  0.20746  1.0000
  H   H647      1.0  0.56254  0.83252  0.46960  1.0000
  C   C805      1.0  0.39065  0.97968  0.30265  1.0000
  C   C806      1.0  0.44495  0.95997  0.05660  1.0000
  C   C807      1.0  0.42373  0.89735  0.35916  1.0000
  C   C808      1.0  0.42370  0.87095  0.37321  1.0000
  C   C809      1.0  0.42062  0.84910  0.35011  1.0000
  C   C810      1.0  0.41737  0.85368  0.31282  1.0000
  C   C811      1.0  0.41707  0.88016  0.29869  1.0000
  C   C812      1.0  0.39615  0.95485  0.31945  1.0000
  H   H648      1.0  0.39517  0.97263  0.09151  1.0000
  H   H649      1.0  0.59610  0.95127  0.01285  1.0000
  C   C813      1.0  0.42262  0.93167  0.17866  1.0000
  C   C814      1.0  0.60984  0.98173  0.30343  1.0000
  H   H650      1.0  0.39564  0.90393  0.06248  1.0000
  C   C815      1.0  0.48086  0.97089  0.47510  1.0000
  H   H651      1.0  0.38368  0.79020  0.48039  1.0000
  S   S109      1.0  0.55159  0.83399  0.05662  1.0000
  H   H652      1.0  0.43799  0.82924  0.10284  1.0000
  C   C816      1.0  0.46336  0.93811  0.32254  1.0000
  H   H653      1.0  0.53290  0.74341  0.13941  1.0000
  C   C817      1.0  0.36407  0.95873  0.35792  1.0000
  H   H654      1.0  0.43318  0.97758  0.10649  1.0000
  C   C818      1.0  0.43828  0.82798  0.13242  1.0000
  C   C819      1.0  0.44165  0.93332  0.19810  1.0000
  H   H655      1.0  0.60118  0.93994  0.30934  1.0000
  C   C820      1.0  0.35870  0.98335  0.34100  1.0000
  C   C821      1.0  0.38792  0.96686  0.46077  1.0000
  C   C822      1.0  0.56853  0.97687  0.47466  1.0000
  H   H656      1.0  0.65442  0.87886  0.45370  1.0000
  C   C823      1.0  0.60349  0.99082  0.03433  1.0000
  H   H657      1.0  0.44040  0.82574  0.23820  1.0000
  C   C824      1.0  0.39180  0.91124  0.44587  1.0000
  C   C825      1.0  0.63801  0.88626  0.45242  1.0000
  P   P29       1.0  0.63755  0.86389  0.38301  1.0000
  C   C826      1.0  0.57533  0.87247  0.01839  1.0000
  C   C827      1.0  0.40101  0.82272  0.00721  1.0000
  C   C828      1.0  0.37982  0.89809  0.05405  1.0000
  C   C829      1.0  0.44107  0.93559  0.23617  1.0000
  C   C830      1.0  0.42888  0.96893  0.08071  1.0000
  C   C831      1.0  0.40163  0.95473  0.03844  1.0000
  C   C832      1.0  0.65582  0.88598  0.35859  1.0000
  H   H658      1.0  0.54165  0.95187  0.46233  1.0000
  C   C833      1.0  0.60834  0.91065  0.48085  1.0000
  C   C834      1.0  0.65326  0.89610  0.04732  1.0000
  H   H659      1.0  0.45613  0.93595  0.25039  1.0000
  C   C835      1.0  0.36958  0.95138  0.45530  1.0000
  C   C836      1.0  0.36580  0.91672  0.03693  1.0000
  H   H660      1.0  0.42272  0.96620  0.45935  1.0000
  H   H661      1.0  0.46461  0.91831  0.31034  1.0000
  H   H662      1.0  0.42327  0.92919  0.14925  1.0000
  C   C837      1.0  0.59125  0.82760  0.02280  1.0000
  C   C838      1.0  0.59328  0.88099  0.99763  1.0000
  C   C839      1.0  0.40221  0.93462  0.23542  1.0000
  H   H663      1.0  0.38679  0.93435  0.24950  1.0000
  H   H664      1.0  0.34942  0.84152  0.04989  1.0000
  S   S110      1.0  0.48490  0.88047  0.47733  1.0000
  H   H665      1.0  0.43179  0.82811  0.03274  1.0000
  S   S111      1.0  0.50770  0.88739  0.02302  1.0000
  C   C840      1.0  0.33974  0.88114  0.03059  1.0000
  H   H666      1.0  0.45198  0.93861  0.00694  1.0000
  H   H667      1.0  0.57814  0.95981  0.48395  1.0000
  C   C841      1.0  0.54793  0.97220  0.46179  1.0000
  C   C842      1.0  0.40731  0.96616  0.07190  1.0000
  C   C843      1.0  0.39473  0.80686  0.47891  1.0000
  C   C844      1.0  0.40827  0.95449  0.45671  1.0000
  H   H668      1.0  0.40083  0.98810  0.28129  1.0000
  C   C845      1.0  0.58973  0.97040  0.02284  1.0000
  H   H669      1.0  0.45697  0.93184  0.18371  1.0000
  H   H670      1.0  0.47206  0.98038  0.17821  1.0000
  C   C846      1.0  0.37150  0.92359  0.44859  1.0000
  C   C847      1.0  0.62351  0.98468  0.42940  1.0000
  H   H671      1.0  0.46171  0.96217  0.06340  1.0000
  C   C848      1.0  0.42031  0.83635  0.01356  1.0000
  H   H672      1.0  0.43674  0.86409  0.47789  1.0000
  C   C849      1.0  0.42502  0.86003  0.99394  1.0000
  H   H673      1.0  0.65366  0.86433  0.30765  1.0000
  C   C850      1.0  0.57410  0.83961  0.48894  1.0000
  H   H674      1.0  0.65767  0.87477  0.04827  1.0000
  C   C851      1.0  0.32763  0.98718  0.09284  1.0000
  H   H675      1.0  0.51927  0.99011  0.43900  1.0000
  H   H676      1.0  0.42716  0.98844  0.34319  1.0000
  C   C852      1.0  0.64575  0.99027  0.27929  1.0000
  C   C853      1.0  0.46042  0.98826  0.35693  1.0000
  H   H677      1.0  0.59447  0.98932  0.31366  1.0000
  C   C854      1.0  0.66080  0.94188  0.02732  1.0000
  H   H678      1.0  0.49167  0.99046  0.12051  1.0000
  H   H679      1.0  0.45313  0.80807  0.64923  1.0000
  S   S112      1.0  0.37383  0.82636  0.54002  1.0000
  C   C855      1.0  0.37453  0.93526  0.95429  1.0000
  H   H680      1.0  0.44300  0.94430  0.94509  1.0000
  H   H681      1.0  0.58035  0.88816  0.55282  1.0000
  H   H682      1.0  0.43447  0.92559  0.81349  1.0000
  C   C856      1.0  0.41009  0.87020  0.96862  1.0000
  Fe  Fe56      1.0  0.33437  0.83148  0.94041  1.0000
  C   C857      1.0  0.38612  0.83287  0.98171  1.0000
  P   P30       1.0  0.56747  0.96894  0.88026  1.0000
  H   H683      1.0  0.64060  0.75642  0.54095  1.0000
  H   H684      1.0  0.52649  0.82553  0.68528  1.0000
  C   C858      1.0  0.39066  0.85686  0.96273  1.0000
  H   H685      1.0  0.63932  0.78202  0.59855  1.0000
  H   H686      1.0  0.37938  0.86480  0.94300  1.0000
  C   C859      1.0  0.45517  0.93659  0.54688  1.0000
  H   H687      1.0  0.45293  0.95553  0.53216  1.0000
  C   C860      1.0  0.47042  0.93438  0.57444  1.0000
  C   C861      1.0  0.44453  0.91415  0.90330  1.0000
  C   C862      1.0  0.42006  0.84657  0.70301  1.0000
  C   C863      1.0  0.36711  0.80237  0.63935  1.0000
  C   C864      1.0  0.40645  0.96852  0.79126  1.0000
  H   H688      1.0  0.34587  0.85120  0.73484  1.0000
  H   H689      1.0  0.42059  0.98753  0.74308  1.0000
  H   H690      1.0  0.63671  0.92775  0.58518  1.0000
  H   H691      1.0  0.61571  0.86453  0.55878  1.0000
  C   C865      1.0  0.35753  0.98418  0.92768  1.0000
  C   C866      1.0  0.60422  0.85758  0.53924  1.0000
  C   C867      1.0  0.47402  0.90948  0.59212  1.0000
  P   P31       1.0  0.46687  0.85432  0.60450  1.0000
  C   C868      1.0  0.44908  0.85158  0.64387  1.0000
  C   C869      1.0  0.44518  0.82609  0.65985  1.0000
  H   H692      1.0  0.38021  0.81377  0.62730  1.0000
  C   C870      1.0  0.49475  0.85090  0.61730  1.0000
  C   C871      1.0  0.42390  0.87202  0.68738  1.0000
  C   C872      1.0  0.43836  0.87456  0.65793  1.0000
  C   C873      1.0  0.46078  0.82792  0.57249  1.0000
  C   C874      1.0  0.43200  0.95620  0.85546  1.0000
  C   C875      1.0  0.63569  0.97517  0.51703  1.0000
  H   H693      1.0  0.33951  0.79517  0.71934  1.0000
  C   C876      1.0  0.37008  0.95650  0.97866  1.0000
  C   C877      1.0  0.43999  0.81729  0.57147  1.0000
  H   H694      1.0  0.48842  0.83091  0.66934  1.0000
  H   H695      1.0  0.43745  0.87207  0.54749  1.0000
  C   C878      1.0  0.52007  0.90710  0.92889  1.0000
  H   H696      1.0  0.51876  0.96374  0.54084  1.0000
  Fe  Fe57      1.0  0.33812  0.83633  0.53619  1.0000
  H   H697      1.0  0.40874  0.84461  0.72566  1.0000
  H   H698      1.0  0.44088  0.89441  0.64599  1.0000
  C   C879      1.0  0.43452  0.96122  0.89281  1.0000
  C   C880      1.0  0.62029  0.91778  0.87909  1.0000
  C   C881      1.0  0.33202  0.77425  0.66934  1.0000
  H   H699      1.0  0.42726  0.82492  0.58922  1.0000
  C   C882      1.0  0.37050  0.93845  0.91702  1.0000
  H   H700      1.0  0.41363  0.88837  0.95317  1.0000
  C   C883      1.0  0.52213  0.83537  0.65978  1.0000
  H   H701      1.0  0.37338  0.92158  0.89875  1.0000
  H   H702      1.0  0.50199  0.91315  0.87978  1.0000
  S   S113      1.0  0.33340  0.87100  0.90961  1.0000
  H   H703      1.0  0.64647  0.98419  0.49702  1.0000
  C   C884      1.0  0.37623  0.93947  0.77901  1.0000
  C   C885      1.0  0.39031  0.95094  0.80366  1.0000
  C   C886      1.0  0.60873  0.96841  0.85006  1.0000
  C   C887      1.0  0.60078  0.97206  0.54680  1.0000
  H   H704      1.0  0.44651  0.98619  0.65126  1.0000
  H   H705      1.0  0.35535  0.67368  0.67981  1.0000
  H   H706      1.0  0.39542  0.96759  0.70014  1.0000
  H   H707      1.0  0.43138  0.91584  0.51623  1.0000
  C   C888      1.0  0.44676  0.88928  0.55517  1.0000
  C   C889      1.0  0.60893  0.95201  0.57040  1.0000
  C   C890      1.0  0.44069  0.94023  0.91652  1.0000
  C   C891      1.0  0.63040  0.94349  0.56721  1.0000
  C   C892      1.0  0.37805  0.94554  0.74174  1.0000
  H   H708      1.0  0.40382  0.97448  0.53369  1.0000
  H   H709      1.0  0.48333  0.95199  0.93378  1.0000
  C   C893      1.0  0.44212  0.90897  0.86617  1.0000
  C   C894      1.0  0.43601  0.92991  0.84226  1.0000
  C   C895      1.0  0.45076  0.78808  0.52153  1.0000
  C   C896      1.0  0.43073  0.82363  0.68928  1.0000
  H   H710      1.0  0.52703  0.94620  0.85303  1.0000
  C   C897      1.0  0.53262  0.85724  0.60301  1.0000
  C   C898      1.0  0.53819  0.84469  0.63597  1.0000
  C   C899      1.0  0.53803  0.91471  0.94849  1.0000
  C   C900      1.0  0.63459  0.93151  0.85606  1.0000
  H   H711      1.0  0.44672  0.77333  0.50112  1.0000
  H   H712      1.0  0.36387  0.92578  0.78877  1.0000
  S   S114      1.0  0.54412  0.87958  0.50754  1.0000
  C   C901      1.0  0.51621  0.91860  0.89452  1.0000
  P   P32       1.0  0.42430  0.98309  0.82411  1.0000
  H   H713      1.0  0.38867  0.94593  0.83246  1.0000
  H   H714      1.0  0.55497  0.84204  0.64284  1.0000
  C   C902      1.0  0.55867  0.98121  0.83616  1.0000
  C   C903      1.0  0.50675  0.97344  0.52385  1.0000
  C   C904      1.0  0.59409  0.95456  0.87280  1.0000
  C   C905      1.0  0.48784  0.96620  0.95444  1.0000
  C   C906      1.0  0.53053  0.93733  0.87944  1.0000
  H   H715      1.0  0.44505  0.88867  0.85602  1.0000
  C   C907      1.0  0.64200  0.97870  0.95933  1.0000
  H   H716      1.0  0.34456  0.72012  0.66230  1.0000
  H   H717      1.0  0.47981  0.95182  0.58135  1.0000
  H   H718      1.0  0.60158  0.92124  0.50413  1.0000
  C   C908      1.0  0.40824  0.97442  0.75369  1.0000
  C   C909      1.0  0.51104  0.86040  0.59367  1.0000
  H   H719      1.0  0.56775  0.94413  0.80841  1.0000
  S   S115      1.0  0.63227  0.87493  0.96253  1.0000
  H   H720      1.0  0.63996  0.96744  0.82371  1.0000
  H   H721      1.0  0.35978  0.78273  0.58897  1.0000
  C   C910      1.0  0.61395  0.98316  0.51921  1.0000
  H   H722      1.0  0.62481  0.89810  0.89037  1.0000
  C   C911      1.0  0.35555  0.78489  0.61766  1.0000
  C   C912      1.0  0.43513  0.79722  0.54641  1.0000
  C   C913      1.0  0.49405  0.95671  0.98895  1.0000
  C   C914      1.0  0.44318  0.91414  0.53757  1.0000
  S   S116      1.0  0.63324  0.81594  0.52414  1.0000
  H   H723      1.0  0.41548  0.88975  0.69787  1.0000
  C   C915      1.0  0.62881  0.95684  0.84154  1.0000
  C   C916      1.0  0.33530  0.70959  0.68307  1.0000
  H   H724      1.0  0.44947  0.89799  0.92188  1.0000
  H   H725      1.0  0.40438  0.86703  0.51882  1.0000
  H   H726      1.0  0.54506  0.86427  0.58437  1.0000
  C   C917      1.0  0.46253  0.88658  0.58192  1.0000
  C   C918      1.0  0.34147  0.68315  0.69291  1.0000
  H   H727      1.0  0.50717  0.86995  0.56769  1.0000
  C   C919      1.0  0.64808  0.98787  0.92450  1.0000
  C   C920      1.0  0.47633  0.81880  0.54703  1.0000
  H   H728      1.0  0.59399  0.90172  0.98796  1.0000
  C   C921      1.0  0.64381  0.95527  0.54077  1.0000
  H   H729      1.0  0.43248  0.98642  0.57639  1.0000
  H   H730      1.0  0.36704  0.93665  0.72272  1.0000
  H   H731      1.0  0.49222  0.82723  0.54597  1.0000
  C   C922      1.0  0.39404  0.96299  0.72909  1.0000
  C   C923      1.0  0.36140  0.80559  0.67613  1.0000
  C   C924      1.0  0.47128  0.79901  0.52166  1.0000
  C   C925      1.0  0.61030  0.86288  0.98924  1.0000
  C   C926      1.0  0.40659  0.85001  0.50074  1.0000
  H   H732      1.0  0.42766  0.80388  0.70129  1.0000
  C   C927      1.0  0.54884  0.94464  0.89879  1.0000
  H   H733      1.0  0.65064  0.97343  0.90280  1.0000
  H   H734      1.0  0.59857  0.94293  0.59099  1.0000
  C   C928      1.0  0.55215  0.93373  0.93384  1.0000
  H   H735      1.0  0.47070  0.97048  0.83144  1.0000
  C   C929      1.0  0.58414  0.87085  0.53592  1.0000
  H   H736      1.0  0.41894  0.78955  0.54530  1.0000
  H   H737      1.0  0.54106  0.90591  0.97515  1.0000
  H   H738      1.0  0.56580  0.93968  0.94972  1.0000
  H   H739      1.0  0.50039  0.93719  0.49388  1.0000
  H   H740      1.0  0.48600  0.90803  0.61321  1.0000
  H   H741      1.0  0.58932  0.91752  0.90453  1.0000
  H   H742      1.0  0.50899  0.89253  0.94053  1.0000
  H   H743      1.0  0.35449  0.97430  0.51829  1.0000
  C   C930      1.0  0.50050  0.83844  0.65054  1.0000
  C   C931      1.0  0.60009  0.92910  0.88733  1.0000
  H   H744      1.0  0.37011  0.81952  0.69283  1.0000
  H   H745      1.0  0.48310  0.79266  0.50132  1.0000
  H   H746      1.0  0.55667  0.96075  0.74747  1.0000
  C   C932      1.0  0.46871  0.98709  0.81218  1.0000
  C   C933      1.0  0.65324  0.75344  0.56073  1.0000
  C   C934      1.0  0.60913  0.83485  0.51802  1.0000
  C   C935      1.0  0.32871  0.85269  0.73118  1.0000
  C   C936      1.0  0.56106  0.96445  0.80551  1.0000
  S   S117      1.0  0.36231  0.81473  0.97388  1.0000
  C   C937      1.0  0.55487  0.97383  0.77095  1.0000
  H   H747      1.0  0.65013  0.92242  0.84950  1.0000
  C   C938      1.0  0.56911  0.86214  0.51046  1.0000
  H   H748      1.0  0.63934  0.90443  0.50528  1.0000
  H   H749      1.0  0.33480  0.64865  0.72750  1.0000
  C   C939      1.0  0.36189  0.96287  0.90373  1.0000
  C   C940      1.0  0.36150  0.98103  0.96499  1.0000
  C   C941      1.0  0.39171  0.82897  0.50217  1.0000
  H   H750      1.0  0.58417  0.97869  0.54982  1.0000
  H   H751      1.0  0.38045  0.91587  0.96427  1.0000
  H   H752      1.0  0.35798  0.96498  0.87511  1.0000
  C   C942      1.0  0.34392  0.79163  0.69112  1.0000
  H   H753      1.0  0.43220  0.98131  0.90376  1.0000
  H   H754      1.0  0.33108  0.85253  0.67189  1.0000
  C   C943      1.0  0.65245  0.76777  0.59345  1.0000
  H   H755      1.0  0.60448  0.98801  0.83852  1.0000
  C   C944      1.0  0.49642  0.95844  0.49714  1.0000
  C   C945      1.0  0.33807  0.77096  0.63248  1.0000
  H   H756      1.0  0.63925  0.95725  0.96360  1.0000
  H   H757      1.0  0.65959  0.74372  0.74815  1.0000
  C   C946      1.0  0.59385  0.82571  0.49327  1.0000
  H   H758      1.0  0.66051  0.94876  0.53833  1.0000
  C   C947      1.0  0.32984  0.66902  0.71970  1.0000
  H   H759      1.0  0.41397  0.93413  0.99038  1.0000
  H   H760      1.0  0.32909  0.75793  0.61487  1.0000
  H   H761      1.0  0.78263  0.23554  0.42064  1.0000
  H   H762      1.0  0.79108  0.16722  0.00273  1.0000
  C   C948      1.0  0.78318  0.38673  0.16125  1.0000
  Fe  Fe58      1.0  0.70436  0.11291  0.34304  1.0000
  S   S118      1.0  0.72792  0.11169  0.38989  1.0000
  S   S119      1.0  0.71649  0.10869  0.28332  1.0000
  Fe  Fe59      1.0  0.70580  0.08111  0.41693  1.0000
  C   C949      1.0  0.73046  0.18161  0.13824  1.0000
  Fe  Fe60      1.0  0.70717  0.14448  0.41585  1.0000
  H   H763      1.0  0.78961  0.39317  0.05394  1.0000
  S   S120      1.0  0.68417  0.08026  0.36865  1.0000
  S   S121      1.0  0.68475  0.14726  0.36745  1.0000
  Fe  Fe61      1.0  0.97424  0.35478  0.41193  1.0000
  H   H764      1.0  0.76924  0.41860  0.12839  1.0000
  S   S122      1.0  0.94535  0.32745  0.41478  1.0000
  C   C950      1.0  0.92353  0.33719  0.44335  1.0000
  Fe  Fe62      1.0  0.67811  0.11660  0.07017  1.0000
  S   S123      1.0  0.71205  0.11080  0.05085  1.0000
  C   C951      1.0  0.70646  0.99648  0.34996  1.0000
  C   C952      1.0  0.75163  0.42565  0.00349  1.0000
  Fe  Fe63      1.0  0.69940  0.07969  0.01211  1.0000
  C   C953      1.0  0.67720  0.02987  0.08594  1.0000
  C   C954      1.0  0.69399  0.18158  0.11588  1.0000
  H   H765      1.0  0.80130  0.35591  0.19004  1.0000
  S   S124      1.0  0.73126  0.17580  0.00087  1.0000
  H   H766      1.0  0.68129  0.01337  0.42247  1.0000
  Fe  Fe64      1.0  0.97230  0.35633  0.02269  1.0000
  Fe  Fe65      1.0  0.98306  0.35863  0.10367  1.0000
  S   S125      1.0  0.95968  0.38203  0.06867  1.0000
  H   H767      1.0  0.88412  0.43614  0.26460  1.0000
  C   C955      1.0  0.87191  0.44005  0.03346  1.0000
  C   C956      1.0  0.70632  0.00083  0.17554  1.0000
  H   H768      1.0  0.88099  0.35690  0.03521  1.0000
  H   H769      1.0  0.92083  0.35395  0.03449  1.0000
  H   H770      1.0  0.97826  0.47836  0.36955  1.0000
  H   H771      1.0  0.76500  0.26168  0.07222  1.0000
  H   H772      1.0  0.69951  0.05337  0.27704  1.0000
  C   C957      1.0  0.71574  0.17484  0.11132  1.0000
  Fe  Fe66      1.0  0.98703  0.41288  0.42284  1.0000
  H   H773      1.0  0.76788  0.38069  0.17293  1.0000
  C   C958      1.0  0.69041  0.99441  0.32381  1.0000
  C   C959      1.0  0.72321  0.19617  0.16898  1.0000
  S   S126      1.0  0.97267  0.34501  0.16079  1.0000
  H   H774      1.0  0.75756  0.19759  0.41105  1.0000
  H   H775      1.0  0.86615  0.41430  0.46307  1.0000
  S   S127      1.0  0.71862  0.03973  0.00574  1.0000
  S   S128      1.0  0.97217  0.45227  0.44083  1.0000
  C   C960      1.0  0.90632  0.46864  0.26970  1.0000
  H   H776      1.0  0.96535  0.33553  0.23757  1.0000
  H   H777      1.0  0.83622  0.36922  0.16241  1.0000
  S   S129      1.0  0.66758  0.12103  0.13046  1.0000
  C   C961      1.0  0.70291  0.11280  0.24081  1.0000
  C   C962      1.0  0.71270  0.10299  0.20844  1.0000
  C   C963      1.0  0.70256  0.10600  0.17421  1.0000
  C   C964      1.0  0.68239  0.11885  0.17193  1.0000
  C   C965      1.0  0.67289  0.12917  0.20415  1.0000
  C   C966      1.0  0.68298  0.12607  0.23831  1.0000
  H   H778      1.0  0.72820  0.09285  0.20987  1.0000
  H   H779      1.0  0.71017  0.09801  0.14975  1.0000
  C   C967      1.0  0.77305  0.24266  0.07891  1.0000
  C   C968      1.0  0.85494  0.26044  0.99894  1.0000
  H   H780      1.0  0.82313  0.41127  0.02612  1.0000
  H   H781      1.0  0.76165  0.38397  0.00893  1.0000
  H   H782      1.0  0.77336  0.47859  0.04690  1.0000
  C   C969      1.0  0.75494  0.45221  0.01455  1.0000
  H   H783      1.0  0.69582  0.21321  0.19776  1.0000
  C   C970      1.0  0.82169  0.38040  0.15548  1.0000
  H   H784      1.0  0.79190  0.15525  0.27629  1.0000
  C   C971      1.0  0.71998  0.01876  0.34957  1.0000
  C   C972      1.0  0.90305  0.32658  0.43763  1.0000
  C   C973      1.0  0.84665  0.46000  0.07673  1.0000
  S   S130      1.0  0.71717  0.18202  0.44951  1.0000
  C   C974      1.0  0.70140  0.20262  0.17356  1.0000
  C   C975      1.0  0.88950  0.35239  0.00996  1.0000
  P   P33       1.0  0.80439  0.44318  0.08704  1.0000
  C   C976      1.0  0.75392  0.21255  0.43169  1.0000
  C   C977      1.0  0.76820  0.23418  0.43730  1.0000
  C   C978      1.0  0.89345  0.39057  0.21289  1.0000
  C   C979      1.0  0.87195  0.39766  0.20718  1.0000
  C   C980      1.0  0.85681  0.39433  0.23539  1.0000
  C   C981      1.0  0.86314  0.38386  0.26935  1.0000
  C   C982      1.0  0.88475  0.37667  0.27536  1.0000
  C   C983      1.0  0.89986  0.38025  0.24682  1.0000
  P   P34       1.0  0.89346  0.36305  0.31893  1.0000
  C   C984      1.0  0.90493  0.38942  0.34610  1.0000
  C   C985      1.0  0.87142  0.34809  0.34447  1.0000
  C   C986      1.0  0.85534  0.36482  0.36013  1.0000
  C   C987      1.0  0.83856  0.35354  0.38069  1.0000
  C   C988      1.0  0.83786  0.32555  0.38641  1.0000
  C   C989      1.0  0.85398  0.30881  0.37157  1.0000
  C   C990      1.0  0.87070  0.31997  0.35072  1.0000
  C   C991      1.0  0.90257  0.38887  0.38435  1.0000
  C   C992      1.0  0.91249  0.40821  0.40563  1.0000
  C   C993      1.0  0.92471  0.42841  0.38895  1.0000
  C   C994      1.0  0.92722  0.42914  0.35097  1.0000
  C   C995      1.0  0.91762  0.40950  0.32961  1.0000
  C   C996      1.0  0.91375  0.33760  0.30850  1.0000
  C   C997      1.0  0.91011  0.31834  0.28137  1.0000
  C   C998      1.0  0.92590  0.29882  0.27283  1.0000
  C   C999      1.0  0.94530  0.29825  0.29153  1.0000
  C   C1000     1.0  0.94901  0.31737  0.31846  1.0000
  C   C1001     1.0  0.93342  0.33720  0.32656  1.0000
  H   H785      1.0  0.90522  0.39286  0.19095  1.0000
  H   H786      1.0  0.86705  0.40570  0.18085  1.0000
  H   H787      1.0  0.84012  0.39980  0.23093  1.0000
  H   H788      1.0  0.85108  0.38126  0.29052  1.0000
  H   H789      1.0  0.91664  0.37480  0.25058  1.0000
  H   H790      1.0  0.85593  0.38664  0.35689  1.0000
  H   H791      1.0  0.66980  0.19966  0.15079  1.0000
  H   H792      1.0  0.82495  0.31685  0.40271  1.0000
  H   H793      1.0  0.85363  0.28715  0.37663  1.0000
  H   H794      1.0  0.88321  0.30656  0.34033  1.0000
  H   H795      1.0  0.89362  0.37308  0.39803  1.0000
  H   H796      1.0  0.67614  0.00576  0.03773  1.0000
  H   H797      1.0  0.72247  0.00618  0.16712  1.0000
  H   H798      1.0  0.93729  0.44432  0.33822  1.0000
  H   H799      1.0  0.92054  0.40970  0.30044  1.0000
  H   H800      1.0  0.89511  0.31847  0.26678  1.0000
  S   S131      1.0  0.97223  0.39177  0.37595  1.0000
  H   H801      1.0  0.79971  0.18634  0.16713  1.0000
  H   H802      1.0  0.91351  0.48552  0.39327  1.0000
  H   H803      1.0  0.93678  0.35198  0.34720  1.0000
  C   C1002     1.0  0.78401  0.40822  0.13608  1.0000
  C   C1003     1.0  0.82624  0.43059  0.40400  1.0000
  C   C1004     1.0  0.83714  0.41714  0.43210  1.0000
  C   C1005     1.0  0.85777  0.42497  0.44131  1.0000
  C   C1006     1.0  0.86725  0.44692  0.42320  1.0000
  C   C1007     1.0  0.85610  0.46121  0.39573  1.0000
  C   C1008     1.0  0.83576  0.45233  0.38551  1.0000
  Fe  Fe67      1.0  0.66597  0.11429  0.39597  1.0000
  H   H804      1.0  0.70827  0.02092  0.22685  1.0000
  C   C1009     1.0  0.67724  0.00231  0.22063  1.0000
  H   H805      1.0  0.81387  0.17872  0.22888  1.0000
  C   C1010     1.0  0.74521  0.25167  0.48536  1.0000
  H   H806      1.0  0.96395  0.31688  0.33332  1.0000
  C   C1011     1.0  0.98446  0.35912  0.19988  1.0000
  C   C1012     1.0  0.88378  0.48107  0.33458  1.0000
  H   H807      1.0  0.84469  0.29666  0.02718  1.0000
  C   C1013     1.0  0.98773  0.46889  0.47288  1.0000
  H   H808      1.0  0.94216  0.36279  0.47728  1.0000
  C   C1014     1.0  0.80387  0.21247  0.07288  1.0000
  C   C1015     1.0  0.78350  0.43656  0.05460  1.0000
  H   H809      1.0  0.86433  0.44660  0.32169  1.0000
  C   C1016     1.0  0.88895  0.45295  0.28104  1.0000
  H   H810      1.0  0.81002  0.42472  0.39758  1.0000
  H   H811      1.0  0.82939  0.40099  0.44727  1.0000
  H   H812      1.0  0.73431  0.20230  0.18969  1.0000
  H   H813      1.0  0.88307  0.45296  0.43128  1.0000
  H   H814      1.0  0.82689  0.46270  0.36417  1.0000
  H   H815      1.0  0.76597  0.21243  0.01177  1.0000
  H   H816      1.0  0.81984  0.20828  0.06201  1.0000
  H   H817      1.0  0.76499  0.46759  0.43380  1.0000
  C   C1017     1.0  0.85586  0.42323  0.02085  1.0000
  C   C1018     1.0  0.87780  0.45895  0.31348  1.0000
  H   H818      1.0  0.78920  0.45974  0.16129  1.0000
  H   H819      1.0  0.82615  0.36648  0.39263  1.0000
  H   H820      1.0  0.93287  0.44290  0.40557  1.0000
  C   C1019     1.0  0.79801  0.17169  0.22232  1.0000
  C   C1020     1.0  0.78568  0.15847  0.24905  1.0000
  C   C1021     1.0  0.76522  0.14944  0.24071  1.0000
  C   C1022     1.0  0.75709  0.15362  0.20569  1.0000
  C   C1023     1.0  0.76931  0.16699  0.17861  1.0000
  C   C1024     1.0  0.78990  0.17593  0.18720  1.0000
  P   P35       1.0  0.75844  0.17196  0.13335  1.0000
  C   C1025     1.0  0.79328  0.19292  0.09407  1.0000
  H   H821      1.0  0.86999  0.32500  0.45668  1.0000
  C   C1026     1.0  0.70144  0.03709  0.29690  1.0000
  H   H822      1.0  0.68246  0.21440  0.42068  1.0000
  H   H823      1.0  0.88802  0.43862  0.02210  1.0000
  H   H824      1.0  0.82535  0.47707  0.99523  1.0000
  H   H825      1.0  0.98285  0.35302  0.29319  1.0000
  C   C1027     1.0  0.79017  0.45378  0.46957  1.0000
  H   H826      1.0  0.76968  0.15819  0.47245  1.0000
  C   C1028     1.0  0.88567  0.33338  0.46108  1.0000
  C   C1029     1.0  0.97790  0.35031  0.23488  1.0000
  S   S132      1.0  0.67117  0.15001  0.02871  1.0000
  C   C1030     1.0  0.76085  0.14073  0.10803  1.0000
  C   C1031     1.0  0.76340  0.14150  0.06983  1.0000
  C   C1032     1.0  0.76540  0.11749  0.05006  1.0000
  C   C1033     1.0  0.76447  0.09246  0.06815  1.0000
  C   C1034     1.0  0.76160  0.09147  0.10608  1.0000
  C   C1035     1.0  0.75978  0.11547  0.12598  1.0000
  H   H827      1.0  0.73199  0.02073  0.37053  1.0000
  H   H828      1.0  0.75557  0.13921  0.26142  1.0000
  H   H829      1.0  0.74113  0.14656  0.19988  1.0000
  H   H830      1.0  0.80177  0.25231  0.04830  1.0000
  H   H831      1.0  0.80117  0.17355  0.09923  1.0000
  H   H832      1.0  0.67326  0.05436  0.13407  1.0000
  C   C1036     1.0  0.71765  0.03886  0.32274  1.0000
  H   H833      1.0  0.72096  0.16431  0.08687  1.0000
  C   C1037     1.0  0.68677  0.19513  0.14712  1.0000
  H   H834      1.0  0.92470  0.45752  0.47500  1.0000
  C   C1038     1.0  0.79949  0.47567  0.10847  1.0000
  S   S133      1.0  0.78323  0.28057  0.47045  1.0000
  C   C1039     1.0  0.76243  0.22318  0.10019  1.0000
  C   C1040     1.0  0.70899  0.00998  0.45662  1.0000
  H   H835      1.0  0.76327  0.16064  0.05509  1.0000
  H   H836      1.0  0.76676  0.11830  0.02053  1.0000
  H   H837      1.0  0.76527  0.07386  0.05263  1.0000
  H   H838      1.0  0.76041  0.07207  0.11999  1.0000
  H   H839      1.0  0.75725  0.11410  0.15520  1.0000
  H   H840      1.0  0.75238  0.00102  0.99747  1.0000
  H   H841      1.0  0.91113  0.40702  0.43516  1.0000
  C   C1041     1.0  0.83039  0.44311  0.06434  1.0000
  C   C1042     1.0  0.76410  0.25395  0.46425  1.0000
  C   C1043     1.0  0.98776  0.36018  0.26639  1.0000
  S   S134      1.0  0.81246  0.34930  0.47346  1.0000
  H   H842      1.0  0.74623  0.22762  0.10974  1.0000
  C   C1044     1.0  0.83517  0.42473  0.03617  1.0000
  S   S135      1.0  0.68646  0.11364  0.44590  1.0000
  C   C1045     1.0  0.80201  0.37280  0.17091  1.0000
  H   H843      1.0  0.72796  0.05636  0.32270  1.0000
  H   H844      1.0  0.95754  0.28311  0.28508  1.0000
  H   H845      1.0  0.92314  0.28415  0.25167  1.0000
  P   P36       1.0  0.66636  0.01354  0.26415  1.0000
  C   C1046     1.0  0.91210  0.35078  0.00962  1.0000
  C   C1047     1.0  0.66227  0.20326  0.46643  1.0000
  H   H846      1.0  0.87971  0.47175  0.07062  1.0000
  C   C1048     1.0  0.80374  0.41613  0.12068  1.0000
  C   C1049     1.0  0.77883  0.47352  0.44914  1.0000
  H   H847      1.0  0.90070  0.31300  0.41510  1.0000
  C   C1050     1.0  0.82261  0.40206  0.13057  1.0000
  S   S136      1.0  0.71881  0.04340  0.44782  1.0000
  C   C1051     1.0  0.68765  0.01487  0.29719  1.0000
  H   H848      1.0  0.83800  0.40740  0.11865  1.0000
  C   C1052     1.0  0.69044  0.00023  0.44047  1.0000
  C   C1053     1.0  0.73529  0.20996  0.45336  1.0000
  C   C1054     1.0  0.92646  0.35476  0.47243  1.0000
  S   S137      1.0  0.78124  0.41952  0.46935  1.0000
  H   H849      1.0  0.91497  0.46379  0.24462  1.0000
  H   H850      1.0  0.86938  0.25776  0.01482  1.0000
  C   C1055     1.0  0.86726  0.45859  0.06112  1.0000
  H   H851      1.0  0.69360  0.03608  0.08063  1.0000
  H   H852      1.0  0.84358  0.47408  0.09873  1.0000
  C   C1056     1.0  0.77248  0.19813  0.10801  1.0000
  C   C1057     1.0  0.79375  0.23733  0.06527  1.0000
  H   H853      1.0  0.67538  0.13399  0.26273  1.0000
  H   H854      1.0  0.68258  0.17579  0.09553  1.0000
  S   S138      1.0  0.98665  0.37683  0.46013  1.0000
  C   C1058     1.0  0.69817  0.00911  0.20954  1.0000
  Fe  Fe68      1.0  0.70505  0.14291  0.00765  1.0000
  C   C1059     1.0  0.66619  0.21050  0.43000  1.0000
  H   H855      1.0  0.85945  0.40871  0.99945  1.0000
  C   C1060     1.0  0.77993  0.40986  0.04346  1.0000
  H   H856      1.0  0.84724  0.27636  0.47168  1.0000
  C   C1061     1.0  0.72060  0.99241  0.48001  1.0000
  C   C1062     1.0  0.79204  0.47764  0.14482  1.0000
  C   C1063     1.0  0.73110  0.22982  0.48013  1.0000
  C   C1064     1.0  0.76405  0.40448  0.01806  1.0000
  S   S139      1.0  0.98392  0.45404  0.05892  1.0000
  Fe  Fe69      1.0  0.98755  0.40861  0.05535  1.0000
  H   H857      1.0  0.98283  0.48598  0.12555  1.0000
  C   C1065     1.0  0.77086  0.45773  0.03981  1.0000
  S   S140      1.0  0.66562  0.08360  0.03412  1.0000
  H   H858      1.0  0.80862  0.16723  0.46536  1.0000
  C   C1066     1.0  0.84095  0.28220  0.00620  1.0000
  H   H859      1.0  0.74573  0.46869  0.00238  1.0000
  C   C1067     1.0  0.79954  0.17622  0.48774  1.0000
  C   C1068     1.0  0.66721  0.01270  0.06152  1.0000
  C   C1069     1.0  0.99066  0.46900  0.01693  1.0000
  C   C1070     1.0  0.80806  0.46186  0.48925  1.0000
  H   H860      1.0  0.67558  0.20142  0.48513  1.0000
  C   C1071     1.0  0.81423  0.48932  0.48877  1.0000
  C   C1072     1.0  0.88898  0.34988  0.49128  1.0000
  C   C1073     1.0  0.66577  0.04007  0.11608  1.0000
  H   H861      1.0  0.94257  0.41407  0.49130  1.0000
  P   P37       1.0  0.86787  0.49071  0.37415  1.0000
  S   S141      1.0  0.99396  0.33042  0.05853  1.0000
  C   C1074     1.0  0.91232  0.49075  0.29048  1.0000
  H   H862      1.0  0.73498  0.99960  0.49270  1.0000
  C   C1075     1.0  0.77766  0.17094  0.49183  1.0000
  H   H863      1.0  0.81736  0.20121  0.98249  1.0000
  S   S142      1.0  0.81440  0.31711  0.55268  1.0000
  C   C1076     1.0  0.92667  0.47397  0.52917  1.0000
  C   C1077     1.0  0.73760  0.20798  0.97976  1.0000
  S   S143      1.0  0.81475  0.38406  0.54970  1.0000
  C   C1078     1.0  0.78951  0.47363  0.57902  1.0000
  Fe  Fe70      1.0  0.83302  0.34966  0.52308  1.0000
  C   C1079     1.0  0.82935  0.41871  0.73119  1.0000
  Fe  Fe71      1.0  0.79463  0.35170  0.57600  1.0000
  S   S144      1.0  0.78177  0.35594  0.63513  1.0000
  S   S145      1.0  0.77104  0.35169  0.52915  1.0000
  Fe  Fe72      1.0  0.81069  0.35001  0.85310  1.0000
  S   S146      1.0  0.77623  0.35643  0.87053  1.0000
  S   S147      1.0  0.82405  0.34576  0.79413  1.0000
  Fe  Fe73      1.0  0.82570  0.35024  0.93337  1.0000
  H   H864      1.0  0.81699  0.44701  0.50509  1.0000
  Fe  Fe74      1.0  0.78231  0.32442  0.91463  1.0000
  C   C1080     1.0  0.67768  0.16308  0.88509  1.0000
  Fe  Fe75      1.0  0.78905  0.38742  0.90975  1.0000
  S   S148      1.0  0.77434  0.43020  0.91574  1.0000
  S   S149      1.0  0.81652  0.31688  0.89529  1.0000
  S   S150      1.0  0.82313  0.38265  0.88995  1.0000
  C   C1081     1.0  0.80735  0.19191  0.96242  1.0000
  C   C1082     1.0  0.68884  0.03083  0.83015  1.0000
  H   H865      1.0  0.79110  0.29286  0.79897  1.0000
  H   H866      1.0  0.87317  0.14893  0.86621  1.0000
  C   C1083     1.0  0.70961  0.01431  0.88149  1.0000
  C   C1084     1.0  0.68751  0.09721  0.70607  1.0000
  H   H867      1.0  0.95457  0.40559  0.55465  1.0000
  P   P38       1.0  0.82735  0.22519  0.91037  1.0000
  C   C1085     1.0  0.73130  0.24529  0.93623  1.0000
  H   H868      1.0  0.87682  0.29209  0.51060  1.0000
  H   H869      1.0  0.72145  0.25438  0.91515  1.0000
  C   C1086     1.0  0.69324  0.05914  0.88312  1.0000
  C   C1087     1.0  0.78496  0.45845  0.93930  1.0000
  H   H870      1.0  0.68220  0.02733  0.80346  1.0000
  C   C1088     1.0  0.86477  0.27241  0.55917  1.0000
  H   H871      1.0  0.78871  0.41230  0.62262  1.0000
  H   H872      1.0  0.83965  0.40289  0.63220  1.0000
  C   C1089     1.0  0.79395  0.35254  0.67896  1.0000
  C   C1090     1.0  0.78091  0.35468  0.71065  1.0000
  C   C1091     1.0  0.78971  0.35233  0.74598  1.0000
  C   C1092     1.0  0.81180  0.34794  0.75021  1.0000
  C   C1093     1.0  0.82483  0.34563  0.71851  1.0000
  C   C1094     1.0  0.81602  0.34788  0.68316  1.0000
  H   H873      1.0  0.76383  0.35830  0.70786  1.0000
  H   H874      1.0  0.77942  0.35424  0.76992  1.0000
  H   H875      1.0  0.84193  0.34224  0.72132  1.0000
  H   H876      1.0  0.82630  0.34613  0.65920  1.0000
  C   C1095     1.0  0.87253  0.17020  0.87324  1.0000
  C   C1096     1.0  0.93368  0.46956  0.56507  1.0000
  C   C1097     1.0  0.81991  0.27345  0.81889  1.0000
  H   H877      1.0  0.76697  0.14650  0.95815  1.0000
  P   P39       1.0  0.66872  0.08164  0.82675  1.0000
  C   C1098     1.0  0.86560  0.44684  0.55542  1.0000
  H   H878      1.0  0.78321  0.24307  0.89474  1.0000
  C   C1099     1.0  0.86723  0.46117  0.88282  1.0000
  C   C1100     1.0  0.89107  0.18569  0.87033  1.0000
  C   C1101     1.0  0.78049  0.16793  0.91191  1.0000
  S   S151      1.0  0.86902  0.35577  0.52511  1.0000
  H   H879      1.0  0.94250  0.40378  0.97763  1.0000
  H   H880      1.0  0.80647  0.40610  0.77243  1.0000
  H   H881      1.0  0.75909  0.40567  0.58013  1.0000
  C   C1102     1.0  0.66761  0.10621  0.71977  1.0000
  C   C1103     1.0  0.89905  0.43999  0.94779  1.0000
  H   H882      1.0  0.83011  0.28305  0.79845  1.0000
  C   C1104     1.0  0.98658  0.40193  0.90648  1.0000
  H   H883      1.0  0.68976  0.07740  0.89837  1.0000
  C   C1105     1.0  0.84020  0.44257  0.60621  1.0000
  H   H884      1.0  0.71208  0.04176  0.92653  1.0000
  C   C1106     1.0  0.90871  0.46506  0.94080  1.0000
  H   H885      1.0  0.87724  0.28025  0.57624  1.0000
  H   H886      1.0  0.86164  0.22590  0.96547  1.0000
  H   H887      1.0  0.87218  0.45850  0.53278  1.0000
  C   C1107     1.0  0.82236  0.28577  0.98573  1.0000
  H   H888      1.0  0.74903  0.44203  0.53586  1.0000
  C   C1108     1.0  0.79786  0.27901  0.81913  1.0000
  S   S152      1.0  0.69518  0.11105  0.96751  1.0000
  H   H889      1.0  0.70672  0.11118  0.84784  1.0000
  C   C1109     1.0  0.72511  0.22027  0.95244  1.0000
  H   H890      1.0  0.90607  0.17646  0.86107  1.0000
  H   H891      1.0  0.71913  0.99841  0.89454  1.0000
  C   C1110     1.0  0.68519  0.05563  0.84787  1.0000
  H   H892      1.0  0.67984  0.18158  0.90023  1.0000
  H   H893      1.0  0.81862  0.24812  0.49822  1.0000
  H   H894      1.0  0.81190  0.43701  0.96253  1.0000
  C   C1111     1.0  0.98882  0.42713  0.88919  1.0000
  C   C1112     1.0  0.76721  0.42493  0.58036  1.0000
  C   C1113     1.0  0.84777  0.45312  0.86809  1.0000
  H   H895      1.0  0.84703  0.43465  0.85246  1.0000
  C   C1114     1.0  0.84791  0.27021  0.50015  1.0000
  C   C1115     1.0  0.84864  0.25627  0.57438  1.0000
  C   C1116     1.0  0.80347  0.45629  0.96045  1.0000
  C   C1117     1.0  0.83224  0.24652  0.55237  1.0000
  C   C1118     1.0  0.94270  0.44600  0.96173  1.0000
  C   C1119     1.0  0.76238  0.24646  0.97451  1.0000
  C   C1120     1.0  0.69553  0.14750  0.87418  1.0000
  C   C1121     1.0  0.87095  0.22507  0.89136  1.0000
  H   H896      1.0  0.84307  0.47807  0.57129  1.0000
  C   C1122     1.0  0.86396  0.40494  0.59023  1.0000
  C   C1123     1.0  0.83224  0.43103  0.69690  1.0000
  H   H897      1.0  0.88024  0.33922  0.92064  1.0000
  C   C1124     1.0  0.70107  0.01028  0.84691  1.0000
  H   H898      1.0  0.71070  0.21049  0.94366  1.0000
  H   H899      1.0  0.69186  0.10094  0.67769  1.0000
  C   C1125     1.0  0.80871  0.41601  0.74606  1.0000
  C   C1126     1.0  0.75623  0.22144  0.99058  1.0000
  H   H900      1.0  0.88538  0.41147  0.54440  1.0000
  P   P40       1.0  0.81825  0.45666  0.63291  1.0000
  H   H901      1.0  0.74884  0.17862  0.52332  1.0000
  H   H902      1.0  0.83902  0.16972  0.88727  1.0000
  C   C1127     1.0  0.91478  0.47964  0.63823  1.0000
  C   C1128     1.0  0.94359  0.44464  0.57420  1.0000
  C   C1129     1.0  0.93312  0.42089  0.96738  1.0000
  C   C1130     1.0  0.85316  0.18210  0.88523  1.0000
  C   C1131     1.0  0.80873  0.19955  0.92539  1.0000
  C   C1132     1.0  0.89309  0.44325  0.66366  1.0000
  C   C1133     1.0  0.90392  0.45514  0.63403  1.0000
  C   C1134     1.0  0.86447  0.27923  0.52206  1.0000
  H   H903      1.0  0.97661  0.44280  0.89301  1.0000
  C   C1135     1.0  0.69642  0.07896  0.76584  1.0000
  H   H904      1.0  0.94891  0.44068  0.60182  1.0000
  C   C1136     1.0  0.84734  0.41579  0.61194  1.0000
  C   C1137     1.0  0.81583  0.24535  0.87360  1.0000
  C   C1138     1.0  0.83258  0.24709  0.94844  1.0000
  C   C1139     1.0  0.66206  0.10147  0.75641  1.0000
  H   H905      1.0  0.88521  0.42404  0.66028  1.0000
  H   H906      1.0  0.90375  0.44506  0.60797  1.0000
  C   C1140     1.0  0.81510  0.17907  0.66414  1.0000
  C   C1141     1.0  0.83587  0.16807  0.66118  1.0000
  C   C1142     1.0  0.84901  0.17496  0.63132  1.0000
  C   C1143     1.0  0.84147  0.19308  0.60462  1.0000
  C   C1144     1.0  0.82088  0.20486  0.60803  1.0000
  C   C1145     1.0  0.80752  0.19718  0.63745  1.0000
  P   P41       1.0  0.81077  0.22720  0.57276  1.0000
  C   C1146     1.0  0.79264  0.25244  0.59161  1.0000
  C   C1147     1.0  0.80961  0.19330  0.51223  1.0000
  C   C1148     1.0  0.81808  0.26812  0.95723  1.0000
  C   C1149     1.0  0.77900  0.16072  0.94886  1.0000
  C   C1150     1.0  0.81107  0.47911  0.97901  1.0000
  C   C1151     1.0  0.81445  0.44014  0.67681  1.0000
  C   C1152     1.0  0.70056  0.99379  0.97255  1.0000
  C   C1153     1.0  0.77624  0.26358  0.57004  1.0000
  C   C1154     1.0  0.76240  0.28362  0.58401  1.0000
  C   C1155     1.0  0.76509  0.29299  0.61948  1.0000
  C   C1156     1.0  0.78191  0.28278  0.64070  1.0000
  C   C1157     1.0  0.79576  0.26268  0.62676  1.0000
  C   C1158     1.0  0.79772  0.20566  0.54058  1.0000
  C   C1159     1.0  0.77587  0.19965  0.54507  1.0000
  C   C1160     1.0  0.79258  0.17248  0.97402  1.0000
  C   C1161     1.0  0.87304  0.42039  0.56194  1.0000
  C   C1162     1.0  0.87785  0.34827  0.97794  1.0000
  H   H907      1.0  0.70801  0.06898  0.78341  1.0000
  H   H908      1.0  0.80480  0.17346  0.68701  1.0000
  H   H909      1.0  0.84172  0.15400  0.68183  1.0000
  H   H910      1.0  0.86500  0.16613  0.62872  1.0000
  C   C1163     1.0  0.90935  0.36079  0.49653  1.0000
  H   H911      1.0  0.79125  0.20514  0.63973  1.0000
  Fe  Fe76      1.0  0.79308  0.38209  0.50170  1.0000
  C   C1164     1.0  0.76149  0.44543  0.55559  1.0000
  H   H912      1.0  0.84300  0.41082  0.74620  1.0000
  C   C1165     1.0  0.86800  0.48428  0.90484  1.0000
  H   H913      1.0  0.82661  0.19694  0.50889  1.0000
  H   H914      1.0  0.77445  0.25716  0.54215  1.0000
  H   H915      1.0  0.74997  0.29240  0.56697  1.0000
  H   H916      1.0  0.75464  0.30894  0.63006  1.0000
  H   H917      1.0  0.78454  0.29114  0.66752  1.0000
  H   H918      1.0  0.80908  0.25560  0.64316  1.0000
  H   H919      1.0  0.76644  0.20833  0.56722  1.0000
  C   C1166     1.0  0.77421  0.48377  0.93720  1.0000
  H   H920      1.0  0.84605  0.25345  0.84547  1.0000
  C   C1167     1.0  0.82911  0.46865  0.87405  1.0000
  C   C1168     1.0  0.89248  0.45600  0.69755  1.0000
  C   C1169     1.0  0.83176  0.25404  0.51528  1.0000
  H   H921      1.0  0.76769  0.27255  0.84714  1.0000
  C   C1170     1.0  0.77255  0.46983  0.55508  1.0000
  H   H922      1.0  0.86914  0.38406  0.59426  1.0000
  C   C1171     1.0  0.76588  0.18252  0.52060  1.0000
  S   S153      1.0  0.95177  0.34244  0.97569  1.0000
  H   H923      1.0  0.84830  0.43326  0.68598  1.0000
  H   H924      1.0  0.92020  0.33591  0.92002  1.0000
  H   H925      1.0  0.79630  0.19256  0.87140  1.0000
  C   C1172     1.0  0.82889  0.25670  0.84593  1.0000
  H   H926      1.0  0.91207  0.37341  0.51993  1.0000
  H   H927      1.0  0.81387  0.46206  0.86357  1.0000
  C   C1173     1.0  0.78398  0.42880  0.60458  1.0000
  C   C1174     1.0  0.79542  0.18710  0.90011  1.0000
  C   C1175     1.0  0.75004  0.25868  0.94691  1.0000
  H   H928      1.0  0.71750  0.07705  0.71863  1.0000
  S   S154      1.0  0.75720  0.29024  0.92468  1.0000
  C   C1176     1.0  0.91166  0.34056  0.94520  1.0000
  H   H929      1.0  0.84874  0.25191  0.60342  1.0000
  C   C1177     1.0  0.79095  0.42554  0.72663  1.0000
  H   H930      1.0  0.80367  0.27143  0.94153  1.0000
  H   H931      1.0  0.76977  0.15901  0.89255  1.0000
  C   C1178     1.0  0.84917  0.45786  0.57738  1.0000
  C   C1179     1.0  0.79364  0.25088  0.87332  1.0000
  C   C1180     1.0  0.79500  0.45336  0.60461  1.0000
  C   C1181     1.0  0.70194  0.08370  0.72914  1.0000
  S   S155      1.0  0.79183  0.35630  0.95488  1.0000
  H   H932      1.0  0.77651  0.25640  0.98394  1.0000
  C   C1182     1.0  0.78472  0.26759  0.84621  1.0000
  C   C1183     1.0  0.94667  0.42466  0.54772  1.0000
  C   C1184     1.0  0.88903  0.34245  0.94545  1.0000
  H   H933      1.0  0.90462  0.22518  0.87710  1.0000
  C   C1185     1.0  0.89026  0.21312  0.87937  1.0000
  H   H934      1.0  0.87060  0.24641  0.89818  1.0000
  H   H935      1.0  0.88157  0.44903  0.87758  1.0000
  H   H936      1.0  0.85169  0.19782  0.58128  1.0000
  C   C1186     1.0  0.85223  0.20964  0.89449  1.0000
  C   C1187     1.0  0.90272  0.48069  0.70180  1.0000
  C   C1188     1.0  0.92331  0.34476  0.97724  1.0000
  C   C1189     1.0  0.69272  0.12316  0.85575  1.0000
  H   H937      1.0  0.81160  0.30279  0.99116  1.0000
  C   C1190     1.0  0.91131  0.41794  0.96041  1.0000
  Fe  Fe77      1.0  0.79202  0.31866  0.50415  1.0000
  H   H938      1.0  0.76862  0.48529  0.53488  1.0000
  C   C1191     1.0  0.70566  0.03872  0.89953  1.0000
  H   H939      1.0  0.71152  0.15411  0.88072  1.0000
  H   H940      1.0  0.97257  0.39785  0.92352  1.0000
  H   H941      1.0  0.92857  0.47980  0.87430  1.0000
  H   H942      1.0  0.71680  0.22831  0.49708  1.0000
  H   H943      1.0  0.77494  0.42309  0.73808  1.0000
  H   H944      1.0  0.95953  0.44839  0.96774  1.0000
  H   H945      1.0  0.88200  0.43736  0.94416  1.0000
  H   H946      1.0  0.68550  0.00477  0.97219  1.0000
  H   H947      1.0  0.88407  0.44676  0.72053  1.0000
  C   C1192     1.0  0.71866  0.00625  0.98712  1.0000
  S   S156      1.0  0.84943  0.35044  0.98031  1.0000
  C   C1193     1.0  0.85064  0.24268  0.97050  1.0000
  C   C1194     1.0  0.67197  0.11397  0.84866  1.0000
  C   C1195     1.0  0.93054  0.46809  0.94878  1.0000
  H   H948      1.0  0.75983  0.48571  0.92110  1.0000
  C   C1196     1.0  0.67623  0.08735  0.77952  1.0000
  C   C1197     1.0  0.79377  0.43775  0.69226  1.0000
  H   H949      1.0  0.85806  0.48539  0.64604  1.0000
  H   H950      1.0  0.77978  0.44517  0.67784  1.0000
  H   H951      1.0  0.73994  0.42159  0.98267  1.0000
  H   H952      1.0  0.97494  0.47829  0.59147  1.0000
  C   C1198     1.0  0.93973  0.42929  0.51207  1.0000
  H   H953      1.0  0.90379  0.39861  0.96528  1.0000
  H   H954      1.0  0.66270  0.12175  0.60233  1.0000
  H   H955      1.0  0.74146  0.26671  0.50583  1.0000
  Fe  Fe78      1.0  0.66159  0.11624  0.99139  1.0000
  H   H956      1.0  0.90216  0.49066  0.72807  1.0000
  C   C1199     1.0  0.92964  0.45385  0.50287  1.0000
  H   H957      1.0  0.93818  0.48752  0.94513  1.0000
  C   C1200     1.0  0.73821  0.99183  0.98660  1.0000
  Fe  Fe79      1.0  0.80576  0.58465  0.43926  1.0000
  S   S157      1.0  0.83447  0.59791  0.40600  1.0000
  S   S158      1.0  0.81151  0.54346  0.46890  1.0000
  Fe  Fe80      1.0  0.78514  0.64321  0.43444  1.0000
  S   S159      1.0  0.81304  0.65907  0.40132  1.0000
  H   H958      1.0  0.77168  0.76813  0.44818  1.0000
  Fe  Fe81      1.0  0.81141  0.62037  0.36888  1.0000
  S   S160      1.0  0.82251  0.62051  0.30820  1.0000
  Fe  Fe82      1.0  0.83403  0.63520  0.44002  1.0000
  S   S161      1.0  0.87388  0.63268  0.02720  1.0000
  S   S162      1.0  0.78222  0.60494  0.40012  1.0000
  H   H959      1.0  0.82469  0.66700  0.16125  1.0000
  Fe  Fe83      1.0  0.80179  0.61279  0.08523  1.0000
  S   S163      1.0  0.77913  0.60139  0.04027  1.0000
  S   S164      1.0  0.78805  0.60938  0.14418  1.0000
  Fe  Fe84      1.0  0.83795  0.62379  0.02869  1.0000
  H   H960      1.0  0.98667  0.64560  0.09268  1.0000
  C   C1201     1.0  0.90420  0.64344  0.49113  1.0000
  H   H961      1.0  0.80298  0.56633  0.32875  1.0000
  H   H962      1.0  0.91827  0.53945  0.48345  1.0000
  H   H963      1.0  0.72642  0.60323  0.06420  1.0000
  S   S165      1.0  0.81265  0.65077  0.05576  1.0000
  S   S166      1.0  0.82850  0.58714  0.06153  1.0000
  C   C1202     1.0  0.74065  0.64712  0.13036  1.0000
  S   S167      1.0  0.86289  0.65306  0.46798  1.0000
  C   C1203     1.0  0.81247  0.53663  0.36927  1.0000
  C   C1204     1.0  0.88671  0.53626  0.46058  1.0000
  S   S168      1.0  0.68656  0.92167  0.47680  1.0000
  H   H964      1.0  0.80860  0.75092  0.42892  1.0000
  H   H965      1.0  0.77586  0.51580  0.43318  1.0000
  H   H966      1.0  0.78232  0.50462  0.18836  1.0000
  H   H967      1.0  0.66348  0.91068  0.40536  1.0000
  H   H968      1.0  0.99124  0.49373  0.19058  1.0000
  C   C1205     1.0  0.83376  0.54808  0.31576  1.0000
  C   C1206     1.0  0.97283  0.49885  0.36313  1.0000
  H   H969      1.0  0.93171  0.63154  0.37932  1.0000
  P   P42       1.0  0.75251  0.70146  0.12925  1.0000
  C   C1207     1.0  0.81239  0.61723  0.26293  1.0000
  C   C1208     1.0  0.79056  0.61409  0.25576  1.0000
  C   C1209     1.0  0.78351  0.61173  0.21936  1.0000
  C   C1210     1.0  0.79809  0.61241  0.18952  1.0000
  C   C1211     1.0  0.81993  0.61537  0.19671  1.0000
  C   C1212     1.0  0.82698  0.61781  0.23309  1.0000
  H   H970      1.0  0.77909  0.61361  0.27823  1.0000
  H   H971      1.0  0.76658  0.60941  0.21428  1.0000
  H   H972      1.0  0.83140  0.61573  0.17423  1.0000
  H   H973      1.0  0.84390  0.62017  0.23814  1.0000
  H   H974      1.0  0.67159  0.95587  0.01385  1.0000
  C   C1213     1.0  0.89092  0.61198  0.44703  1.0000
  C   C1214     1.0  0.91052  0.59759  0.44842  1.0000
  H   H975      1.0  0.87845  0.60539  0.42917  1.0000
  H   H976      1.0  0.91300  0.58005  0.43157  1.0000
  S   S169      1.0  0.81145  0.53271  0.99974  1.0000
  C   C1215     1.0  0.76561  0.72518  0.45230  1.0000
  C   C1216     1.0  0.66433  0.98803  0.19647  1.0000
  H   H977      1.0  0.77931  0.71932  0.43557  1.0000
  H   H978      1.0  0.96320  0.49911  0.48395  1.0000
  C   C1217     1.0  0.83311  0.82628  0.46424  1.0000
  C   C1218     1.0  0.73106  0.62200  0.07669  1.0000
  C   C1219     1.0  0.80272  0.50912  0.46860  1.0000
  H   H979      1.0  0.68228  0.90782  0.01898  1.0000
  H   H980      1.0  0.78522  0.66857  0.16595  1.0000
  H   H981      1.0  0.98369  0.61440  0.19434  1.0000
  C   C1220     1.0  0.82646  0.69826  0.11986  1.0000
  C   C1221     1.0  0.98299  0.60613  0.38247  1.0000
  Fe  Fe85      1.0  0.80676  0.57784  0.01465  1.0000
  H   H982      1.0  0.66987  0.96579  0.43401  1.0000
  C   C1222     1.0  0.72301  0.73020  0.08567  1.0000
  H   H983      1.0  0.76336  0.75860  0.13327  1.0000
  H   H984      1.0  0.71522  0.71118  0.08094  1.0000
  H   H985      1.0  0.81284  0.73326  0.36641  1.0000
  C   C1223     1.0  0.67553  0.78969  0.42756  1.0000
  C   C1224     1.0  0.95869  0.59458  0.22525  1.0000
  H   H986      1.0  0.82613  0.50696  0.40562  1.0000
  C   C1225     1.0  0.85919  0.70829  0.40254  1.0000
  C   C1226     1.0  0.84341  0.71383  0.37665  1.0000
  C   C1227     1.0  0.82526  0.72933  0.38628  1.0000
  H   H987      1.0  0.66263  0.96850  0.14412  1.0000
  H   H988      1.0  0.70156  0.75234  0.04997  1.0000
  H   H989      1.0  0.73212  0.60504  0.13111  1.0000
  H   H990      1.0  0.85328  0.52308  0.03646  1.0000
  H   H991      1.0  0.87679  0.56224  0.04743  1.0000
  H   H992      1.0  0.76195  0.71758  0.26146  1.0000
  H   H993      1.0  0.85741  0.52970  0.43265  1.0000
  C   C1228     1.0  0.72428  0.77862  0.07458  1.0000
  C   C1229     1.0  0.81515  0.55161  0.33701  1.0000
  C   C1230     1.0  0.91369  0.62577  0.99438  1.0000
  C   C1231     1.0  0.97553  0.59567  0.03291  1.0000
  C   C1232     1.0  0.75104  0.71143  0.24043  1.0000
  H   H994      1.0  0.83589  0.56017  0.29108  1.0000
  H   H995      1.0  0.86406  0.52757  0.30996  1.0000
  H   H996      1.0  0.87297  0.69561  0.39550  1.0000
  H   H997      1.0  0.84499  0.70554  0.34942  1.0000
  C   C1233     1.0  0.73411  0.62308  0.11438  1.0000
  C   C1234     1.0  0.96351  0.54425  0.38306  1.0000
  C   C1235     1.0  0.95077  0.58792  0.26011  1.0000
  H   H998      1.0  0.70094  0.80179  0.39083  1.0000
  C   C1236     1.0  0.68397  0.97324  0.44706  1.0000
  H   H999      1.0  0.90535  0.51493  0.33758  1.0000
  C   C1237     1.0  0.71389  0.96558  0.48712  1.0000
  H   H1000     1.0  0.73367  0.64366  0.02539  1.0000
  H   H1001     1.0  0.78835  0.54649  0.15166  1.0000
  H   H1002     1.0  0.80678  0.85514  0.46825  1.0000
  C   C1238     1.0  0.67261  0.97955  0.16265  1.0000
  H   H1003     1.0  0.97029  0.49159  0.30559  1.0000
  H   H1004     1.0  0.95002  0.58863  0.20122  1.0000
  C   C1239     1.0  0.79154  0.52671  0.13983  1.0000
  C   C1240     1.0  0.82838  0.51813  0.38033  1.0000
  C   C1241     1.0  0.69362  0.98586  0.15225  1.0000
  H   H1005     1.0  0.68139  0.89127  0.27571  1.0000
  H   H1006     1.0  0.95864  0.53838  0.29082  1.0000
  C   C1242     1.0  0.74321  0.76115  0.48080  1.0000
  C   C1243     1.0  0.74107  0.73156  0.10810  1.0000
  C   C1244     1.0  0.91811  0.51161  0.43862  1.0000
  H   H1007     1.0  0.91992  0.63124  0.02066  1.0000
  H   H1008     1.0  0.72497  0.70386  0.27834  1.0000
  H   H1009     1.0  0.78360  0.73055  0.08192  1.0000
  H   H1010     1.0  0.68467  0.77282  0.43900  1.0000
  C   C1245     1.0  0.96178  0.53298  0.31891  1.0000
  C   C1246     1.0  0.97356  0.62022  0.05138  1.0000
  H   H1011     1.0  0.71827  0.79655  0.06042  1.0000
  C   C1247     1.0  0.74401  0.70229  0.17660  1.0000
  C   C1248     1.0  0.78146  0.70061  0.12554  1.0000
  C   C1249     1.0  0.68245  0.92145  0.35876  1.0000
  H   H1012     1.0  0.69991  0.97961  0.12579  1.0000
  C   C1250     1.0  0.74402  0.67038  0.10872  1.0000
  C   C1251     1.0  0.74988  0.75696  0.11512  1.0000
  C   C1252     1.0  0.71607  0.69590  0.22282  1.0000
  H   H1013     1.0  0.92148  0.62442  0.30000  1.0000
  C   C1253     1.0  0.84972  0.52957  0.32675  1.0000
  C   C1254     1.0  0.88757  0.63485  0.46862  1.0000
  C   C1255     1.0  0.88392  0.50660  0.40838  1.0000
  C   C1256     1.0  0.78499  0.50095  0.44868  1.0000
  H   H1014     1.0  0.97414  0.51205  0.41885  1.0000
  H   H1015     1.0  0.74884  0.79980  0.10278  1.0000
  C   C1257     1.0  0.74162  0.78035  0.09815  1.0000
  C   C1258     1.0  0.98226  0.49448  0.00703  1.0000
  H   H1016     1.0  0.96146  0.55842  0.40533  1.0000
  C   C1259     1.0  0.90858  0.52987  0.46304  1.0000
  C   C1260     1.0  0.85687  0.71824  0.43805  1.0000
  C   C1261     1.0  0.81476  0.71607  0.09750  1.0000
  H   H1017     1.0  0.70827  0.98117  0.37117  1.0000
  C   C1262     1.0  0.76354  0.72139  0.00215  1.0000
  H   H1018     1.0  0.84380  0.69695  0.11721  1.0000
  H   H1019     1.0  0.86929  0.71340  0.45744  1.0000
  C   C1263     1.0  0.66663  0.90649  0.37685  1.0000
  C   C1264     1.0  0.83850  0.73342  0.44815  1.0000
  C   C1265     1.0  0.75788  0.71103  0.20385  1.0000
  C   C1266     1.0  0.92683  0.60549  0.47177  1.0000
  H   H1020     1.0  0.93601  0.57670  0.26256  1.0000
  C   C1267     1.0  0.97046  0.51781  0.39099  1.0000
  C   C1268     1.0  0.75203  0.70502  0.46595  1.0000
  C   C1269     1.0  0.87436  0.52452  0.43362  1.0000
  H   H1021     1.0  0.79823  0.53976  0.38617  1.0000
  C   C1270     1.0  0.73019  0.70372  0.24994  1.0000
  H   H1022     1.0  0.68085  0.84094  0.36586  1.0000
  C   C1271     1.0  0.81572  0.68136  0.14464  1.0000
  H   H1023     1.0  0.77400  0.71738  0.19706  1.0000
  C   C1272     1.0  0.96837  0.50637  0.32712  1.0000
  S   S170      1.0  0.80643  0.62155  0.47516  1.0000
  H   H1024     1.0  0.85593  0.79317  0.46227  1.0000
  C   C1273     1.0  0.83993  0.79955  0.47091  1.0000
  C   C1274     1.0  0.74194  0.66870  0.07070  1.0000
  C   C1275     1.0  0.98870  0.61699  0.25236  1.0000
  C   C1276     1.0  0.79902  0.52486  0.10379  1.0000
  C   C1277     1.0  0.99095  0.62313  0.40923  1.0000
  S   S171      1.0  0.95014  0.58476  0.47465  1.0000
  C   C1278     1.0  0.67706  0.89577  0.30382  1.0000
  H   H1025     1.0  0.71177  0.68932  0.16546  1.0000
  S   S172      1.0  0.75650  0.66956  0.45657  1.0000
  H   H1026     1.0  0.69985  0.69011  0.23016  1.0000
  C   C1279     1.0  0.71487  0.75360  0.06860  1.0000
  H   H1027     1.0  0.81235  0.69499  0.47929  1.0000
  C   C1280     1.0  0.69557  0.95570  0.47046  1.0000
  C   C1281     1.0  0.79233  0.71715  0.10015  1.0000
  C   C1282     1.0  0.88980  0.61215  0.31586  1.0000
  C   C1283     1.0  0.87756  0.59424  0.33687  1.0000
  C   C1284     1.0  0.88765  0.57412  0.35783  1.0000
  C   C1285     1.0  0.91004  0.57147  0.35729  1.0000
  C   C1286     1.0  0.92248  0.58914  0.33582  1.0000
  C   C1287     1.0  0.91221  0.60987  0.31564  1.0000
  P   P43       1.0  0.95143  0.58681  0.33644  1.0000
  C   C1288     1.0  0.96165  0.60910  0.37084  1.0000
  C   C1289     1.0  0.95951  0.55223  0.34681  1.0000
  C   C1290     1.0  0.88039  0.54852  0.02513  1.0000
  C   C1291     1.0  0.79331  0.68233  0.14725  1.0000
  H   H1028     1.0  0.82305  0.72856  0.07750  1.0000
  C   C1292     1.0  0.84716  0.51439  0.35924  1.0000
  H   H1029     1.0  0.80138  0.54308  0.08759  1.0000
  C   C1293     1.0  0.94838  0.62917  0.38677  1.0000
  C   C1294     1.0  0.95639  0.64606  0.41363  1.0000
  C   C1295     1.0  0.82283  0.73911  0.42185  1.0000
  H   H1030     1.0  0.94591  0.66098  0.42656  1.0000
  H   H1031     1.0  0.74371  0.64718  0.15940  1.0000
  C   C1296     1.0  0.96179  0.59573  0.29147  1.0000
  C   C1297     1.0  0.78814  0.50310  0.16040  1.0000
  H   H1032     1.0  0.67997  0.97722  0.32516  1.0000
  Fe  Fe86      1.0  0.79122  0.63864  0.00977  1.0000
  C   C1298     1.0  0.68769  0.91612  0.32226  1.0000
  H   H1033     1.0  0.87931  0.55072  0.47914  1.0000
  H   H1034     1.0  0.88179  0.62805  0.30025  1.0000
  H   H1035     1.0  0.86023  0.59629  0.33739  1.0000
  H   H1036     1.0  0.87803  0.56106  0.37511  1.0000
  H   H1037     1.0  0.91757  0.55610  0.37434  1.0000
  H   H1038     1.0  0.69106  0.93660  0.37367  1.0000
  C   C1299     1.0  0.72289  0.69539  0.18623  1.0000
  H   H1039     1.0  0.75942  0.76263  0.02083  1.0000
  C   C1300     1.0  0.73512  0.64476  0.05484  1.0000
  C   C1301     1.0  0.68470  0.80609  0.40041  1.0000
  H   H1040     1.0  0.74572  0.68577  0.05319  1.0000
  C   C1302     1.0  0.67321  0.82841  0.38645  1.0000
  H   H1041     1.0  0.70028  0.92742  0.30855  1.0000
  C   C1303     1.0  0.90584  0.49989  0.41153  1.0000
  C   C1304     1.0  0.76120  0.75289  0.45955  1.0000
  H   H1042     1.0  0.92554  0.50322  0.28139  1.0000
  H   H1043     1.0  0.98377  0.65590  0.44598  1.0000
  C   C1305     1.0  0.97765  0.60910  0.22137  1.0000
  C   C1306     1.0  0.98083  0.61036  0.28727  1.0000
  H   H1044     1.0  0.90840  0.57007  0.00716  1.0000
  C   C1307     1.0  0.82607  0.78105  0.48808  1.0000
  H   H1045     1.0  0.96399  0.59056  0.01228  1.0000
  C   C1308     1.0  0.80320  0.49952  0.08836  1.0000
  C   C1309     1.0  0.89810  0.55312  0.00218  1.0000
  H   H1046     1.0  0.98963  0.61687  0.31076  1.0000
  H   H1047     1.0  0.84389  0.84048  0.45106  1.0000
  H   H1048     1.0  0.77577  0.71619  0.02172  1.0000
  C   C1310     1.0  0.99236  0.57759  0.04099  1.0000
  C   C1311     1.0  0.66702  0.91465  0.03049  1.0000
  H   H1049     1.0  0.97175  0.50539  0.02575  1.0000
  C   C1312     1.0  0.97766  0.64308  0.42479  1.0000
  H   H1050     1.0  0.66468  0.95429  0.26677  1.0000
  C   C1313     1.0  0.86716  0.52652  0.01890  1.0000
  C   C1314     1.0  0.90098  0.49714  0.32258  1.0000
  C   C1315     1.0  0.81223  0.83456  0.47386  1.0000
  C   C1316     1.0  0.75421  0.74782  0.00146  1.0000
  H   H1051     1.0  0.80905  0.49845  0.06042  1.0000
  H   H1052     1.0  0.93504  0.50656  0.44070  1.0000
  H   H1053     1.0  0.96049  0.63419  0.04494  1.0000
  S   S173      1.0  0.73894  0.79672  0.48957  1.0000
  C   C1317     1.0  0.73397  0.71327  0.48713  1.0000
  C   C1318     1.0  0.97935  0.49215  0.48964  1.0000
  H   H1054     1.0  0.99343  0.59047  0.37121  1.0000
  S   S174      1.0  0.68647  0.84407  0.48611  1.0000
  C   C1319     1.0  0.98832  0.62660  0.07827  1.0000
  H   H1055     1.0  0.99349  0.55858  0.02646  1.0000
  C   C1320     1.0  0.99361  0.50204  0.13286  1.0000
  C   C1321     1.0  0.66125  0.88066  0.32193  1.0000
  C   C1322     1.0  0.79812  0.81606  0.48989  1.0000
  C   C1323     1.0  0.87663  0.54012  0.56770  1.0000
  H   H1056     1.0  0.66521  0.81663  0.74040  1.0000
  Fe  Fe87      1.0  0.69868  0.85496  0.58831  1.0000
  S   S175      1.0  0.72199  0.86513  0.54198  1.0000
  S   S176      1.0  0.70911  0.86499  0.64687  1.0000
  Fe  Fe88      1.0  0.97921  0.59396  0.50879  1.0000
  S   S177      1.0  0.99314  0.63412  0.63037  1.0000
  Fe  Fe89      1.0  0.71327  0.82449  0.51806  1.0000
  H   H1057     1.0  0.98142  0.64441  0.70538  1.0000
  S   S178      1.0  0.67065  0.87594  0.56066  1.0000
  S   S179      1.0  0.69172  0.81366  0.56578  1.0000
  H   H1058     1.0  0.99330  0.62347  0.76408  1.0000
  H   H1059     1.0  0.85932  0.53805  0.56762  1.0000
  H   H1060     1.0  0.90182  0.66129  0.50762  1.0000
  S   S180      1.0  0.67440  0.81661  0.91488  1.0000
  C   C1324     1.0  0.95388  0.50898  0.61569  1.0000
  H   H1061     1.0  0.68978  0.69187  0.63399  1.0000
  H   H1062     1.0  0.77271  0.68580  0.57510  1.0000
  H   H1063     1.0  0.71804  0.78640  0.76350  1.0000
  S   S181      1.0  0.69441  0.85820  0.97394  1.0000
  Fe  Fe90      1.0  0.68892  0.84304  0.86999  1.0000
  S   S182      1.0  0.72094  0.84564  0.89785  1.0000
  S   S183      1.0  0.68164  0.83037  0.81081  1.0000
  Fe  Fe91      1.0  0.70620  0.82065  0.94371  1.0000
  C   C1325     1.0  0.75702  0.70165  0.97758  1.0000
  Fe  Fe92      1.0  0.70689  0.88269  0.92649  1.0000
  S   S184      1.0  0.72645  0.92101  0.93571  1.0000
  H   H1064     1.0  0.89028  0.69241  0.55795  1.0000
  S   S185      1.0  0.67633  0.88167  0.89511  1.0000
  C   C1326     1.0  0.88969  0.51932  0.58194  1.0000
  H   H1065     1.0  0.95127  0.66455  0.92968  1.0000
  Fe  Fe93      1.0  0.97252  0.59739  0.89032  1.0000
  S   S186      1.0  0.93717  0.61026  0.89166  1.0000
  C   C1327     1.0  0.67502  0.75030  0.73769  1.0000
  C   C1328     1.0  0.72200  0.95311  0.95710  1.0000
  C   C1329     1.0  0.70214  0.96718  0.95791  1.0000
  C   C1330     1.0  0.70677  0.68903  0.63893  1.0000
  H   H1066     1.0  0.89136  0.60807  0.89968  1.0000
  H   H1067     1.0  0.68290  0.77120  0.78700  1.0000
  C   C1331     1.0  0.81095  0.53723  0.65630  1.0000
  H   H1068     1.0  0.86547  0.53313  0.65986  1.0000
  C   C1332     1.0  0.78464  0.69719  0.55990  1.0000
  C   C1333     1.0  0.96701  0.67213  0.92236  1.0000
  C   C1334     1.0  0.91127  0.55435  0.85495  1.0000
  C   C1335     1.0  0.92006  0.61399  0.93062  1.0000
  C   C1336     1.0  0.84482  0.49978  0.64826  1.0000
  H   H1069     1.0  0.67556  0.82891  0.67651  1.0000
  C   C1337     1.0  0.90688  0.51266  0.88991  1.0000
  C   C1338     1.0  0.73201  0.73572  0.95108  1.0000
  C   C1339     1.0  0.86618  0.71623  0.53010  1.0000
  S   S187      1.0  0.99089  0.57932  0.93723  1.0000
  H   H1070     1.0  0.71570  0.74684  0.51088  1.0000
  C   C1340     1.0  0.99224  0.53114  0.64072  1.0000
  H   H1071     1.0  0.81417  0.75422  0.56514  1.0000
  H   H1072     1.0  0.93864  0.54430  0.64045  1.0000
  C   C1341     1.0  0.73824  0.75529  0.97608  1.0000
  H   H1073     1.0  0.90678  0.57535  0.84984  1.0000
  C   C1342     1.0  0.70088  0.85529  0.69216  1.0000
  C   C1343     1.0  0.68410  0.83736  0.69912  1.0000
  C   C1344     1.0  0.67826  0.83044  0.73550  1.0000
  C   C1345     1.0  0.68915  0.84108  0.76554  1.0000
  C   C1346     1.0  0.70594  0.85897  0.75856  1.0000
  C   C1347     1.0  0.71173  0.86598  0.72218  1.0000
  C   C1348     1.0  0.66911  0.76490  0.61849  1.0000
  C   C1349     1.0  0.84906  0.52677  0.65637  1.0000
  H   H1074     1.0  0.71455  0.86732  0.78117  1.0000
  H   H1075     1.0  0.72474  0.87986  0.71725  1.0000
  H   H1076     1.0  0.78721  0.72820  0.60043  1.0000
  C   C1350     1.0  0.88588  0.56360  0.55329  1.0000
  C   C1351     1.0  0.95356  0.53332  0.63541  1.0000
  C   C1352     1.0  0.88842  0.51487  0.96494  1.0000
  C   C1353     1.0  0.68825  0.76550  0.75978  1.0000
  H   H1077     1.0  0.73029  0.77440  0.70110  1.0000
  C   C1354     1.0  0.70814  0.77408  0.74642  1.0000
  C   C1355     1.0  0.91211  0.52196  0.58198  1.0000
  H   H1078     1.0  0.77342  0.52590  0.95358  1.0000
  C   C1356     1.0  0.68649  0.74716  0.61125  1.0000
  H   H1079     1.0  0.79781  0.55170  0.65968  1.0000
  C   C1357     1.0  0.79274  0.72107  0.57400  1.0000
  C   C1358     1.0  0.98687  0.50538  0.97224  1.0000
  C   C1359     1.0  0.99298  0.62781  0.70513  1.0000
  C   C1360     1.0  0.84936  0.50043  0.90930  1.0000
  H   H1080     1.0  0.90964  0.73240  0.58017  1.0000
  Fe  Fe94      1.0  0.66533  0.83557  0.53491  1.0000
  H   H1081     1.0  0.98546  0.52517  0.52542  1.0000
  P   P44       1.0  0.89297  0.49393  0.92532  1.0000
  H   H1082     1.0  0.87582  0.57977  0.54218  1.0000
  C   C1361     1.0  0.92367  0.50063  0.86942  1.0000
  S   S188      1.0  0.98100  0.56338  0.85181  1.0000
  C   C1362     1.0  0.88451  0.71269  0.55131  1.0000
  H   H1083     1.0  0.78166  0.82218  0.49617  1.0000
  P   P45       1.0  0.70912  0.74542  0.64147  1.0000
  C   C1363     1.0  0.70116  0.75344  0.68785  1.0000
  C   C1364     1.0  0.72003  0.71138  0.64373  1.0000
  H   H1084     1.0  0.73607  0.69440  0.93252  1.0000
  H   H1085     1.0  0.66873  0.77731  0.64273  1.0000
  C   C1365     1.0  0.73726  0.65854  0.64714  1.0000
  C   C1366     1.0  0.75045  0.68068  0.65287  1.0000
  C   C1367     1.0  0.74185  0.70703  0.65140  1.0000
  C   C1368     1.0  0.68150  0.74411  0.70195  1.0000
  C   C1369     1.0  0.68736  0.73325  0.57794  1.0000
  H   H1086     1.0  0.76215  0.82705  0.95073  1.0000
  C   C1370     1.0  0.79199  0.68786  0.52600  1.0000
  C   C1371     1.0  0.71476  0.76776  0.71076  1.0000
  C   C1372     1.0  0.72863  0.76780  0.62109  1.0000
  C   C1373     1.0  0.74168  0.75846  0.59207  1.0000
  C   C1374     1.0  0.75590  0.77592  0.57427  1.0000
  C   C1375     1.0  0.75710  0.80289  0.58494  1.0000
  C   C1376     1.0  0.74400  0.81245  0.61346  1.0000
  C   C1377     1.0  0.72952  0.79513  0.63110  1.0000
  H   H1087     1.0  0.86628  0.61640  0.95186  1.0000
  C   C1378     1.0  0.92130  0.54509  0.56598  1.0000
  C   C1379     1.0  0.92377  0.62873  0.49288  1.0000
  C   C1380     1.0  0.80789  0.73583  0.55384  1.0000
  H   H1088     1.0  0.70112  0.72055  0.57085  1.0000
  S   S189      1.0  0.72671  0.78916  0.97705  1.0000
  H   H1089     1.0  0.97236  0.56335  0.66245  1.0000
  H   H1090     1.0  0.74393  0.63812  0.64815  1.0000
  H   H1091     1.0  0.76733  0.67741  0.65852  1.0000
  H   H1092     1.0  0.75220  0.72399  0.65622  1.0000
  H   H1093     1.0  0.78586  0.66919  0.51527  1.0000
  S   S190      1.0  0.76794  0.66749  0.97754  1.0000
  H   H1094     1.0  0.88745  0.54910  0.89723  1.0000
  C   C1381     1.0  0.90218  0.53636  0.97222  1.0000
  H   H1095     1.0  0.81558  0.50470  0.89838  1.0000
  H   H1096     1.0  0.74038  0.73796  0.58219  1.0000
  H   H1097     1.0  0.76519  0.76883  0.55097  1.0000
  H   H1098     1.0  0.76754  0.81666  0.57017  1.0000
  H   H1099     1.0  0.74446  0.83362  0.62091  1.0000
  H   H1100     1.0  0.71855  0.80348  0.65146  1.0000
  C   C1382     1.0  0.88342  0.61745  0.95575  1.0000
  C   C1383     1.0  0.83214  0.54553  0.66015  1.0000
  C   C1384     1.0  0.80044  0.50450  0.97662  1.0000
  C   C1385     1.0  0.73991  0.96586  0.97140  1.0000
  C   C1386     1.0  0.67071  0.73624  0.55293  1.0000
  H   H1101     1.0  0.84953  0.51894  0.92492  1.0000
  H   H1102     1.0  0.91542  0.58397  0.54064  1.0000
  H   H1103     1.0  0.71977  0.74087  0.93148  1.0000
  C   C1387     1.0  0.74129  0.70924  0.95186  1.0000
  H   H1104     1.0  0.93695  0.55441  0.81503  1.0000
  C   C1388     1.0  0.77835  0.77875  0.74360  1.0000
  C   C1389     1.0  0.79959  0.77213  0.73407  1.0000
  C   C1390     1.0  0.81351  0.76170  0.76054  1.0000
  C   C1391     1.0  0.80619  0.75779  0.79650  1.0000
  C   C1392     1.0  0.78472  0.76376  0.80609  1.0000
  C   C1393     1.0  0.77095  0.77469  0.77948  1.0000
  P   P46       1.0  0.77563  0.76054  0.85303  1.0000
  C   C1394     1.0  0.74719  0.75358  0.85373  1.0000
  C   C1395     1.0  0.78948  0.73279  0.87587  1.0000
  C   C1396     1.0  0.79501  0.70911  0.85664  1.0000
  C   C1397     1.0  0.80477  0.68710  0.87463  1.0000
  C   C1398     1.0  0.80902  0.68851  0.91192  1.0000
  C   C1399     1.0  0.80363  0.71197  0.93119  1.0000
  C   C1400     1.0  0.79377  0.73397  0.91339  1.0000
  C   C1401     1.0  0.73989  0.72680  0.85546  1.0000
  C   C1402     1.0  0.71788  0.72163  0.85614  1.0000
  C   C1403     1.0  0.70299  0.74310  0.85523  1.0000
  C   C1404     1.0  0.71012  0.76974  0.85333  1.0000
  C   C1405     1.0  0.73209  0.77501  0.85235  1.0000
  C   C1406     1.0  0.78018  0.79203  0.87623  1.0000
  C   C1407     1.0  0.79491  0.81091  0.86232  1.0000
  C   C1408     1.0  0.79769  0.83555  0.88013  1.0000
  C   C1409     1.0  0.78590  0.84141  0.91198  1.0000
  C   C1410     1.0  0.77147  0.82256  0.92618  1.0000
  C   C1411     1.0  0.76858  0.79806  0.90830  1.0000
  H   H1105     1.0  0.76768  0.78747  0.72332  1.0000
  H   H1106     1.0  0.80533  0.77547  0.70632  1.0000
  H   H1107     1.0  0.83008  0.75695  0.75330  1.0000
  H   H1108     1.0  0.81735  0.75041  0.81690  1.0000
  H   H1109     1.0  0.75460  0.78048  0.78647  1.0000
  H   H1110     1.0  0.79129  0.70735  0.82798  1.0000
  H   H1111     1.0  0.80864  0.66867  0.85996  1.0000
  H   H1112     1.0  0.95681  0.68789  0.87036  1.0000
  H   H1113     1.0  0.67162  0.72578  0.52706  1.0000
  H   H1114     1.0  0.78907  0.75143  0.92937  1.0000
  H   H1115     1.0  0.75103  0.70982  0.85700  1.0000
  H   H1116     1.0  0.71236  0.70097  0.85821  1.0000
  H   H1117     1.0  0.94790  0.50665  0.82754  1.0000
  H   H1118     1.0  0.69858  0.78639  0.85292  1.0000
  H   H1119     1.0  0.73719  0.79586  0.85079  1.0000
  H   H1120     1.0  0.80412  0.80687  0.83766  1.0000
  H   H1121     1.0  0.80883  0.85023  0.86910  1.0000
  H   H1122     1.0  0.75537  0.95553  0.97066  1.0000
  H   H1123     1.0  0.75710  0.78385  0.91926  1.0000
  C   C1412     1.0  0.89131  0.62451  0.98988  1.0000
  C   C1413     1.0  0.97264  0.54424  0.64799  1.0000
  C   C1414     1.0  0.90050  0.53948  0.88202  1.0000
  C   C1415     1.0  0.89771  0.61261  0.92622  1.0000
  H   H1124     1.0  0.70518  0.64551  0.63619  1.0000
  C   C1416     1.0  0.93449  0.51566  0.84247  1.0000
  C   C1417     1.0  0.92801  0.62015  0.96507  1.0000
  H   H1125     1.0  0.98002  0.52474  0.96419  1.0000
  C   C1418     1.0  0.81472  0.72707  0.51910  1.0000
  H   H1126     1.0  0.88231  0.50118  0.59269  1.0000
  C   C1419     1.0  0.97379  0.49624  0.60802  1.0000
  H   H1127     1.0  0.67103  0.73231  0.68520  1.0000
  C   C1420     1.0  0.78184  0.50662  0.95572  1.0000
  C   C1421     1.0  0.92832  0.54253  0.83533  1.0000
  H   H1128     1.0  0.83542  0.56646  0.66641  1.0000
  H   H1129     1.0  0.94514  0.62155  0.96871  1.0000
  H   H1130     1.0  0.68593  0.73918  0.85644  1.0000
  H   H1131     1.0  0.93858  0.54712  0.56391  1.0000
  Fe  Fe95      1.0  0.69336  0.88384  0.51317  1.0000
  C   C1422     1.0  0.71542  0.66271  0.64036  1.0000
  C   C1423     1.0  0.90819  0.56599  0.55235  1.0000
  H   H1132     1.0  0.98201  0.65691  0.97126  1.0000
  S   S191      1.0  0.98400  0.57532  0.56432  1.0000
  P   P47       1.0  0.92896  0.49492  0.59981  1.0000
  H   H1133     1.0  0.68825  0.95786  0.94634  1.0000
  H   H1134     1.0  0.92158  0.51156  0.67646  1.0000
  C   C1424     1.0  0.80666  0.51024  0.64823  1.0000
  C   C1425     1.0  0.91383  0.49247  0.67233  1.0000
  H   H1135     1.0  0.78777  0.86063  0.92553  1.0000
  H   H1136     1.0  0.72309  0.95245  0.50508  1.0000
  S   S192      1.0  0.81749  0.61387  0.98074  1.0000
  C   C1426     1.0  0.83003  0.49258  0.89395  1.0000
  H   H1137     1.0  0.80632  0.71262  0.96036  1.0000
  H   H1138     1.0  0.81598  0.67119  0.92621  1.0000
  H   H1139     1.0  0.85791  0.69848  0.52071  1.0000
  P   P48       1.0  0.83465  0.74610  0.49398  1.0000
  H   H1140     1.0  0.79014  0.50402  0.64586  1.0000
  H   H1141     1.0  0.91586  0.54055  0.95458  1.0000
  C   C1427     1.0  0.72962  0.74101  0.49461  1.0000
  C   C1428     1.0  0.98430  0.66791  0.94577  1.0000
  H   H1142     1.0  0.79862  0.49205  0.57667  1.0000
  C   C1429     1.0  0.88776  0.76131  0.55549  1.0000
  C   C1430     1.0  0.89538  0.73521  0.56384  1.0000
  H   H1143     1.0  0.86359  0.78530  0.52894  1.0000
  Fe  Fe96      1.0  0.66394  0.85585  0.94181  1.0000
  C   C1431     1.0  0.80495  0.78940  0.49680  1.0000
  H   H1144     1.0  0.89606  0.77876  0.56558  1.0000
  H   H1145     1.0  0.82804  0.49526  0.50413  1.0000
  H   H1146     1.0  0.72319  0.69804  0.49773  1.0000
  H   H1147     1.0  0.79340  0.77528  0.50766  1.0000
  H   H1148     1.0  0.93632  0.63511  0.51085  1.0000
  C   C1432     1.0  0.97014  0.68537  0.88886  1.0000
  C   C1433     1.0  0.86939  0.76493  0.53427  1.0000
  C   C1434     1.0  0.85868  0.74237  0.52080  1.0000
  C   C1435     1.0  0.80695  0.70269  0.50554  1.0000
  H   H1149     1.0  0.91907  0.49292  0.52124  1.0000
  C   C1436     1.0  0.99199  0.50697  0.51319  1.0000
  C   C1437     1.0  0.99280  0.50719  0.62079  1.0000
  H   H1150     1.0  0.70397  0.99115  0.83324  1.0000
  C   C1438     1.0  0.99057  0.69435  0.87864  1.0000
  C   C1439     1.0  0.82361  0.49148  0.64331  1.0000
  H   H1151     1.0  0.86081  0.49271  0.98460  1.0000
  C   C1440     1.0  0.87131  0.50953  0.98919  1.0000
  H   H1152     1.0  0.99283  0.70385  0.85209  1.0000
