data_image0
_chemical_formula_structural       HFeS2CFeSHSFeC2FeS2FeHFeS2FeS2FeS2FeSFeS3C6H4C3H2C2H2C5HC6H4C2HC2HCSCHPC4H3C3HCHCH2C2HC2HC2HCH3CHC3H2C4H4C3HCH3CPC16HCHCH2CH15SHCH2C2H2CH2C2PC2HC7PC2HC2H8C7HC5H3C3HC3H3SCHC5HC3HCSHFeH3CH3C3H6CSFeS2H2FeHS2FeS2FeSFeSH2S2FeS2FeS2FeSFeS3CHCH4CH3C6H4C3HC5HC6H3C3HC2PHC3H4C6HC3FeHC4PH2CPC2HC2H3CHCHC5H2CH2C4H2CH3CHC4HC2HCHCHC6H5C4H5C2HCHC9H2PHC3HC2H3C2SH7FeC2HCHFeCH3C2H5C2PHCHC5H2CHC10HC8HCHC2H2CHC3H2CH7C2H4CH3CHFeS2FeS2FeSFeS3C10H3C6H5C2HC7H3C5HCHCHC2H3CPC2HC2HCHC3PCHCHC3H2CH6S2HC2H5CH2CHC3HC4H2CHCHCHC3H3CHCH2C2HC2H3CHSH5CH2C2HCH4C3HC4FeS2FeS2FeSFeS3HC8H4C6H4C3H2C6H3C2H2C2HCHCHC2H3C2SHCHC2HCH2PHC3HC2H3CHC3H2CHCH6C2H2C2PC2H2C2HCHC5HCH2CH2C5HCHCH2C3HC2H4CH3C2HC3HC2PC2HC2H3CH2C8HC2H3CPSCH2CHC6HFeS2FeS2FeSFeS3FeS2FeSFeSFeS3FeS2FeCFeHS2C3H2C6H6C7H4C3HCH2C3H4CHCH2CHC6PC18H7CH3CH6C3PC2HC4HC3H7FeHCSCHCH2C4HC3HC3HC2HCH2CHC4HCHCH2C3HPHC2H2C3PC3HC4H6SHCH2CH3CH2CH4C2HC3H5C5H2CHCHC2H2CH3PC2FeS2FeS2FeSFeS3FeS2FeSFeSFeS3HS2FeSFeS3C2H2C7H4C5H2C6H9C4H5C3H2CHC10HC2H3C2HCHCHCH3CHFeCPHCH2CHC3HCHC2H3CHCH2C6H7C2PC6HC3H9C9H2C4H2C2HC4PFeCH4CHCH2CHCH7C4HC3H2C4H2C4HC2HC3HC2HCH2CH3C7HCH2CHCHCHSC4H2PH2CH3CFeS2FeSHFeSFeS3CHFeS2FeS2FeSFeS3C6H4C3HC7H4C6H4C3H3C2H2CPH2C6PC13H2CH9CH2CH5CHCHSH2C3HC6HC3HC3H2C2HCH6CH2C4H3C5H2CPC6HC4HC3SH6C2HC3H2C3H2CH4C2HC3H5PHC2H3C2SCH3C5H3CHFeHCFeS2FeSHFeSFeS3HSFeS2FeS2FeSFeS3C4HC3HC2H2CHC4HC6H4C6H4C3H3C3HCH3CHCH2C2H2CHCHCHPH4CH2CPCHC2H4CHCHCH3C6PC7HC8H8CH4SH2CHCHCHSC7PC2H2CH2CH3C2HC2H2CHC2H3C4HC2H2C2HC2HCH2C2HCHCH2CHCHCHC2HC3HPC4H2CH2C3HCHC6H2C2HC4HCHFeS2FeS2FeSFeS3CHSHCHC6HC2HC6H4C6H4C3HCH5CH2CH2C5HCHC4HC8H4CH2C3HCHCH3CH2CHCPC3H2CHC2PHC3HC2HCHCHSH3C7H2C3HC3HPC8HC3HCH2CH6C4HCHC5HC2HC4H7C2HPHC2H2CPHCH2CHCH3CHC2HC2H3C2H4CFeS2FeS2FeSFeS3CHSHCHC6HCH2C6H4CHC2HC6H6CHC3HCH2PHC8PC18H20C4HC5SC2HC4HPHCHCH6CHCHCHCH2C2HC4HC4H4C2H7SFeSCFeSFeSCFeS2FeS2FeSFeS3HC6H4C4H4CHC6H5C4H3PC2H3CHSC6H2C2H2C7PC18H6CH13SCH2CH3CHC5H3CPHC2H2C8HC3H4CH2CH4C3HCHSH3C5H2C3PHCH3CH3C3HC2H3C3HC4HCH2CHFeH2C2H2C2H3C3HCHCH3C2HCHC4HC2SHC2HCHFeSCSFeSFeSCFeS2FeS2FeSFeS3C7H3C3HC2H2C2HC2H2C6H4C4H2SHC2SPC2H2C2SC4H3CHC2HCHC2FeCH2CHC2HC2HC2HC2H2CH2CH4SH5C5HCHC2H8CHC3HCH2C2H5CHCHC3H3C6PC2HCH2C12H9CH3PC2HC3H3C2
_chemical_formula_sum              "H1152 Fe96 S192 C1440 P48"
_cell_length_a       52.5155
_cell_length_b       54.9171
_cell_length_c       44.0772
_cell_angle_alpha    90.3537
_cell_angle_beta     90.1276
_cell_angle_gamma    118.953

_space_group_name_H-M_alt    "P 1"
_space_group_IT_number       1

loop_
  _space_group_symop_operation_xyz
  'x, y, z'

loop_
  _atom_site_type_symbol
  _atom_site_label
  _atom_site_symmetry_multiplicity
  _atom_site_fract_x
  _atom_site_fract_y
  _atom_site_fract_z
  _atom_site_occupancy
  H   H1        1.0  0.03567  0.19173  0.08406  1.0000
  Fe  Fe1       1.0  0.42289  0.21715  0.15251  1.0000
  S   S1        1.0  0.43500  0.20834  0.10595  1.0000
  S   S2        1.0  0.37995  0.18245  0.17213  1.0000
  C   C1        1.0  0.02907  0.22099  0.11114  1.0000
  Fe  Fe2       1.0  0.44608  0.25189  0.09401  1.0000
  S   S3        1.0  0.43741  0.26572  0.04829  1.0000
  H   H2        1.0  0.13089  0.22879  0.47990  1.0000
  S   S4        1.0  0.43084  0.25990  0.13905  1.0000
  Fe  Fe3       1.0  0.03855  0.26327  0.32365  1.0000
  C   C2        1.0  0.23756  0.16250  0.48102  1.0000
  C   C3        1.0  0.12506  0.30914  0.15795  1.0000
  Fe  Fe4       1.0  0.08519  0.24489  0.32378  1.0000
  S   S5        1.0  0.12132  0.28841  0.33242  1.0000
  S   S6        1.0  0.08749  0.20426  0.32086  1.0000
  Fe  Fe5       1.0  0.09101  0.29136  0.36644  1.0000
  H   H3        1.0  0.09226  0.20348  0.25120  1.0000
  Fe  Fe6       1.0  0.09936  0.30241  0.29768  1.0000
  S   S7        1.0  0.05623  0.24717  0.36009  1.0000
  S   S8        1.0  0.06503  0.25815  0.28641  1.0000
  Fe  Fe7       1.0  0.26130  0.14706  0.31230  1.0000
  S   S9        1.0  0.21685  0.13597  0.29386  1.0000
  S   S10       1.0  0.30650  0.17485  0.29142  1.0000
  Fe  Fe8       1.0  0.23582  0.12327  0.37561  1.0000
  S   S11       1.0  0.18991  0.11084  0.36176  1.0000
  S   S12       1.0  0.24792  0.11180  0.42063  1.0000
  Fe  Fe9       1.0  0.20100  0.09511  0.31909  1.0000
  S   S13       1.0  0.17032  0.05251  0.29800  1.0000
  Fe  Fe10      1.0  0.20917  0.15236  0.33813  1.0000
  S   S14       1.0  0.19844  0.18785  0.34491  1.0000
  S   S15       1.0  0.24579  0.10532  0.33440  1.0000
  S   S16       1.0  0.25455  0.16560  0.35528  1.0000
  C   C4        1.0  0.16719  0.19160  0.33755  1.0000
  C   C5        1.0  0.13996  0.16902  0.33039  1.0000
  C   C6        1.0  0.11582  0.17327  0.32532  1.0000
  C   C7        1.0  0.11866  0.20008  0.32712  1.0000
  C   C8        1.0  0.14593  0.22263  0.33412  1.0000
  C   C9        1.0  0.16992  0.21834  0.33958  1.0000
  H   H4        1.0  0.13751  0.14832  0.32886  1.0000
  H   H5        1.0  0.09487  0.15567  0.31985  1.0000
  H   H6        1.0  0.14867  0.24343  0.33524  1.0000
  H   H7        1.0  0.19087  0.23595  0.34507  1.0000
  C   C10       1.0  0.18095  0.01806  0.33625  1.0000
  C   C11       1.0  0.16412  0.01988  0.31261  1.0000
  C   C12       1.0  0.25989  0.23815  0.47118  1.0000
  H   H8        1.0  0.19805  0.03691  0.34642  1.0000
  H   H9        1.0  0.18186  0.13701  0.42310  1.0000
  C   C13       1.0  0.23916  0.14994  0.45372  1.0000
  C   C14       1.0  0.24633  0.12853  0.45424  1.0000
  H   H10       1.0  0.05032  0.23124  0.47610  1.0000
  H   H11       1.0  0.23512  0.15697  0.43227  1.0000
  C   C15       1.0  0.01287  0.17362  0.36746  1.0000
  C   C16       1.0  0.99669  0.23801  0.22684  1.0000
  C   C17       1.0  0.09507  0.29516  0.44680  1.0000
  C   C18       1.0  0.07589  0.26652  0.44764  1.0000
  C   C19       1.0  0.36808  0.22334  0.08134  1.0000
  H   H12       1.0  0.06863  0.25473  0.42672  1.0000
  C   C20       1.0  0.35973  0.18116  0.20520  1.0000
  C   C21       1.0  0.32999  0.16125  0.20669  1.0000
  C   C22       1.0  0.31335  0.15888  0.23280  1.0000
  C   C23       1.0  0.32623  0.17648  0.25781  1.0000
  C   C24       1.0  0.35595  0.19637  0.25629  1.0000
  C   C25       1.0  0.37264  0.19857  0.23032  1.0000
  H   H13       1.0  0.31976  0.14752  0.18752  1.0000
  H   H14       1.0  0.29054  0.14361  0.23355  1.0000
  H   H15       1.0  0.36622  0.21008  0.27548  1.0000
  H   H16       1.0  0.39555  0.21366  0.22981  1.0000
  C   C26       1.0  0.43819  0.22320  0.01472  1.0000
  C   C27       1.0  0.43723  0.24821  0.01432  1.0000
  H   H17       1.0  0.34474  0.20738  0.15392  1.0000
  C   C28       1.0  0.17348  0.17169  0.42309  1.0000
  C   C29       1.0  0.44623  0.11930  0.02359  1.0000
  H   H18       1.0  0.01882  0.20539  0.43537  1.0000
  C   C30       1.0  0.02448  0.18611  0.39548  1.0000
  S   S17       1.0  0.46831  0.23240  0.17110  1.0000
  C   C31       1.0  0.37528  0.11959  0.23229  1.0000
  H   H19       1.0  0.13493  0.29600  0.16117  1.0000
  P   P1        1.0  0.07551  0.26661  0.18476  1.0000
  C   C32       1.0  0.09651  0.25839  0.21119  1.0000
  C   C33       1.0  0.25106  0.01950  0.29254  1.0000
  C   C34       1.0  0.37754  0.07981  0.25254  1.0000
  C   C35       1.0  0.46991  0.17531  0.04049  1.0000
  H   H20       1.0  0.17651  0.02537  0.46281  1.0000
  H   H21       1.0  0.09313  0.14882  0.38976  1.0000
  H   H22       1.0  0.06540  0.21437  0.21222  1.0000
  C   C36       1.0  0.08578  0.23087  0.22102  1.0000
  C   C37       1.0  0.10086  0.22460  0.24309  1.0000
  C   C38       1.0  0.12648  0.24578  0.25582  1.0000
  H   H23       1.0  0.23195  0.17899  0.48047  1.0000
  C   C39       1.0  0.01492  0.27605  0.47576  1.0000
  H   H24       1.0  0.43709  0.09761  0.01712  1.0000
  C   C40       1.0  0.01556  0.12405  0.42125  1.0000
  H   H25       1.0  0.26759  0.09415  0.17434  1.0000
  H   H26       1.0  0.03978  0.29785  0.40441  1.0000
  C   C41       1.0  0.03877  0.23922  0.13604  1.0000
  C   C42       1.0  0.01905  0.23976  0.20820  1.0000
  H   H27       1.0  0.47871  0.19676  0.04769  1.0000
  C   C43       1.0  0.06712  0.20903  0.12039  1.0000
  C   C44       1.0  0.00096  0.26081  0.24468  1.0000
  H   H28       1.0  0.38971  0.06890  0.25677  1.0000
  C   C45       1.0  0.07158  0.14188  0.39900  1.0000
  C   C46       1.0  0.01930  0.11588  0.39225  1.0000
  H   H29       1.0  0.24463  0.03209  0.30621  1.0000
  C   C47       1.0  0.44512  0.15503  0.05502  1.0000
  H   H30       1.0  0.99383  0.11731  0.42972  1.0000
  H   H31       1.0  0.29936  0.02424  0.23827  1.0000
  H   H32       1.0  0.13769  0.24095  0.27350  1.0000
  C   C48       1.0  0.02775  0.28525  0.24430  1.0000
  H   H33       1.0  0.12875  0.99618  0.28154  1.0000
  C   C49       1.0  0.13739  0.25881  0.44573  1.0000
  C   C50       1.0  0.43785  0.30821  0.20611  1.0000
  C   C51       1.0  0.35849  0.20806  0.10806  1.0000
  H   H34       1.0  0.13017  0.30109  0.21829  1.0000
  H   H35       1.0  0.35804  0.18818  0.10995  1.0000
  C   C52       1.0  0.13319  0.26326  0.41545  1.0000
  C   C53       1.0  0.11880  0.24065  0.39577  1.0000
  C   C54       1.0  0.10895  0.21361  0.40607  1.0000
  C   C55       1.0  0.35238  0.24517  0.13123  1.0000
  H   H36       1.0  0.30682  0.25876  0.11577  1.0000
  H   H37       1.0  0.14066  0.28422  0.40731  1.0000
  H   H38       1.0  0.11512  0.24402  0.37242  1.0000
  H   H39       1.0  0.09829  0.19670  0.38998  1.0000
  C   C56       1.0  0.12212  0.27955  0.22431  1.0000
  C   C57       1.0  0.23426  0.99054  0.29368  1.0000
  C   C58       1.0  0.16661  0.14425  0.42904  1.0000
  H   H40       1.0  0.07831  0.19757  0.11413  1.0000
  C   C59       1.0  0.39061  0.10506  0.23696  1.0000
  H   H41       1.0  0.06161  0.31088  0.16840  1.0000
  H   H42       1.0  0.19327  0.07555  0.45931  1.0000
  H   H43       1.0  0.07127  0.30552  0.22677  1.0000
  C   C60       1.0  0.03982  0.14133  0.43912  1.0000
  P   P2        1.0  0.29647  0.06949  0.27169  1.0000
  C   C61       1.0  0.27477  0.07901  0.24779  1.0000
  C   C62       1.0  0.30200  0.08577  0.30863  1.0000
  C   C63       1.0  0.29831  0.07069  0.33544  1.0000
  C   C64       1.0  0.30261  0.08386  0.36375  1.0000
  C   C65       1.0  0.31168  0.11231  0.36549  1.0000
  C   C66       1.0  0.31690  0.12770  0.33892  1.0000
  C   C67       1.0  0.31192  0.11446  0.31061  1.0000
  C   C68       1.0  0.25035  0.07951  0.25988  1.0000
  C   C69       1.0  0.23269  0.08588  0.24150  1.0000
  C   C70       1.0  0.23903  0.09141  0.21074  1.0000
  C   C71       1.0  0.26279  0.09010  0.19824  1.0000
  C   C72       1.0  0.28041  0.08359  0.21660  1.0000
  C   C73       1.0  0.33300  0.08278  0.25731  1.0000
  C   C74       1.0  0.34893  0.06883  0.26298  1.0000
  C   C75       1.0  0.98914  0.23883  0.43902  1.0000
  C   C76       1.0  0.18267  0.06446  0.47982  1.0000
  H   H44       1.0  0.41276  0.11363  0.22890  1.0000
  C   C77       1.0  0.34679  0.10871  0.24282  1.0000
  H   H45       1.0  0.00246  0.24966  0.39230  1.0000
  C   C78       1.0  0.14196  0.99505  0.29976  1.0000
  H   H46       1.0  0.14780  0.27646  0.46098  1.0000
  H   H47       1.0  0.03631  0.14754  0.46133  1.0000
  C   C79       1.0  0.07689  0.22729  0.14528  1.0000
  H   H48       1.0  0.29204  0.04884  0.33473  1.0000
  H   H49       1.0  0.29863  0.07201  0.38441  1.0000
  H   H50       1.0  0.31425  0.12239  0.38739  1.0000
  H   H51       1.0  0.32382  0.14977  0.34020  1.0000
  H   H52       1.0  0.31545  0.12660  0.29028  1.0000
  H   H53       1.0  0.24454  0.07439  0.28337  1.0000
  H   H54       1.0  0.21387  0.08622  0.25115  1.0000
  H   H55       1.0  0.22533  0.09641  0.19660  1.0000
  H   H56       1.0  0.03146  0.30246  0.25918  1.0000
  H   H57       1.0  0.29829  0.08208  0.20633  1.0000
  H   H58       1.0  0.33946  0.04972  0.27580  1.0000
  H   H59       1.0  0.01077  0.21882  0.09770  1.0000
  H   H60       1.0  0.41405  0.11147  0.05796  1.0000
  H   H61       1.0  0.36523  0.28140  0.10302  1.0000
  H   H62       1.0  0.27995  0.23704  0.47094  1.0000
  S   S18       1.0  0.10717  0.31310  0.41207  1.0000
  H   H63       1.0  0.02801  0.25127  0.14146  1.0000
  C   C80       1.0  0.98121  0.19028  0.40574  1.0000
  H   H64       1.0  0.04613  0.19029  0.40189  1.0000
  H   H65       1.0  0.19393  0.18550  0.41220  1.0000
  C   C81       1.0  0.11983  0.13518  0.44869  1.0000
  C   C82       1.0  0.31234  0.27696  0.12975  1.0000
  H   H66       1.0  0.45982  0.31900  0.21518  1.0000
  H   H67       1.0  0.09879  0.12056  0.45780  1.0000
  C   C83       1.0  0.30021  0.29403  0.12285  1.0000
  H   H68       1.0  0.04813  0.31485  0.45761  1.0000
  H   H69       1.0  0.38549  0.13947  0.22071  1.0000
  C   C84       1.0  0.00564  0.25685  0.41570  1.0000
  C   C85       1.0  0.40110  0.30653  0.17153  1.0000
  P   P3        1.0  0.09982  0.17380  0.45012  1.0000
  C   C86       1.0  0.12675  0.16289  0.44324  1.0000
  C   C87       1.0  0.06231  0.24198  0.15371  1.0000
  H   H70       1.0  0.13428  0.10452  0.44569  1.0000
  C   C88       1.0  0.15361  0.18099  0.42999  1.0000
  C   C89       1.0  0.27573  0.19088  0.19756  1.0000
  C   C90       1.0  0.27751  0.19632  0.22872  1.0000
  C   C91       1.0  0.29988  0.22126  0.24034  1.0000
  C   C92       1.0  0.32072  0.24067  0.22090  1.0000
  C   C93       1.0  0.31971  0.23496  0.18968  1.0000
  C   C94       1.0  0.29654  0.21027  0.17802  1.0000
  P   P4        1.0  0.34583  0.26064  0.16443  1.0000
  C   C95       1.0  0.38130  0.27982  0.18185  1.0000
  C   C96       1.0  0.13976  0.12596  0.44176  1.0000
  H   H71       1.0  0.01564  0.22160  0.19529  1.0000
  C   C97       1.0  0.25185  0.11976  0.48216  1.0000
  C   C98       1.0  0.39038  0.26719  0.20374  1.0000
  H   H72       1.0  0.25834  0.17152  0.18866  1.0000
  H   H73       1.0  0.26184  0.18109  0.24406  1.0000
  H   H74       1.0  0.30132  0.22519  0.26460  1.0000
  H   H75       1.0  0.33773  0.25997  0.23037  1.0000
  H   H76       1.0  0.29459  0.20588  0.15391  1.0000
  H   H77       1.0  0.02555  0.16806  0.35232  1.0000
  H   H78       1.0  0.42550  0.27138  0.23258  1.0000
  H   H79       1.0  0.37597  0.24614  0.21085  1.0000
  C   C99       1.0  0.06807  0.15056  0.42803  1.0000
  C   C100      1.0  0.22154  0.24142  0.44416  1.0000
  C   C101      1.0  0.24802  0.24119  0.44400  1.0000
  C   C102      1.0  0.13703  0.27325  0.24652  1.0000
  C   C103      1.0  0.47113  0.13951  0.00910  1.0000
  C   C104      1.0  0.43323  0.12707  0.04655  1.0000
  C   C105      1.0  0.20680  0.23839  0.47147  1.0000
  H   H80       1.0  0.37505  0.21536  0.06238  1.0000
  C   C106      1.0  0.33118  0.28324  0.15472  1.0000
  C   C107      1.0  0.03118  0.29387  0.45240  1.0000
  C   C108      1.0  0.00886  0.19458  0.41442  1.0000
  C   C109      1.0  0.04578  0.26453  0.20712  1.0000
  C   C110      1.0  0.04314  0.20579  0.10341  1.0000
  H   H81       1.0  0.09591  0.23000  0.15774  1.0000
  H   H82       1.0  0.37845  0.26174  0.05911  1.0000
  H   H83       1.0  0.33569  0.12076  0.23986  1.0000
  C   C111      1.0  0.11291  0.20885  0.43654  1.0000
  C   C112      1.0  0.99389  0.24861  0.46914  1.0000
  C   C113      1.0  0.12745  0.23175  0.45630  1.0000
  H   H84       1.0  0.15629  0.28987  0.25718  1.0000
  C   C114      1.0  0.05017  0.28701  0.22580  1.0000
  C   C115      1.0  0.04731  0.12480  0.38115  1.0000
  C   C116      1.0  0.36996  0.24955  0.07951  1.0000
  H   H85       1.0  0.15904  0.20203  0.42405  1.0000
  H   H86       1.0  0.21212  0.24323  0.42293  1.0000
  H   H87       1.0  0.25900  0.24274  0.42270  1.0000
  S   S19       1.0  0.07161  0.30828  0.33257  1.0000
  C   C117      1.0  0.10436  0.31017  0.47425  1.0000
  H   H88       1.0  0.18570  0.23734  0.47090  1.0000
  C   C118      1.0  0.09647  0.30038  0.16763  1.0000
  C   C119      1.0  0.27574  0.03200  0.27387  1.0000
  C   C120      1.0  0.28183  0.01510  0.25449  1.0000
  C   C121      1.0  0.98550  0.16943  0.35848  1.0000
  C   C122      1.0  0.02652  0.28427  0.42240  1.0000
  H   H89       1.0  0.05031  0.11875  0.35853  1.0000
  C   C123      1.0  0.35084  0.21899  0.13298  1.0000
  C   C124      1.0  0.06558  0.25323  0.47561  1.0000
  C   C125      1.0  0.17300  0.03593  0.48186  1.0000
  H   H90       1.0  0.43532  0.16105  0.07310  1.0000
  C   C126      1.0  0.36238  0.26056  0.10442  1.0000
  S   S20       1.0  0.99101  0.25351  0.32413  1.0000
  H   H91       1.0  0.43892  0.21408  0.03614  1.0000
  Fe  Fe11      1.0  0.47689  0.27455  0.15478  1.0000
  H   H92       1.0  0.00052  0.10284  0.37824  1.0000
  H   H93       1.0  0.25726  0.10310  0.48268  1.0000
  H   H94       1.0  0.11738  0.99569  0.46036  1.0000
  C   C127      1.0  0.41848  0.28141  0.21598  1.0000
  H   H95       1.0  0.28574  0.28915  0.10350  1.0000
  H   H96       1.0  0.06851  0.19704  0.48378  1.0000
  H   H97       1.0  0.18908  0.99073  0.36484  1.0000
  C   C128      1.0  0.17578  0.99179  0.34668  1.0000
  C   C129      1.0  0.33693  0.30621  0.17331  1.0000
  C   C130      1.0  0.08387  0.31741  0.16207  1.0000
  H   H98       1.0  0.39505  0.31615  0.15360  1.0000
  H   H99       1.0  0.98382  0.25925  0.25954  1.0000
  H   H100      1.0  0.98219  0.20078  0.29697  1.0000
  H   H101      1.0  0.35058  0.31081  0.19331  1.0000
  H   H102      1.0  0.98181  0.23514  0.48760  1.0000
  H   H103      1.0  0.98255  0.17163  0.46797  1.0000
  C   C131      1.0  0.30649  0.31720  0.14110  1.0000
  S   S21       1.0  0.00750  0.21963  0.67430  1.0000
  Fe  Fe12      1.0  0.41433  0.22176  0.81860  1.0000
  S   S22       1.0  0.43220  0.19530  0.83818  1.0000
  S   S23       1.0  0.36671  0.19708  0.80281  1.0000
  H   H104      1.0  0.38849  0.22934  0.74773  1.0000
  H   H105      1.0  0.20380  0.27878  0.70408  1.0000
  Fe  Fe13      1.0  0.44668  0.22479  0.87811  1.0000
  H   H106      1.0  0.29742  0.22638  0.67045  1.0000
  S   S24       1.0  0.45588  0.25003  0.79394  1.0000
  S   S25       1.0  0.42665  0.24976  0.86004  1.0000
  Fe  Fe14      1.0  0.11134  0.25624  0.63454  1.0000
  S   S26       1.0  0.12014  0.29237  0.60435  1.0000
  S   S27       1.0  0.15052  0.24895  0.63744  1.0000
  Fe  Fe15      1.0  0.04940  0.24547  0.64795  1.0000
  S   S28       1.0  0.05450  0.28104  0.61893  1.0000
  Fe  Fe16      1.0  0.07530  0.26496  0.58548  1.0000
  S   S29       1.0  0.05923  0.25065  0.53718  1.0000
  H   H107      1.0  0.03436  0.28267  0.68878  1.0000
  H   H108      1.0  0.44050  0.17431  0.77763  1.0000
  S   S30       1.0  0.06781  0.22799  0.61360  1.0000
  S   S31       1.0  0.09266  0.27099  0.67194  1.0000
  Fe  Fe17      1.0  0.26750  0.15517  0.64971  1.0000
  S   S32       1.0  0.22709  0.11982  0.66946  1.0000
  S   S33       1.0  0.31272  0.18360  0.66981  1.0000
  Fe  Fe18      1.0  0.23787  0.14918  0.58755  1.0000
  S   S34       1.0  0.19580  0.11316  0.60249  1.0000
  S   S35       1.0  0.24144  0.17028  0.54263  1.0000
  Fe  Fe19      1.0  0.20270  0.13846  0.64501  1.0000
  S   S36       1.0  0.16404  0.14176  0.66339  1.0000
  Fe  Fe20      1.0  0.22326  0.09725  0.62522  1.0000
  S   S37       1.0  0.21838  0.05397  0.61700  1.0000
  S   S38       1.0  0.24326  0.17533  0.62889  1.0000
  S   S39       1.0  0.26526  0.13187  0.60670  1.0000
  C   C132      1.0  0.16519  0.23528  0.76576  1.0000
  H   H109      1.0  0.10444  0.27685  0.76535  1.0000
  C   C133      1.0  0.15567  0.15259  0.57364  1.0000
  H   H110      1.0  0.23636  0.24753  0.71664  1.0000
  H   H111      1.0  0.25426  0.12523  0.53088  1.0000
  H   H112      1.0  0.14827  0.14455  0.59621  1.0000
  H   H113      1.0  0.22278  0.29992  0.65444  1.0000
  C   C134      1.0  0.13986  0.27001  0.53636  1.0000
  H   H114      1.0  0.35042  0.28323  0.60216  1.0000
  H   H115      1.0  0.32857  0.23248  0.81224  1.0000
  H   H116      1.0  0.32028  0.23488  0.62050  1.0000
  C   C135      1.0  0.15325  0.21861  0.64433  1.0000
  C   C136      1.0  0.18094  0.22061  0.64360  1.0000
  C   C137      1.0  0.18443  0.19713  0.64879  1.0000
  C   C138      1.0  0.16028  0.17150  0.65551  1.0000
  C   C139      1.0  0.13260  0.16957  0.65667  1.0000
  C   C140      1.0  0.12902  0.19295  0.65073  1.0000
  H   H117      1.0  0.19978  0.24037  0.63860  1.0000
  H   H118      1.0  0.20585  0.19900  0.64800  1.0000
  H   H119      1.0  0.11380  0.14984  0.66189  1.0000
  H   H120      1.0  0.10759  0.19115  0.65117  1.0000
  C   C141      1.0  0.17191  0.01644  0.65213  1.0000
  C   C142      1.0  0.19255  0.02036  0.62999  1.0000
  C   C143      1.0  0.15649  0.03608  0.53314  1.0000
  H   H121      1.0  0.17068  0.03420  0.66111  1.0000
  C   C144      1.0  0.31582  0.24663  0.77230  1.0000
  C   C145      1.0  0.43825  0.22195  0.95920  1.0000
  C   C146      1.0  0.32364  0.25243  0.63470  1.0000
  C   C147      1.0  0.43667  0.24661  0.95881  1.0000
  C   C148      1.0  0.31067  0.24763  0.66327  1.0000
  H   H122      1.0  0.43577  0.25538  0.93730  1.0000
  C   C149      1.0  0.35185  0.19351  0.76578  1.0000
  C   C150      1.0  0.32357  0.17177  0.75953  1.0000
  C   C151      1.0  0.31122  0.16818  0.73025  1.0000
  C   C152      1.0  0.32681  0.18682  0.70717  1.0000
  C   C153      1.0  0.35467  0.20905  0.71376  1.0000
  C   C154      1.0  0.36721  0.21217  0.74278  1.0000
  H   H123      1.0  0.31131  0.15755  0.77741  1.0000
  H   H124      1.0  0.28969  0.15112  0.72557  1.0000
  H   H125      1.0  0.36663  0.22407  0.69640  1.0000
  C   C155      1.0  0.24539  0.23546  0.49858  1.0000
  C   C156      1.0  0.20989  0.23856  0.78538  1.0000
  C   C157      1.0  0.43619  0.18760  0.73297  1.0000
  H   H126      1.0  0.23147  0.21066  0.57254  1.0000
  C   C158      1.0  0.17951  0.26408  0.76043  1.0000
  C   C159      1.0  0.15931  0.02140  0.50836  1.0000
  P   P5        1.0  0.26130  0.06288  0.73482  1.0000
  H   H127      1.0  0.17294  0.30255  0.50977  1.0000
  C   C160      1.0  0.14850  0.23190  0.54958  1.0000
  C   C161      1.0  0.09095  0.17306  0.48995  1.0000
  C   C162      1.0  0.35541  0.27889  0.74073  1.0000
  H   H128      1.0  0.35530  0.14809  0.57580  1.0000
  H   H129      1.0  0.14226  0.22245  0.76094  1.0000
  H   H130      1.0  0.05351  0.24260  0.75388  1.0000
  H   H131      1.0  0.45931  0.20198  0.73151  1.0000
  C   C163      1.0  0.37546  0.27841  0.76134  1.0000
  C   C164      1.0  0.41435  0.17238  0.62289  1.0000
  C   C165      1.0  0.06445  0.21785  0.72426  1.0000
  C   C166      1.0  0.08691  0.21512  0.71055  1.0000
  C   C167      1.0  0.11595  0.23457  0.71672  1.0000
  C   C168      1.0  0.07101  0.24004  0.74417  1.0000
  H   H132      1.0  0.22160  0.22868  0.79492  1.0000
  C   C169      1.0  0.98221  0.29321  0.65458  1.0000
  C   C170      1.0  0.16529  0.31345  0.69470  1.0000
  C   C171      1.0  0.46742  0.31694  0.92505  1.0000
  Fe  Fe21      1.0  0.09902  0.30554  0.64090  1.0000
  H   H133      1.0  0.47341  0.30149  0.93177  1.0000
  C   C172      1.0  0.19003  0.07365  0.72216  1.0000
  C   C173      1.0  0.42557  0.17209  0.75943  1.0000
  C   C174      1.0  0.17906  0.19195  0.53954  1.0000
  C   C175      1.0  0.42794  0.25327  0.65747  1.0000
  P   P6        1.0  0.29930  0.26378  0.71967  1.0000
  H   H134      1.0  0.08177  0.19842  0.69439  1.0000
  H   H135      1.0  0.13309  0.23268  0.70510  1.0000
  C   C176      1.0  0.24099  0.02700  0.72218  1.0000
  P   P7        1.0  0.16049  0.28130  0.74505  1.0000
  C   C177      1.0  0.26610  0.23066  0.72031  1.0000
  C   C178      1.0  0.42879  0.27883  0.66261  1.0000
  H   H136      1.0  0.26598  0.23295  0.61455  1.0000
  C   C179      1.0  0.31496  0.26999  0.68213  1.0000
  C   C180      1.0  0.21560  0.00838  0.73758  1.0000
  H   H137      1.0  0.20922  0.99967  0.60095  1.0000
  H   H138      1.0  0.16242  0.13103  0.50314  1.0000
  H   H139      1.0  0.16929  0.20033  0.78176  1.0000
  C   C181      1.0  0.17568  0.29723  0.70910  1.0000
  H   H140      1.0  0.20863  0.01508  0.75756  1.0000
  C   C182      1.0  0.23861  0.22907  0.71841  1.0000
  H   H141      1.0  0.27865  0.28048  0.63191  1.0000
  C   C183      1.0  0.20532  0.00125  0.52345  1.0000
  C   C184      1.0  0.06795  0.18578  0.53034  1.0000
  C   C185      1.0  0.07671  0.17245  0.55151  1.0000
  C   C186      1.0  0.09268  0.15955  0.54207  1.0000
  C   C187      1.0  0.40704  0.18754  0.64358  1.0000
  H   H142      1.0  0.42485  0.28632  0.90930  1.0000
  H   H143      1.0  0.26054  0.10851  0.77075  1.0000
  C   C188      1.0  0.17620  0.17351  0.51586  1.0000
  H   H144      1.0  0.17070  0.19500  0.58699  1.0000
  H   H145      1.0  0.25006  0.01456  0.53492  1.0000
  C   C189      1.0  0.36574  0.26175  0.78710  1.0000
  C   C190      1.0  0.17937  0.07884  0.50440  1.0000
  C   C191      1.0  0.19669  0.29256  0.69448  1.0000
  C   C192      1.0  0.20905  0.28001  0.76826  1.0000
  H   H146      1.0  0.14706  0.02566  0.55425  1.0000
  H   H147      1.0  0.38123  0.26066  0.80262  1.0000
  C   C193      1.0  0.23662  0.23144  0.57972  1.0000
  H   H148      1.0  0.05600  0.19623  0.53775  1.0000
  H   H149      1.0  0.07149  0.17252  0.57530  1.0000
  H   H150      1.0  0.09975  0.14951  0.55860  1.0000
  C   C194      1.0  0.39577  0.15423  0.76274  1.0000
  H   H151      1.0  0.22146  0.28396  0.56487  1.0000
  C   C195      1.0  0.16386  0.30681  0.77324  1.0000
  C   C196      1.0  0.22382  0.24555  0.56522  1.0000
  C   C197      1.0  0.34503  0.30207  0.64303  1.0000
  C   C198      1.0  0.16845  0.18119  0.56839  1.0000
  H   H152      1.0  0.26708  0.03222  0.68206  1.0000
  C   C199      1.0  0.26335  0.27082  0.61343  1.0000
  C   C200      1.0  0.24307  0.15371  0.50893  1.0000
  H   H153      1.0  0.12652  0.28002  0.53790  1.0000
  C   C201      1.0  0.10003  0.25939  0.75066  1.0000
  H   H154      1.0  0.38752  0.14296  0.78371  1.0000
  C   C202      1.0  0.15330  0.13447  0.55009  1.0000
  H   H155      1.0  0.11121  0.23546  0.56388  1.0000
  C   C203      1.0  0.33595  0.24584  0.79254  1.0000
  C   C204      1.0  0.16644  0.06469  0.53109  1.0000
  C   C205      1.0  0.21332  0.20318  0.71851  1.0000
  C   C206      1.0  0.21523  0.17874  0.72046  1.0000
  C   C207      1.0  0.24244  0.18012  0.72226  1.0000
  C   C208      1.0  0.26772  0.20592  0.72221  1.0000
  H   H156      1.0  0.19214  0.20193  0.71634  1.0000
  H   H157      1.0  0.19561  0.15869  0.71994  1.0000
  H   H158      1.0  0.24401  0.16118  0.72314  1.0000
  H   H159      1.0  0.28863  0.20657  0.72320  1.0000
  H   H160      1.0  0.04194  0.20334  0.71862  1.0000
  C   C209      1.0  0.34065  0.27962  0.62447  1.0000
  C   C210      1.0  0.24107  0.09852  0.75700  1.0000
  C   C211      1.0  0.32538  0.26285  0.74594  1.0000
  C   C212      1.0  0.43615  0.25020  0.71103  1.0000
  H   H161      1.0  0.14408  0.11242  0.55442  1.0000
  H   H162      1.0  0.20636  0.04792  0.70333  1.0000
  H   H163      1.0  0.29285  0.23432  0.77715  1.0000
  H   H164      1.0  0.34197  0.17449  0.61244  1.0000
  H   H165      1.0  0.27918  0.02946  0.83288  1.0000
  C   C213      1.0  0.29269  0.29219  0.72983  1.0000
  C   C214      1.0  0.30248  0.30621  0.75776  1.0000
  H   H166      1.0  0.37163  0.16530  0.69564  1.0000
  C   C215      1.0  0.28518  0.04721  0.81830  1.0000
  H   H167      1.0  0.14171  0.21288  0.56200  1.0000
  C   C216      1.0  0.33790  0.09518  0.68824  1.0000
  C   C217      1.0  0.33488  0.11236  0.66694  1.0000
  C   C218      1.0  0.30960  0.11477  0.66635  1.0000
  C   C219      1.0  0.28717  0.09984  0.68686  1.0000
  C   C220      1.0  0.29014  0.08278  0.70849  1.0000
  C   C221      1.0  0.31559  0.08037  0.70891  1.0000
  C   C222      1.0  0.43127  0.23859  0.68178  1.0000
  C   C223      1.0  0.09403  0.29684  0.50226  1.0000
  C   C224      1.0  0.30694  0.07357  0.82752  1.0000
  H   H168      1.0  0.22488  0.12513  0.77450  1.0000
  H   H169      1.0  0.37443  0.19938  0.65526  1.0000
  P   P8        1.0  0.43062  0.20576  0.67541  1.0000
  H   H170      1.0  0.17953  0.10299  0.74353  1.0000
  C   C225      1.0  0.21894  0.23602  0.49903  1.0000
  C   C226      1.0  0.18043  0.22259  0.77794  1.0000
  C   C227      1.0  0.43341  0.29010  0.69192  1.0000
  H   H171      1.0  0.21049  0.02139  0.51441  1.0000
  C   C228      1.0  0.23126  0.99094  0.68450  1.0000
  C   C229      1.0  0.36228  0.17401  0.61517  1.0000
  H   H172      1.0  0.45877  0.17107  0.68171  1.0000
  H   H173      1.0  0.25461  0.02306  0.78359  1.0000
  H   H174      1.0  0.98842  0.25744  0.65991  1.0000
  C   C230      1.0  0.41707  0.18481  0.70914  1.0000
  C   C231      1.0  0.36976  0.15908  0.59463  1.0000
  S   S40       1.0  0.44120  0.20608  0.92521  1.0000
  H   H175      1.0  0.35750  0.09330  0.68871  1.0000
  H   H176      1.0  0.35211  0.12380  0.65090  1.0000
  H   H177      1.0  0.30730  0.12815  0.64991  1.0000
  H   H178      1.0  0.26756  0.10153  0.68565  1.0000
  H   H179      1.0  0.31809  0.06692  0.72512  1.0000
  H   H180      1.0  0.27037  0.29033  0.68777  1.0000
  H   H181      1.0  0.42469  0.24501  0.63456  1.0000
  Fe  Fe22      1.0  0.47443  0.22535  0.81659  1.0000
  C   C232      1.0  0.99696  0.27933  0.66493  1.0000
  C   C233      1.0  0.99042  0.25258  0.56686  1.0000
  H   H182      1.0  0.44106  0.28456  0.73886  1.0000
  C   C234      1.0  0.19343  0.99690  0.61817  1.0000
  H   H183      1.0  0.39858  0.29069  0.75724  1.0000
  Fe  Fe23      1.0  0.46999  0.27554  0.83700  1.0000
  C   C235      1.0  0.47490  0.19139  0.67382  1.0000
  H   H184      1.0  0.17046  0.06427  0.70829  1.0000
  H   H185      1.0  0.16458  0.07597  0.55040  1.0000
  H   H186      1.0  0.43416  0.30994  0.69590  1.0000
  C   C236      1.0  0.25008  0.13220  0.50947  1.0000
  C   C237      1.0  0.12276  0.25652  0.73736  1.0000
  H   H187      1.0  0.99138  0.19347  0.61429  1.0000
  H   H188      1.0  0.24679  0.27969  0.78705  1.0000
  H   H189      1.0  0.30740  0.11090  0.76628  1.0000
  H   H190      1.0  0.14153  0.27602  0.80787  1.0000
  H   H191      1.0  0.01212  0.26126  0.55746  1.0000
  C   C238      1.0  0.38080  0.18816  0.63950  1.0000
  C   C239      1.0  0.25069  0.28504  0.59925  1.0000
  P   P9        1.0  0.19866  0.22921  0.53393  1.0000
  H   H192      1.0  0.35344  0.13843  0.74219  1.0000
  C   C240      1.0  0.43611  0.25968  0.98624  1.0000
  H   H193      1.0  0.43430  0.17138  0.62544  1.0000
  C   C241      1.0  0.13115  0.24474  0.55092  1.0000
  C   C242      1.0  0.17464  0.24417  0.53328  1.0000
  C   C243      1.0  0.39576  0.15825  0.59850  1.0000
  C   C244      1.0  0.18334  0.26976  0.51884  1.0000
  C   C245      1.0  0.16350  0.14492  0.52121  1.0000
  H   H194      1.0  0.33170  0.11696  0.81578  1.0000
  H   H195      1.0  0.22027  0.30233  0.76493  1.0000
  C   C246      1.0  0.33238  0.29732  0.67182  1.0000
  H   H196      1.0  0.40150  0.14663  0.58254  1.0000
  C   C247      1.0  0.23100  0.27250  0.57528  1.0000
  C   C248      1.0  0.38713  0.16696  0.71279  1.0000
  C   C249      1.0  0.25627  0.24405  0.60366  1.0000
  C   C250      1.0  0.22413  0.26728  0.78071  1.0000
  C   C251      1.0  0.21048  0.06438  0.71948  1.0000
  C   C252      1.0  0.15246  0.29796  0.80238  1.0000
  C   C253      1.0  0.37660  0.15163  0.73938  1.0000
  C   C254      1.0  0.43722  0.27583  0.71610  1.0000
  C   C255      1.0  0.22078  0.10805  0.75927  1.0000
  C   C256      1.0  0.22796  0.99746  0.53507  1.0000
  H   H197      1.0  0.31771  0.07629  0.84928  1.0000
  C   C257      1.0  0.27871  0.06664  0.77134  1.0000
  C   C258      1.0  0.31485  0.09645  0.80866  1.0000
  C   C259      1.0  0.27113  0.04370  0.79029  1.0000
  C   C260      1.0  0.20765  0.30462  0.66628  1.0000
  C   C261      1.0  0.30094  0.09296  0.78065  1.0000
  C   C262      1.0  0.19521  0.09555  0.74196  1.0000
  C   C263      1.0  0.23598  0.07639  0.73725  1.0000
  C   C264      1.0  0.27808  0.30083  0.70944  1.0000
  H   H198      1.0  0.10078  0.30873  0.52320  1.0000
  C   C265      1.0  0.02304  0.29364  0.68120  1.0000
  H   H199      1.0  0.36347  0.29174  0.72081  1.0000
  C   C266      1.0  0.09989  0.15992  0.51146  1.0000
  C   C267      1.0  0.24853  0.01812  0.69533  1.0000
  H   H200      1.0  0.43888  0.23937  0.73008  1.0000
  H   H201      1.0  0.31381  0.30008  0.77395  1.0000
  C   C268      1.0  0.16604  0.28265  0.52054  1.0000
  H   H202      1.0  0.11258  0.15012  0.50492  1.0000
  C   C269      1.0  0.07514  0.18622  0.49976  1.0000
  C   C270      1.0  0.46724  0.21218  0.66814  1.0000
  C   C271      1.0  0.43982  0.30827  0.91251  1.0000
  H   H203      1.0  0.43496  0.27882  0.98570  1.0000
  H   H204      1.0  0.00170  0.28730  0.59679  1.0000
  C   C272      1.0  0.07442  0.26832  0.50298  1.0000
  H   H205      1.0  0.25437  0.23192  0.51917  1.0000
  H   H206      1.0  0.18451  0.18104  0.49345  1.0000
  H   H207      1.0  0.14839  0.31657  0.70504  1.0000
  H   H208      1.0  0.46825  0.17754  0.95552  1.0000
  H   H209      1.0  0.20391  0.28020  0.50705  1.0000
  H   H210      1.0  0.01928  0.28328  0.49910  1.0000
  H   H211      1.0  0.25608  0.30581  0.60675  1.0000
  C   C273      1.0  0.15312  0.98949  0.66306  1.0000
  C   C274      1.0  0.98448  0.26717  0.58937  1.0000
  H   H212      1.0  0.46255  0.16423  0.90153  1.0000
  H   H213      1.0  0.42590  0.28991  0.64382  1.0000
  H   H214      1.0  0.14516  0.31036  0.84664  1.0000
  H   H215      1.0  0.43923  0.19073  0.98790  1.0000
  C   C275      1.0  0.43837  0.20999  0.98728  1.0000
  H   H216      1.0  0.18747  0.10108  0.50299  1.0000
  H   H217      1.0  0.33646  0.31499  0.68608  1.0000
  H   H218      1.0  0.13771  0.98677  0.68072  1.0000
  C   C276      1.0  0.15456  0.31732  0.82442  1.0000
  H   H219      1.0  0.08785  0.35237  0.24302  1.0000
  Fe  Fe24      1.0  0.16964  0.46200  0.13750  1.0000
  S   S41       1.0  0.21626  0.47796  0.12279  1.0000
  S   S42       1.0  0.13726  0.42390  0.16525  1.0000
  Fe  Fe25      1.0  0.16528  0.50817  0.10116  1.0000
  S   S43       1.0  0.21069  0.52675  0.08335  1.0000
  S   S44       1.0  0.13259  0.52224  0.08946  1.0000
  Fe  Fe26      1.0  0.20079  0.48247  0.07620  1.0000
  S   S45       1.0  0.21488  0.46896  0.03350  1.0000
  Fe  Fe27      1.0  0.22237  0.52119  0.13077  1.0000
  S   S46       1.0  0.25842  0.55823  0.15567  1.0000
  S   S47       1.0  0.15417  0.46405  0.09025  1.0000
  S   S48       1.0  0.17715  0.50515  0.14909  1.0000
  C   C277      1.0  0.12433  0.58077  0.16331  1.0000
  C   C278      1.0  0.15171  0.60153  0.17303  1.0000
  C   C279      1.0  0.18298  0.64670  0.22807  1.0000
  C   C280      1.0  0.34026  0.61623  0.10230  1.0000
  C   C281      1.0  0.33412  0.62517  0.12975  1.0000
  C   C282      1.0  0.30879  0.60736  0.14591  1.0000
  C   C283      1.0  0.28920  0.58086  0.13434  1.0000
  C   C284      1.0  0.29477  0.57248  0.10630  1.0000
  C   C285      1.0  0.32036  0.58998  0.09054  1.0000
  C   C286      1.0  0.32979  0.55719  0.01018  1.0000
  H   H220      1.0  0.30440  0.61401  0.16746  1.0000
  H   H221      1.0  0.27978  0.55215  0.09723  1.0000
  H   H222      1.0  0.32496  0.58296  0.06937  1.0000
  C   C287      1.0  0.13797  0.55661  0.08990  1.0000
  C   C288      1.0  0.16396  0.57999  0.09927  1.0000
  C   C289      1.0  0.16582  0.60664  0.10023  1.0000
  C   C290      1.0  0.14175  0.60974  0.09174  1.0000
  C   C291      1.0  0.11626  0.58637  0.08195  1.0000
  C   C292      1.0  0.11437  0.56010  0.08107  1.0000
  H   H223      1.0  0.18227  0.57743  0.10621  1.0000
  H   H224      1.0  0.18559  0.62462  0.10759  1.0000
  H   H225      1.0  0.09761  0.58852  0.07524  1.0000
  H   H226      1.0  0.09428  0.54225  0.07376  1.0000
  H   H227      1.0  0.05501  0.38062  0.27101  1.0000
  C   C293      1.0  0.12883  0.35229  0.13975  1.0000
  C   C294      1.0  0.13346  0.55008  0.28390  1.0000
  H   H228      1.0  0.17459  0.48882  0.01663  1.0000
  C   C295      1.0  0.13545  0.54728  0.31518  1.0000
  C   C296      1.0  0.13220  0.36114  0.23811  1.0000
  C   C297      1.0  0.15850  0.37777  0.22280  1.0000
  C   C298      1.0  0.16070  0.39735  0.20084  1.0000
  C   C299      1.0  0.13647  0.40047  0.19368  1.0000
  C   C300      1.0  0.11025  0.38406  0.20920  1.0000
  C   C301      1.0  0.10811  0.36460  0.23128  1.0000
  H   H229      1.0  0.17732  0.37535  0.22783  1.0000
  H   H230      1.0  0.18095  0.40958  0.18903  1.0000
  H   H231      1.0  0.09138  0.38635  0.20401  1.0000
  C   C302      1.0  0.13299  0.50249  0.30696  1.0000
  C   C303      1.0  0.21966  0.50458  0.21070  1.0000
  C   C304      1.0  0.16450  0.48879  0.23515  1.0000
  C   C305      1.0  0.21186  0.52479  0.21831  1.0000
  C   C306      1.0  0.13894  0.54589  0.17229  1.0000
  H   H232      1.0  0.12897  0.46645  0.18504  1.0000
  C   C307      1.0  0.07998  0.47848  0.22332  1.0000
  H   H233      1.0  0.15548  0.45613  0.29154  1.0000
  C   C308      1.0  0.19995  0.47649  0.21512  1.0000
  H   H234      1.0  0.09737  0.46303  0.14216  1.0000
  C   C309      1.0  0.09237  0.46731  0.16483  1.0000
  C   C310      1.0  0.11795  0.55295  0.16292  1.0000
  H   H235      1.0  0.33983  0.60835  0.02090  1.0000
  H   H236      1.0  0.13461  0.52462  0.17007  1.0000
  H   H237      1.0  0.09739  0.53705  0.15367  1.0000
  C   C311      1.0  0.17251  0.46863  0.22724  1.0000
  P   P10       1.0  0.12845  0.47833  0.24966  1.0000
  C   C312      1.0  0.22531  0.60799  0.21982  1.0000
  C   C313      1.0  0.22759  0.63092  0.15800  1.0000
  H   H238      1.0  0.22914  0.59237  0.15300  1.0000
  C   C314      1.0  0.20360  0.61902  0.99875  1.0000
  C   C315      1.0  0.42006  0.63539  0.02160  1.0000
  H   H239      1.0  0.26082  0.57987  0.27748  1.0000
  C   C316      1.0  0.25102  0.58796  0.26162  1.0000
  H   H240      1.0  0.07464  0.48239  0.24591  1.0000
  C   C317      1.0  0.28030  0.53386  0.02875  1.0000
  C   C318      1.0  0.28810  0.51986  0.05007  1.0000
  C   C319      1.0  0.31678  0.52485  0.05184  1.0000
  P   P11       1.0  0.20864  0.62130  0.19371  1.0000
  C   C320      1.0  0.06192  0.47650  0.19892  1.0000
  H   H241      1.0  0.18008  0.61161  0.04059  1.0000
  C   C321      1.0  0.22293  0.58384  0.26664  1.0000
  H   H242      1.0  0.11917  0.33233  0.47378  1.0000
  C   C322      1.0  0.10008  0.34331  0.14831  1.0000
  C   C323      1.0  0.22023  0.56854  0.02045  1.0000
  C   C324      1.0  0.24816  0.57226  0.01527  1.0000
  H   H243      1.0  0.18263  0.56077  0.18814  1.0000
  H   H244      1.0  0.13350  0.56844  0.27495  1.0000
  C   C325      1.0  0.24815  0.61893  0.11476  1.0000
  H   H245      1.0  0.18839  0.59062  0.24993  1.0000
  H   H246      1.0  0.15734  0.44672  0.22969  1.0000
  H   H247      1.0  0.21099  0.57269  0.28653  1.0000
  H   H248      1.0  0.25771  0.52888  0.02730  1.0000
  H   H249      1.0  0.27170  0.50492  0.06507  1.0000
  H   H250      1.0  0.32272  0.51411  0.06861  1.0000
  S   S49       1.0  0.13093  0.33650  0.26527  1.0000
  S   S50       1.0  0.14129  0.64174  0.09260  1.0000
  H   H251      1.0  0.25350  0.60441  0.10346  1.0000
  C   C326      1.0  0.33761  0.54341  0.03179  1.0000
  C   C327      1.0  0.20806  0.65019  0.21295  1.0000
  H   H252      1.0  0.21408  0.57194  0.04290  1.0000
  H   H253      1.0  0.26357  0.57859  0.03396  1.0000
  H   H254      1.0  0.26620  0.62386  0.19569  1.0000
  H   H255      1.0  0.13669  0.52131  0.35095  1.0000
  H   H256      1.0  0.17866  0.53295  0.23536  1.0000
  C   C328      1.0  0.11486  0.44506  0.26829  1.0000
  H   H257      1.0  0.20560  0.46069  0.20840  1.0000
  H   H258      1.0  0.05445  0.46969  0.15062  1.0000
  C   C329      1.0  0.41427  0.61106  0.00596  1.0000
  H   H259      1.0  0.13705  0.56348  0.33052  1.0000
  C   C330      1.0  0.13330  0.44003  0.28734  1.0000
  C   C331      1.0  0.13096  0.50512  0.27550  1.0000
  C   C332      1.0  0.13522  0.52352  0.32668  1.0000
  H   H260      1.0  0.28804  0.60524  0.23178  1.0000
  C   C333      1.0  0.11041  0.46935  0.18918  1.0000
  C   C334      1.0  0.06823  0.47108  0.16964  1.0000
  C   C335      1.0  0.18440  0.51699  0.23043  1.0000
  C   C336      1.0  0.12357  0.41382  0.30027  1.0000
  H   H261      1.0  0.22469  0.62964  0.00976  1.0000
  H   H262      1.0  0.24066  0.51068  0.20048  1.0000
  C   C337      1.0  0.08643  0.42350  0.26270  1.0000
  H   H263      1.0  0.29110  0.63107  0.02408  1.0000
  C   C338      1.0  0.07671  0.39737  0.27591  1.0000
  H   H264      1.0  0.13279  0.48428  0.31641  1.0000
  C   C339      1.0  0.09530  0.39251  0.29457  1.0000
  H   H265      1.0  0.10873  0.58649  0.15432  1.0000
  C   C340      1.0  0.23453  0.61225  0.14302  1.0000
  C   C341      1.0  0.13128  0.52914  0.26413  1.0000
  C   C342      1.0  0.17842  0.60879  0.01622  1.0000
  H   H266      1.0  0.16359  0.34221  0.13774  1.0000
  H   H267      1.0  0.15692  0.62313  0.17114  1.0000
  H   H268      1.0  0.17782  0.55562  0.00120  1.0000
  C   C343      1.0  0.25466  0.64418  0.10116  1.0000
  H   H269      1.0  0.38275  0.64803  0.18951  1.0000
  C   C344      1.0  0.26640  0.60230  0.23592  1.0000
  H   H270      1.0  0.32928  0.34094  0.18079  1.0000
  H   H271      1.0  0.22682  0.54644  0.21368  1.0000
  C   C345      1.0  0.10478  0.47553  0.21844  1.0000
  C   C346      1.0  0.16618  0.56651  0.18247  1.0000
  H   H272      1.0  0.09067  0.35684  0.14484  1.0000
  C   C347      1.0  0.17258  0.59446  0.18342  1.0000
  C   C348      1.0  0.21013  0.59387  0.24583  1.0000
  H   H273      1.0  0.12992  0.53174  0.23992  1.0000
  H   H274      1.0  0.16351  0.62665  0.22857  1.0000
  H   H275      1.0  0.04300  0.47911  0.20266  1.0000
  C   C349      1.0  0.15112  0.59510  0.00227  1.0000
  H   H276      1.0  0.29694  0.33033  0.13586  1.0000
  S   S51       1.0  0.37258  0.63683  0.08203  1.0000
  H   H277      1.0  0.08810  0.37202  0.30405  1.0000
  H   H278      1.0  0.07191  0.42649  0.24765  1.0000
  H   H279      1.0  0.13814  0.40974  0.31415  1.0000
  H   H280      1.0  0.14152  0.37273  0.12983  1.0000
  H   H281      1.0  0.42246  0.63654  0.04611  1.0000
  C   C350      1.0  0.25373  0.61253  0.21522  1.0000
  H   H282      1.0  0.35978  0.54709  0.03302  1.0000
  H   H283      1.0  0.13165  0.58731  0.01600  1.0000
  C   C351      1.0  0.30126  0.55320  0.00913  1.0000
  C   C352      1.0  0.32476  0.32323  0.16637  1.0000
  H   H284      1.0  0.41267  0.59342  0.01838  1.0000
  C   C353      1.0  0.35669  0.64864  0.00189  1.0000
  H   H285      1.0  0.34920  0.64553  0.13867  1.0000
  H   H286      1.0  0.44471  0.34110  0.17545  1.0000
  H   H287      1.0  0.34605  0.57119  0.99448  1.0000
  H   H288      1.0  0.26474  0.64928  0.07918  1.0000
  C   C354      1.0  0.14127  0.33516  0.14441  1.0000
  C   C355      1.0  0.20349  0.47527  0.99796  1.0000
  C   C356      1.0  0.18369  0.48534  0.99612  1.0000
  H   H289      1.0  0.32444  0.64967  0.06831  1.0000
  C   C357      1.0  0.33770  0.62004  0.00238  1.0000
  C   C358      1.0  0.19980  0.55956  0.99688  1.0000
  C   C359      1.0  0.29935  0.65250  0.03107  1.0000
  C   C360      1.0  0.42924  0.32070  0.18376  1.0000
  Fe  Fe28      1.0  0.24646  0.51963  0.81342  1.0000
  S   S52       1.0  0.21665  0.50530  0.77251  1.0000
  S   S53       1.0  0.29535  0.53579  0.81007  1.0000
  Fe  Fe29      1.0  0.19632  0.49849  0.85841  1.0000
  S   S54       1.0  0.16282  0.48242  0.82096  1.0000
  S   S55       1.0  0.18032  0.49909  0.90626  1.0000
  Fe  Fe30      1.0  0.18946  0.46554  0.79802  1.0000
  S   S56       1.0  0.16855  0.41974  0.78111  1.0000
  Fe  Fe31      1.0  0.19197  0.52299  0.79821  1.0000
  S   S57       1.0  0.16958  0.54388  0.77390  1.0000
  S   S58       1.0  0.22104  0.47875  0.83773  1.0000
  S   S59       1.0  0.22389  0.54031  0.83684  1.0000
  H   H290      1.0  0.36127  0.57879  0.93605  1.0000
  C   C361      1.0  0.17415  0.60164  0.95289  1.0000
  C   C362      1.0  0.13200  0.64709  0.90516  1.0000
  C   C363      1.0  0.32638  0.56935  0.80812  1.0000
  C   C364      1.0  0.35325  0.57055  0.80319  1.0000
  C   C365      1.0  0.37873  0.59615  0.80078  1.0000
  C   C366      1.0  0.37798  0.62121  0.80298  1.0000
  C   C367      1.0  0.35121  0.62034  0.80847  1.0000
  C   C368      1.0  0.32538  0.59434  0.81119  1.0000
  H   H291      1.0  0.35438  0.55146  0.80100  1.0000
  H   H292      1.0  0.39924  0.59651  0.79677  1.0000
  H   H293      1.0  0.35057  0.63964  0.81054  1.0000
  H   H294      1.0  0.30475  0.59349  0.81557  1.0000
  C   C369      1.0  0.17052  0.57644  0.77809  1.0000
  C   C370      1.0  0.18909  0.59763  0.79825  1.0000
  C   C371      1.0  0.18917  0.62351  0.79886  1.0000
  C   C372      1.0  0.17094  0.62818  0.77907  1.0000
  C   C373      1.0  0.15261  0.60690  0.75924  1.0000
  C   C374      1.0  0.15225  0.58129  0.75891  1.0000
  H   H295      1.0  0.20314  0.59403  0.81336  1.0000
  H   H296      1.0  0.30555  0.33943  0.78657  1.0000
  H   H297      1.0  0.13849  0.61020  0.74387  1.0000
  H   H298      1.0  0.13792  0.56519  0.74323  1.0000
  C   C375      1.0  0.18812  0.48771  0.94085  1.0000
  C   C376      1.0  0.17561  0.49097  0.96766  1.0000
  C   C377      1.0  0.20716  0.47674  0.94255  1.0000
  H   H299      1.0  0.16018  0.49865  0.96652  1.0000
  H   H300      1.0  0.21610  0.47331  0.92193  1.0000
  C   C378      1.0  0.13279  0.37013  0.69075  1.0000
  C   C379      1.0  0.12752  0.35655  0.71869  1.0000
  C   C380      1.0  0.13815  0.37209  0.74593  1.0000
  C   C381      1.0  0.15431  0.40144  0.74588  1.0000
  C   C382      1.0  0.15928  0.41501  0.71796  1.0000
  C   C383      1.0  0.14857  0.39947  0.69071  1.0000
  H   H301      1.0  0.11491  0.33411  0.71939  1.0000
  H   H302      1.0  0.13353  0.36127  0.76731  1.0000
  H   H303      1.0  0.17153  0.43748  0.71735  1.0000
  C   C384      1.0  0.28010  0.52387  0.94527  1.0000
  C   C385      1.0  0.19750  0.32113  0.65237  1.0000
  H   H304      1.0  0.14864  0.63293  0.94091  1.0000
  H   H305      1.0  0.16794  0.33784  0.65560  1.0000
  C   C386      1.0  0.30833  0.62711  0.75615  1.0000
  C   C387      1.0  0.22118  0.59791  0.89062  1.0000
  H   H306      1.0  0.20306  0.63963  0.81465  1.0000
  C   C388      1.0  0.03490  0.32213  0.68688  1.0000
  H   H307      1.0  0.35835  0.32318  0.63513  1.0000
  C   C389      1.0  0.25560  0.56659  0.98649  1.0000
  H   H308      1.0  0.22144  0.62369  0.95432  1.0000
  C   C390      1.0  0.14858  0.61726  0.86596  1.0000
  C   C391      1.0  0.20156  0.61553  0.96722  1.0000
  H   H309      1.0  0.02958  0.35828  0.68128  1.0000
  H   H310      1.0  0.98322  0.33318  0.65318  1.0000
  H   H311      1.0  0.15516  0.60634  0.85019  1.0000
  C   C392      1.0  0.17848  0.33546  0.76695  1.0000
  C   C393      1.0  0.16844  0.34568  0.81768  1.0000
  S   S60       1.0  0.11989  0.35175  0.65537  1.0000
  H   H312      1.0  0.30144  0.56298  0.86885  1.0000
  C   C394      1.0  0.12272  0.51256  0.91081  1.0000
  H   H313      1.0  0.35279  0.60662  0.88664  1.0000
  C   C395      1.0  0.25086  0.58923  0.77067  1.0000
  C   C396      1.0  0.29966  0.60881  0.67071  1.0000
  H   H314      1.0  0.33089  0.64170  0.75168  1.0000
  C   C397      1.0  0.12805  0.64786  0.87394  1.0000
  H   H315      1.0  0.11201  0.48458  0.87259  1.0000
  H   H316      1.0  0.27890  0.63342  0.59662  1.0000
  P   P12       1.0  0.41056  0.63156  0.91708  1.0000
  H   H317      1.0  0.25074  0.56651  0.73099  1.0000
  C   C398      1.0  0.27506  0.51691  0.67269  1.0000
  C   C399      1.0  0.26351  0.58488  0.74483  1.0000
  C   C400      1.0  0.28506  0.52344  0.89076  1.0000
  H   H318      1.0  0.40179  0.55938  0.84322  1.0000
  C   C401      1.0  0.21466  0.47035  0.97103  1.0000
  C   C402      1.0  0.29245  0.60376  0.73740  1.0000
  H   H319      1.0  0.05561  0.33338  0.69869  1.0000
  H   H320      1.0  0.22952  0.46200  0.97226  1.0000
  H   H321      1.0  0.27691  0.50408  0.74794  1.0000
  C   C403      1.0  0.37096  0.57467  0.91637  1.0000
  H   H322      1.0  0.25998  0.59788  0.87502  1.0000
  C   C404      1.0  0.29077  0.55278  0.94510  1.0000
  C   C405      1.0  0.29564  0.55216  0.89028  1.0000
  C   C406      1.0  0.26593  0.61838  0.64207  1.0000
  H   H323      1.0  0.28264  0.51209  0.86979  1.0000
  H   H324      1.0  0.30667  0.58882  0.91601  1.0000
  C   C407      1.0  0.27342  0.32317  0.71687  1.0000
  H   H325      1.0  0.26892  0.48700  0.91864  1.0000
  C   C408      1.0  0.29554  0.63115  0.78211  1.0000
  H   H326      1.0  0.26228  0.32988  0.70105  1.0000
  H   H327      1.0  0.19185  0.54860  0.94946  1.0000
  H   H328      1.0  0.32513  0.63152  0.59950  1.0000
  H   H329      1.0  0.27316  0.51232  0.96623  1.0000
  H   H330      1.0  0.13791  0.54430  0.94474  1.0000
  H   H331      1.0  0.24022  0.55406  0.94018  1.0000
  C   C409      1.0  0.36941  0.54210  0.87819  1.0000
  C   C410      1.0  0.27131  0.50180  0.69928  1.0000
  H   H332      1.0  0.40391  0.60532  0.73573  1.0000
  H   H333      1.0  0.24564  0.61898  0.64076  1.0000
  C   C411      1.0  0.31818  0.61658  0.64547  1.0000
  C   C412      1.0  0.26674  0.61242  0.78922  1.0000
  P   P13       1.0  0.30918  0.59707  0.70492  1.0000
  C   C413      1.0  0.17637  0.32557  0.66663  1.0000
  C   C414      1.0  0.38792  0.64579  0.90347  1.0000
  H   H334      1.0  0.25689  0.61554  0.80938  1.0000
  H   H335      1.0  0.25841  0.60300  0.68752  1.0000
  C   C415      1.0  0.27751  0.50935  0.91828  1.0000
  C   C416      1.0  0.27989  0.51568  0.72718  1.0000
  H   H336      1.0  0.33830  0.61561  0.64628  1.0000
  C   C417      1.0  0.19366  0.61911  0.66838  1.0000
  H   H337      1.0  0.26156  0.47931  0.69835  1.0000
  C   C418      1.0  0.12245  0.50612  0.88006  1.0000
  C   C419      1.0  0.15156  0.56195  0.89980  1.0000
  C   C420      1.0  0.14894  0.59158  0.97074  1.0000
  C   C421      1.0  0.18064  0.35474  0.78909  1.0000
  C   C422      1.0  0.43146  0.32787  0.90412  1.0000
  H   H338      1.0  0.13745  0.52238  0.83542  1.0000
  C   C423      1.0  0.40657  0.59053  0.87607  1.0000
  H   H339      1.0  0.27973  0.35441  0.75033  1.0000
  H   H340      1.0  0.35102  0.57948  0.72710  1.0000
  C   C424      1.0  0.31071  0.62547  0.61887  1.0000
  H   H341      1.0  0.35906  0.52129  0.86852  1.0000
  H   H342      1.0  0.11256  0.49590  0.92709  1.0000
  C   C425      1.0  0.23531  0.55871  0.96262  1.0000
  C   C426      1.0  0.19024  0.59687  0.68639  1.0000
  C   C427      1.0  0.20777  0.60183  0.71203  1.0000
  C   C428      1.0  0.22831  0.62903  0.72018  1.0000
  C   C429      1.0  0.20768  0.55561  0.96778  1.0000
  H   H343      1.0  0.21003  0.57569  0.89486  1.0000
  C   C430      1.0  0.34398  0.64003  0.87824  1.0000
  H   H344      1.0  0.29809  0.55502  0.75036  1.0000
  C   C431      1.0  0.29855  0.56679  0.91728  1.0000
  H   H345      1.0  0.32342  0.62667  0.86710  1.0000
  H   H346      1.0  0.22882  0.57431  0.77658  1.0000
  C   C432      1.0  0.28329  0.33704  0.74465  1.0000
  C   C433      1.0  0.29188  0.54459  0.72855  1.0000
  C   C434      1.0  0.41284  0.63246  0.95817  1.0000
  H   H347      1.0  0.15263  0.41031  0.66936  1.0000
  C   C435      1.0  0.24966  0.61050  0.87959  1.0000
  C   C436      1.0  0.29542  0.55993  0.70209  1.0000
  H   H348      1.0  0.30843  0.64817  0.79742  1.0000
  H   H349      1.0  0.17385  0.57577  0.68072  1.0000
  H   H350      1.0  0.20501  0.58452  0.72594  1.0000
  H   H351      1.0  0.24138  0.63232  0.74036  1.0000
  C   C437      1.0  0.35834  0.54762  0.90455  1.0000
  H   H352      1.0  0.16958  0.36073  0.83444  1.0000
  H   H353      1.0  0.28666  0.64888  0.86584  1.0000
  H   H354      1.0  0.33959  0.53101  0.91549  1.0000
  C   C438      1.0  0.13728  0.54029  0.92071  1.0000
  C   C439      1.0  0.28712  0.54590  0.67403  1.0000
  H   H355      1.0  0.19106  0.37677  0.78382  1.0000
  C   C440      1.0  0.15300  0.61658  0.89733  1.0000
  C   C441      1.0  0.13623  0.63284  0.85435  1.0000
  C   C442      1.0  0.36075  0.62864  0.88971  1.0000
  H   H356      1.0  0.20515  0.32966  0.63007  1.0000
  C   C443      1.0  0.39351  0.56354  0.86398  1.0000
  C   C444      1.0  0.39549  0.59633  0.90250  1.0000
  P   P14       1.0  0.17121  0.59813  0.91190  1.0000
  C   C445      1.0  0.39288  0.61582  0.72610  1.0000
  C   C446      1.0  0.36278  0.60126  0.72123  1.0000
  H   H357      1.0  0.28956  0.55711  0.65321  1.0000
  C   C447      1.0  0.26466  0.63917  0.87445  1.0000
  C   C448      1.0  0.34828  0.61506  0.70975  1.0000
  H   H358      1.0  0.29404  0.61577  0.94308  1.0000
  H   H359      1.0  0.42485  0.60675  0.86423  1.0000
  H   H360      1.0  0.26830  0.50608  0.65109  1.0000
  C   C449      1.0  0.14481  0.63195  0.91680  1.0000
  H   H361      1.0  0.07637  0.63727  0.81520  1.0000
  H   H362      1.0  0.17999  0.61525  0.64854  1.0000
  C   C450      1.0  0.22261  0.64273  0.89102  1.0000
  C   C451      1.0  0.28465  0.62648  0.61721  1.0000
  C   C452      1.0  0.27332  0.60944  0.66867  1.0000
  C   C453      1.0  0.20737  0.61393  0.89612  1.0000
  C   C454      1.0  0.13695  0.52739  0.85919  1.0000
  C   C455      1.0  0.02026  0.33616  0.67691  1.0000
  C   C456      1.0  0.21456  0.64631  0.67614  1.0000
  C   C457      1.0  0.15164  0.55508  0.86902  1.0000
  H   H363      1.0  0.18809  0.34323  0.74506  1.0000
  C   C458      1.0  0.47797  0.36491  0.92158  1.0000
  C   C459      1.0  0.31226  0.62444  0.95876  1.0000
  H   H364      1.0  0.16374  0.57089  0.85255  1.0000
  H   H365      1.0  0.40841  0.59121  0.96274  1.0000
  H   H366      1.0  0.12757  0.58127  0.96021  1.0000
  C   C460      1.0  0.29783  0.32859  0.76506  1.0000
  P   P15       1.0  0.29121  0.57028  0.98022  1.0000
  S   S61       1.0  0.41140  0.65237  0.79819  1.0000
  C   C461      1.0  0.45049  0.35619  0.90879  1.0000
  H   H367      1.0  0.44393  0.37141  0.90256  1.0000
  H   H368      1.0  0.13347  0.63365  0.83007  1.0000
  C   C462      1.0  0.40864  0.64427  0.72002  1.0000
  H   H369      1.0  0.10753  0.64413  0.77040  1.0000
  C   C463      1.0  0.31600  0.60740  0.97998  1.0000
  C   C464      1.0  0.41127  0.60975  0.97435  1.0000
  C   C465      1.0  0.23163  0.65151  0.70242  1.0000
  C   C466      1.0  0.36430  0.64372  0.70387  1.0000
  C   C467      1.0  0.99393  0.32178  0.66092  1.0000
  C   C468      1.0  0.33200  0.65295  0.95770  1.0000
  H   H370      1.0  0.41017  0.32105  0.89417  1.0000
  Fe  Fe32      1.0  0.11604  0.88898  0.33619  1.0000
  S   S62       1.0  0.13308  0.85960  0.34779  1.0000
  S   S63       1.0  0.14910  0.93455  0.34714  1.0000
  Fe  Fe33      1.0  0.05608  0.83974  0.31917  1.0000
  S   S64       1.0  0.06971  0.80739  0.32865  1.0000
  S   S65       1.0  0.01030  0.83199  0.30699  1.0000
  Fe  Fe34      1.0  0.09043  0.83330  0.37061  1.0000
  S   S66       1.0  0.08257  0.81077  0.41555  1.0000
  Fe  Fe35      1.0  0.11163  0.83613  0.30471  1.0000
  S   S67       1.0  0.14325  0.82735  0.27620  1.0000
  S   S68       1.0  0.07474  0.86404  0.36249  1.0000
  S   S69       1.0  0.09658  0.86708  0.29188  1.0000
  Fe  Fe36      1.0  0.17630  0.73482  0.14606  1.0000
  S   S70       1.0  0.22198  0.76372  0.12983  1.0000
  S   S71       1.0  0.14474  0.74191  0.17664  1.0000
  Fe  Fe37      1.0  0.17325  0.68542  0.10848  1.0000
  S   S72       1.0  0.21816  0.71052  0.08988  1.0000
  Fe  Fe38      1.0  0.23034  0.72758  0.13719  1.0000
  S   S73       1.0  0.26856  0.72752  0.16120  1.0000
  Fe  Fe39      1.0  0.20613  0.74417  0.08334  1.0000
  S   S74       1.0  0.22002  0.76950  0.03985  1.0000
  S   S75       1.0  0.18586  0.69982  0.15659  1.0000
  S   S76       1.0  0.16016  0.71807  0.09880  1.0000
  Fe  Fe40      1.0  0.41348  0.74128  0.09636  1.0000
  S   S77       1.0  0.40439  0.71193  0.05718  1.0000
  S   S78       1.0  0.39024  0.76691  0.09704  1.0000
  Fe  Fe41      1.0  0.45817  0.72834  0.12592  1.0000
  C   C469      1.0  0.12783  0.93308  0.43649  1.0000
  Fe  Fe42      1.0  0.45252  0.72871  0.05578  1.0000
  H   H371      1.0  0.13026  0.91535  0.42966  1.0000
  S   S79       1.0  0.46245  0.76101  0.09240  1.0000
  S   S80       1.0  0.40943  0.71048  0.13179  1.0000
  C   C470      1.0  0.17089  0.80525  0.47136  1.0000
  C   C471      1.0  0.23302  0.69878  0.22870  1.0000
  C   C472      1.0  0.14289  0.80716  0.37740  1.0000
  H   H372      1.0  0.13134  0.93364  0.11052  1.0000
  H   H373      1.0  0.34332  0.69866  0.08458  1.0000
  C   C473      1.0  0.30099  0.73659  0.14125  1.0000
  C   C474      1.0  0.31172  0.75828  0.12037  1.0000
  C   C475      1.0  0.33932  0.76753  0.10755  1.0000
  C   C476      1.0  0.35587  0.75447  0.11432  1.0000
  C   C477      1.0  0.34488  0.73231  0.13474  1.0000
  C   C478      1.0  0.31767  0.72366  0.14847  1.0000
  H   H374      1.0  0.29928  0.76869  0.11507  1.0000
  H   H375      1.0  0.34805  0.78506  0.09246  1.0000
  H   H376      1.0  0.35755  0.72223  0.14040  1.0000
  H   H377      1.0  0.30960  0.70706  0.16489  1.0000
  H   H378      1.0  0.21556  0.98111  0.30856  1.0000
  H   H379      1.0  0.17016  0.71641  0.02193  1.0000
  C   C479      1.0  0.46326  0.79876  0.21301  1.0000
  C   C480      1.0  0.14320  0.80272  0.24933  1.0000
  C   C481      1.0  0.16961  0.80813  0.23556  1.0000
  C   C482      1.0  0.17075  0.78961  0.21382  1.0000
  C   C483      1.0  0.14534  0.76545  0.20527  1.0000
  C   C484      1.0  0.11899  0.75992  0.21928  1.0000
  C   C485      1.0  0.11791  0.77825  0.24127  1.0000
  H   H380      1.0  0.18936  0.82691  0.24158  1.0000
  H   H381      1.0  0.19118  0.79427  0.20330  1.0000
  H   H382      1.0  0.09919  0.74130  0.21297  1.0000
  H   H383      1.0  0.09749  0.77345  0.25186  1.0000
  C   C486      1.0  0.18758  0.92184  0.41800  1.0000
  C   C487      1.0  0.31813  0.66295  0.05603  1.0000
  C   C488      1.0  0.15364  0.96699  0.33381  1.0000
  H   H384      1.0  0.04434  0.85318  0.45854  1.0000
  C   C489      1.0  0.13658  0.96876  0.31042  1.0000
  H   H385      1.0  0.99486  0.77360  0.31721  1.0000
  H   H386      1.0  0.11934  0.94991  0.30045  1.0000
  C   C490      1.0  0.08683  0.81720  0.47753  1.0000
  C   C491      1.0  0.09652  0.83021  0.44937  1.0000
  C   C492      1.0  0.11814  0.85804  0.44856  1.0000
  H   H387      1.0  0.05029  0.85758  0.10178  1.0000
  H   H388      1.0  0.12573  0.86806  0.42692  1.0000
  H   H389      1.0  0.33260  0.82560  0.05829  1.0000
  H   H390      1.0  0.11949  0.79420  0.37544  1.0000
  C   C493      1.0  0.16060  0.81094  0.35233  1.0000
  H   H391      1.0  0.35115  0.73303  0.25636  1.0000
  C   C494      1.0  0.43085  0.75184  0.31086  1.0000
  H   H392      1.0  0.17654  0.88173  0.39987  1.0000
  H   H393      1.0  0.10814  0.93441  0.39404  1.0000
  C   C495      1.0  0.18695  0.89610  0.41852  1.0000
  H   H394      1.0  0.42839  0.67757  0.01774  1.0000
  C   C496      1.0  0.17541  0.84570  0.16002  1.0000
  C   C497      1.0  0.15962  0.81752  0.15209  1.0000
  C   C498      1.0  0.12942  0.80326  0.15528  1.0000
  C   C499      1.0  0.11495  0.81704  0.16665  1.0000
  C   C500      1.0  0.13074  0.84511  0.17565  1.0000
  C   C501      1.0  0.16101  0.85956  0.17144  1.0000
  P   P16       1.0  0.11193  0.86318  0.18926  1.0000
  C   C502      1.0  0.10301  0.87663  0.15612  1.0000
  C   C503      1.0  0.07992  0.84032  0.21046  1.0000
  C   C504      1.0  0.05631  0.84556  0.21242  1.0000
  C   C505      1.0  0.20695  0.67828  0.01512  1.0000
  C   C506      1.0  0.03143  0.80623  0.24594  1.0000
  C   C507      1.0  0.05520  0.80142  0.24480  1.0000
  C   C508      1.0  0.07948  0.81861  0.22743  1.0000
  C   C509      1.0  0.07705  0.86013  0.14010  1.0000
  C   C510      1.0  0.07043  0.87034  0.11396  1.0000
  C   C511      1.0  0.32502  0.74906  0.23635  1.0000
  C   C512      1.0  0.11610  0.91318  0.11889  1.0000
  C   C513      1.0  0.12277  0.90302  0.14502  1.0000
  C   C514      1.0  0.13345  0.89039  0.21615  1.0000
  C   C515      1.0  0.12841  0.91309  0.22021  1.0000
  C   C516      1.0  0.14290  0.93267  0.24324  1.0000
  C   C517      1.0  0.16184  0.92928  0.26289  1.0000
  C   C518      1.0  0.16675  0.90660  0.25918  1.0000
  C   C519      1.0  0.15272  0.88730  0.23581  1.0000
  H   H395      1.0  0.19883  0.85667  0.15752  1.0000
  H   H396      1.0  0.17075  0.80651  0.14389  1.0000
  H   H397      1.0  0.11737  0.78129  0.14948  1.0000
  H   H398      1.0  0.09151  0.80563  0.16873  1.0000
  H   H399      1.0  0.17353  0.88144  0.17719  1.0000
  H   H400      1.0  0.05685  0.86319  0.20098  1.0000
  H   H401      1.0  0.99576  0.83278  0.37674  1.0000
  C   C520      1.0  0.18070  0.83400  0.47380  1.0000
  H   H402      1.0  0.05513  0.78482  0.25801  1.0000
  H   H403      1.0  0.09819  0.81537  0.22774  1.0000
  H   H404      1.0  0.06200  0.83932  0.14769  1.0000
  C   C521      1.0  0.08989  0.89690  0.10343  1.0000
  H   H405      1.0  0.14338  0.91567  0.15645  1.0000
  H   H406      1.0  0.11264  0.91525  0.20626  1.0000
  H   H407      1.0  0.13873  0.95000  0.24658  1.0000
  H   H408      1.0  0.17194  0.94374  0.28158  1.0000
  H   H409      1.0  0.18045  0.90325  0.27514  1.0000
  H   H410      1.0  0.15602  0.86938  0.23392  1.0000
  C   C522      1.0  0.15516  0.82096  0.40473  1.0000
  C   C523      1.0  0.18536  0.83815  0.40748  1.0000
  C   C524      1.0  0.20303  0.84209  0.38208  1.0000
  P   P17       1.0  0.20056  0.85671  0.44269  1.0000
  C   C525      1.0  0.19950  0.88918  0.44286  1.0000
  C   C526      1.0  0.01125  0.78575  0.40989  1.0000
  H   H411      1.0  0.25335  0.67915  0.20392  1.0000
  C   C527      1.0  0.99781  0.82020  0.39447  1.0000
  C   C528      1.0  0.41543  0.68936  0.20275  1.0000
  C   C529      1.0  0.21339  0.93432  0.46597  1.0000
  C   C530      1.0  0.42181  0.74553  0.28059  1.0000
  H   H412      1.0  0.32986  0.72937  0.05659  1.0000
  C   C531      1.0  0.23835  0.86534  0.44553  1.0000
  C   C532      1.0  0.25987  0.88954  0.43166  1.0000
  C   C533      1.0  0.28919  0.89644  0.43366  1.0000
  H   H413      1.0  0.28228  0.84180  0.47561  1.0000
  H   H414      1.0  0.01416  0.83284  0.23221  1.0000
  H   H415      1.0  0.02002  0.77206  0.40425  1.0000
  H   H416      1.0  0.14097  0.81841  0.42365  1.0000
  H   H417      1.0  0.22626  0.85582  0.38319  1.0000
  H   H418      1.0  0.32000  0.88462  0.45106  1.0000
  H   H419      1.0  0.98329  0.83750  0.42982  1.0000
  Fe  Fe43      1.0  0.40399  0.68233  0.09220  1.0000
  H   H420      1.0  0.43255  0.81439  0.31715  1.0000
  C   C534      1.0  0.43473  0.77663  0.32403  1.0000
  S   S81       1.0  0.47551  0.73283  0.01088  1.0000
  C   C535      1.0  0.19063  0.82848  0.35462  1.0000
  H   H421      1.0  0.25399  0.90304  0.41915  1.0000
  C   C536      1.0  0.99449  0.80713  0.44750  1.0000
  H   H422      1.0  0.37286  0.65821  0.01969  1.0000
  H   H423      1.0  0.30650  0.73709  0.25080  1.0000
  C   C537      1.0  0.38697  0.66863  0.19649  1.0000
  C   C538      1.0  0.36411  0.67480  0.19806  1.0000
  C   C539      1.0  0.42945  0.79512  0.30698  1.0000
  C   C540      1.0  0.20753  0.69554  0.24217  1.0000
  H   H424      1.0  0.27780  0.66166  0.99506  1.0000
  C   C541      1.0  0.39814  0.72246  0.21282  1.0000
  C   C542      1.0  0.33599  0.77326  0.01995  1.0000
  C   C543      1.0  0.36964  0.70163  0.20597  1.0000
  H   H425      1.0  0.01420  0.80029  0.36415  1.0000
  C   C544      1.0  0.03211  0.82846  0.23003  1.0000
  C   C545      1.0  0.32096  0.70794  0.04927  1.0000
  C   C546      1.0  0.43185  0.78076  0.16889  1.0000
  H   H426      1.0  0.01285  0.79331  0.25994  1.0000
  C   C547      1.0  0.24134  0.97382  0.27541  1.0000
  C   C548      1.0  0.27601  0.85512  0.46330  1.0000
  H   H427      1.0  0.24598  0.69314  0.04167  1.0000
  C   C549      1.0  0.13749  0.94536  0.46511  1.0000
  H   H428      1.0  0.41901  0.72623  0.27094  1.0000
  H   H429      1.0  0.43339  0.68498  0.20041  1.0000
  C   C550      1.0  0.24768  0.66276  0.11577  1.0000
  H   H430      1.0  0.36848  0.81405  0.03481  1.0000
  C   C551      1.0  0.29166  0.66981  0.01491  1.0000
  C   C552      1.0  0.29571  0.78622  0.04643  1.0000
  C   C553      1.0  0.32871  0.69057  0.06525  1.0000
  C   C554      1.0  0.32529  0.80569  0.04706  1.0000
  H   H431      1.0  0.20700  0.71333  0.25228  1.0000
  C   C555      1.0  0.24666  0.84814  0.46133  1.0000
  H   H432      1.0  0.35202  0.76844  0.01034  1.0000
  C   C556      1.0  0.28612  0.76027  0.03246  1.0000
  H   H433      1.0  0.35167  0.70600  0.20605  1.0000
  H   H434      1.0  0.07030  0.79555  0.47825  1.0000
  C   C557      1.0  0.21327  0.90878  0.46629  1.0000
  C   C558      1.0  0.35029  0.74675  0.23932  1.0000
  C   C559      1.0  0.13066  0.87252  0.47572  1.0000
  H   H435      1.0  0.44337  0.73216  0.21479  1.0000
  P   P18       1.0  0.29467  0.72029  0.00071  1.0000
  H   H436      1.0  0.25223  0.71909  0.22820  1.0000
  C   C560      1.0  0.00503  0.78881  0.44004  1.0000
  C   C561      1.0  0.20462  0.75449  0.00410  1.0000
  H   H437      1.0  0.20067  0.96064  0.44145  1.0000
  H   H438      1.0  0.01588  0.71444  0.42146  1.0000
  C   C562      1.0  0.34713  0.78169  0.19544  1.0000
  C   C563      1.0  0.32340  0.76642  0.21431  1.0000
  C   C564      1.0  0.00802  0.80169  0.38722  1.0000
  P   P19       1.0  0.40593  0.75714  0.22385  1.0000
  C   C565      1.0  0.37404  0.76153  0.21997  1.0000
  C   C566      1.0  0.37241  0.77941  0.19829  1.0000
  C   C567      1.0  0.29727  0.87925  0.44950  1.0000
  H   H439      1.0  0.20413  0.83181  0.33485  1.0000
  C   C568      1.0  0.34543  0.79925  0.03372  1.0000
  C   C569      1.0  0.23344  0.67611  0.21458  1.0000
  C   C570      1.0  0.30253  0.69771  0.02383  1.0000
  C   C571      1.0  0.41673  0.76414  0.26324  1.0000
  H   H440      1.0  0.46753  0.79845  0.23697  1.0000
  H   H441      1.0  0.17777  0.92696  0.39914  1.0000
  H   H442      1.0  0.44195  0.78157  0.34742  1.0000
  H   H443      1.0  0.26301  0.74586  0.03209  1.0000
  H   H444      1.0  0.22342  0.94906  0.48444  1.0000
  H   H445      1.0  0.08821  0.89199  0.48042  1.0000
  S   S82       1.0  0.45197  0.69736  0.08875  1.0000
  H   H446      1.0  0.28006  0.79113  0.05694  1.0000
  C   C572      1.0  0.30624  0.75353  0.01917  1.0000
  H   H447      1.0  0.34558  0.79471  0.17794  1.0000
  H   H448      1.0  0.30356  0.76767  0.21135  1.0000
  C   C573      1.0  0.18262  0.66942  0.24222  1.0000
  H   H449      1.0  0.25287  0.68241  0.10532  1.0000
  H   H450      1.0  0.39025  0.79155  0.18328  1.0000
  H   H451      1.0  0.17490  0.79654  0.45099  1.0000
  C   C574      1.0  0.20058  0.94086  0.44180  1.0000
  H   H452      1.0  0.08477  0.90478  0.08314  1.0000
  H   H453      1.0  0.14818  0.89370  0.47490  1.0000
  C   C575      1.0  0.11510  0.94368  0.41643  1.0000
  H   H454      1.0  0.19266  0.67045  0.03459  1.0000
  H   H455      1.0  0.41121  0.76633  0.15850  1.0000
  H   H456      1.0  0.22827  0.95138  0.27630  1.0000
  H   H457      1.0  0.15096  0.80080  0.33090  1.0000
  C   C576      1.0  0.42320  0.65850  0.00560  1.0000
  C   C577      1.0  0.23364  0.65593  0.14379  1.0000
  H   H458      1.0  0.23065  0.82937  0.47223  1.0000
  C   C578      1.0  0.23711  0.69117  0.01901  1.0000
  C   C579      1.0  0.43574  0.78087  0.20039  1.0000
  C   C580      1.0  0.18012  0.72814  0.00165  1.0000
  H   H459      1.0  0.41668  0.80352  0.26363  1.0000
  H   H460      1.0  0.00939  0.77757  0.45743  1.0000
  H   H461      1.0  0.43632  0.75519  0.99818  1.0000
  H   H462      1.0  0.22697  0.66995  0.15379  1.0000
  H   H463      1.0  0.43505  0.73756  0.32406  1.0000
  C   C581      1.0  0.42104  0.71620  0.21072  1.0000
  C   C582      1.0  0.42044  0.78889  0.27671  1.0000
  C   C583      1.0  0.45435  0.79965  0.15059  1.0000
  C   C584      1.0  0.13446  0.96844  0.47388  1.0000
  C   C585      1.0  0.98755  0.72016  0.45249  1.0000
  H   H464      1.0  0.22391  0.90432  0.48483  1.0000
  H   H465      1.0  0.30565  0.91513  0.42291  1.0000
  C   C586      1.0  0.11145  0.96627  0.42517  1.0000
  H   H466      1.0  0.00412  0.72971  0.46998  1.0000
  C   C587      1.0  0.99078  0.82275  0.42448  1.0000
  H   H467      1.0  0.14730  0.93678  0.48019  1.0000
  C   C588      1.0  0.12070  0.97838  0.45391  1.0000
  C   C589      1.0  0.99418  0.71155  0.42517  1.0000
  H   H468      1.0  0.45070  0.80011  0.12644  1.0000
  H   H469      1.0  0.26987  0.97312  0.24082  1.0000
  C   C590      1.0  0.04379  0.85917  0.48186  1.0000
  H   H470      1.0  0.16288  0.66694  0.25271  1.0000
  H   H471      1.0  0.10163  0.97449  0.40949  1.0000
  H   H472      1.0  0.34216  0.65893  0.19246  1.0000
  P   P20       1.0  0.98815  0.81280  0.48644  1.0000
  C   C591      1.0  0.26491  0.98610  0.25558  1.0000
  C   C592      1.0  0.25574  0.70212  0.99405  1.0000
  Fe  Fe44      1.0  0.06305  0.83864  0.62001  1.0000
  S   S83       1.0  0.08967  0.82036  0.60030  1.0000
  S   S84       1.0  0.01545  0.82415  0.60701  1.0000
  Fe  Fe45      1.0  0.11834  0.89088  0.64403  1.0000
  S   S85       1.0  0.14846  0.87579  0.62615  1.0000
  S   S86       1.0  0.13106  0.93274  0.66709  1.0000
  Fe  Fe46      1.0  0.12010  0.86349  0.58415  1.0000
  S   S87       1.0  0.13880  0.87828  0.53722  1.0000
  Fe  Fe47      1.0  0.11568  0.83373  0.64442  1.0000
  S   S88       1.0  0.12607  0.80107  0.66567  1.0000
  S   S89       1.0  0.09248  0.88119  0.60121  1.0000
  S   S90       1.0  0.08682  0.84950  0.66507  1.0000
  Fe  Fe48      1.0  0.20272  0.75898  0.80435  1.0000
  S   S91       1.0  0.22540  0.76890  0.85028  1.0000
  S   S92       1.0  0.19979  0.79433  0.77927  1.0000
  Fe  Fe49      1.0  0.19118  0.69867  0.80643  1.0000
  S   S93       1.0  0.21200  0.70344  0.85192  1.0000
  Fe  Fe50      1.0  0.18943  0.72762  0.86547  1.0000
  S   S94       1.0  0.16562  0.71676  0.91064  1.0000
  Fe  Fe51      1.0  0.24661  0.74420  0.83384  1.0000
  S   S95       1.0  0.29237  0.75524  0.84738  1.0000
  S   S96       1.0  0.16500  0.71926  0.82106  1.0000
  S   S97       1.0  0.22757  0.73787  0.78709  1.0000
  H   H473      1.0  0.18179  0.86629  0.50331  1.0000
  S   S98       1.0  0.45304  0.77825  0.80121  1.0000
  S   S99       1.0  0.39748  0.71649  0.81771  1.0000
  Fe  Fe52      1.0  0.41334  0.74505  0.77767  1.0000
  S   S100      1.0  0.38208  0.75517  0.75248  1.0000
  Fe  Fe53      1.0  0.43893  0.74831  0.84029  1.0000
  S   S101      1.0  0.43385  0.76276  0.88742  1.0000
  S   S102      1.0  0.43679  0.72417  0.75621  1.0000
  S   S103      1.0  0.46484  0.72821  0.82402  1.0000
  C   C593      1.0  0.44509  0.75345  0.92135  1.0000
  C   C594      1.0  0.43536  0.75822  0.94930  1.0000
  H   H474      1.0  0.00304  0.77746  0.64743  1.0000
  H   H475      1.0  0.12514  0.74206  0.91151  1.0000
  C   C595      1.0  0.32274  0.84201  0.84526  1.0000
  C   C596      1.0  0.35924  0.76004  0.77805  1.0000
  C   C597      1.0  0.36476  0.76113  0.80913  1.0000
  C   C598      1.0  0.34437  0.76052  0.82989  1.0000
  C   C599      1.0  0.31802  0.75828  0.81990  1.0000
  C   C600      1.0  0.31292  0.75851  0.78871  1.0000
  C   C601      1.0  0.33384  0.75990  0.76778  1.0000
  H   H476      1.0  0.38462  0.76204  0.81727  1.0000
  H   H477      1.0  0.34886  0.76117  0.85378  1.0000
  H   H478      1.0  0.29267  0.75683  0.78075  1.0000
  H   H479      1.0  0.32958  0.75908  0.74371  1.0000
  C   C602      1.0  0.18121  0.73178  0.94627  1.0000
  C   C603      1.0  0.21401  0.70007  0.71226  1.0000
  C   C604      1.0  0.98612  0.74993  0.55652  1.0000
  C   C605      1.0  0.36810  0.88307  0.88566  1.0000
  C   C606      1.0  0.20549  0.75824  0.94871  1.0000
  H   H480      1.0  0.06893  0.75324  0.70353  1.0000
  H   H481      1.0  0.21489  0.77019  0.92844  1.0000
  C   C607      1.0  0.14657  0.79976  0.69764  1.0000
  C   C608      1.0  0.14687  0.77472  0.70386  1.0000
  C   C609      1.0  0.16271  0.77255  0.72875  1.0000
  C   C610      1.0  0.17854  0.79544  0.74796  1.0000
  C   C611      1.0  0.17819  0.82044  0.74182  1.0000
  C   C612      1.0  0.16230  0.82260  0.71696  1.0000
  H   H482      1.0  0.13481  0.75687  0.68918  1.0000
  H   H483      1.0  0.16301  0.75331  0.73282  1.0000
  H   H484      1.0  0.19037  0.83835  0.75637  1.0000
  H   H485      1.0  0.16232  0.84198  0.71267  1.0000
  H   H486      1.0  0.23946  0.96910  0.55698  1.0000
  H   H487      1.0  0.06720  0.72130  0.74375  1.0000
  H   H488      1.0  0.11738  0.72563  0.75798  1.0000
  H   H489      1.0  0.12806  0.68832  0.74205  1.0000
  H   H490      1.0  0.17170  0.66598  0.98336  1.0000
  C   C613      1.0  0.15409  0.96605  0.65134  1.0000
  C   C614      1.0  0.11368  0.68507  0.76099  1.0000
  C   C615      1.0  0.17411  0.96987  0.62849  1.0000
  C   C616      1.0  0.01216  0.78608  0.51981  1.0000
  H   H491      1.0  0.17516  0.95208  0.61926  1.0000
  H   H492      1.0  0.08586  0.72013  0.87333  1.0000
  H   H493      1.0  0.03231  0.76898  0.54909  1.0000
  H   H494      1.0  0.21716  0.66337  0.66189  1.0000
  H   H495      1.0  0.21303  0.76168  0.71288  1.0000
  C   C617      1.0  0.21333  0.68600  0.96104  1.0000
  C   C618      1.0  0.45019  0.66207  0.87212  1.0000
  C   C619      1.0  0.08468  0.65634  0.80236  1.0000
  H   H496      1.0  0.33034  0.82732  0.98566  1.0000
  H   H497      1.0  0.14897  0.69689  0.97126  1.0000
  C   C620      1.0  0.24357  0.69898  0.96486  1.0000
  H   H498      1.0  0.27901  0.72599  0.66006  1.0000
  C   C621      1.0  0.29191  0.71552  0.66084  1.0000
  C   C622      1.0  0.10750  0.70611  0.77001  1.0000
  C   C623      1.0  0.04201  0.73158  0.84664  1.0000
  C   C624      1.0  0.29632  0.81772  0.79957  1.0000
  C   C625      1.0  0.33816  0.83548  0.93785  1.0000
  C   C626      1.0  0.15574  0.77184  0.88047  1.0000
  C   C627      1.0  0.39891  0.94012  0.90008  1.0000
  C   C628      1.0  0.32673  0.82762  0.90835  1.0000
  C   C629      1.0  0.27251  0.68797  0.74957  1.0000
  C   C630      1.0  0.30621  0.85588  0.84636  1.0000
  H   H499      1.0  0.17955  0.71072  0.71333  1.0000
  C   C631      1.0  0.29219  0.69148  0.80955  1.0000
  C   C632      1.0  0.08949  0.70224  0.79503  1.0000
  H   H500      1.0  0.04293  0.93594  0.54067  1.0000
  H   H501      1.0  0.33371  0.70210  0.78980  1.0000
  H   H502      1.0  0.41084  0.96211  0.90572  1.0000
  C   C633      1.0  0.01205  0.76803  0.54207  1.0000
  C   C634      1.0  0.07125  0.94357  0.57910  1.0000
  H   H503      1.0  0.20396  0.68453  0.93870  1.0000
  C   C635      1.0  0.06979  0.88862  0.52473  1.0000
  H   H504      1.0  0.13835  0.78440  0.54019  1.0000
  C   C636      1.0  0.35322  0.74393  0.91607  1.0000
  H   H505      1.0  0.25701  0.70651  0.94498  1.0000
  C   C637      1.0  0.29369  0.79856  0.95881  1.0000
  H   H506      1.0  0.35988  0.85268  0.94145  1.0000
  H   H507      1.0  0.34215  0.67784  0.86989  1.0000
  H   H508      1.0  0.42227  0.67545  0.96245  1.0000
  C   C638      1.0  0.38154  0.68591  0.89300  1.0000
  H   H509      1.0  0.23531  0.79038  0.97927  1.0000
  Fe  Fe54      1.0  0.42406  0.69830  0.79869  1.0000
  C   C639      1.0  0.31750  0.82284  0.82169  1.0000
  P   P21       1.0  0.08339  0.73011  0.80832  1.0000
  H   H510      1.0  0.27198  0.86111  0.82536  1.0000
  C   C640      1.0  0.31631  0.72793  0.96668  1.0000
  H   H511      1.0  0.36771  0.75020  0.89674  1.0000
  H   H512      1.0  0.43264  0.94131  0.87139  1.0000
  C   C641      1.0  0.99576  0.68328  0.82203  1.0000
  H   H513      1.0  0.33765  0.67741  0.65991  1.0000
  C   C642      1.0  0.46348  0.74167  0.92114  1.0000
  C   C643      1.0  0.35447  0.66872  0.87973  1.0000
  C   C644      1.0  0.04517  0.87425  0.54277  1.0000
  H   H514      1.0  0.30024  0.69422  0.83264  1.0000
  C   C645      1.0  0.99069  0.69769  0.84541  1.0000
  H   H515      1.0  0.18204  0.79776  0.84403  1.0000
  C   C646      1.0  0.13857  0.76913  0.82888  1.0000
  C   C647      1.0  0.31323  0.74374  0.94356  1.0000
  H   H516      1.0  0.32908  0.81116  0.82078  1.0000
  H   H517      1.0  0.04573  0.87954  0.56656  1.0000
  H   H518      1.0  0.33428  0.88261  0.91419  1.0000
  C   C648      1.0  0.16073  0.78140  0.85063  1.0000
  H   H519      1.0  0.10344  0.82125  0.76707  1.0000
  C   C649      1.0  0.09871  0.83198  0.50479  1.0000
  H   H520      1.0  0.29897  0.66489  0.69811  1.0000
  H   H521      1.0  0.19895  0.67798  0.71364  1.0000
  C   C650      1.0  0.25361  0.68316  0.77398  1.0000
  C   C651      1.0  0.30305  0.68112  0.68190  1.0000
  C   C652      1.0  0.26301  0.73902  0.71266  1.0000
  C   C653      1.0  0.25178  0.75751  0.71260  1.0000
  C   C654      1.0  0.22170  0.74732  0.71219  1.0000
  C   C655      1.0  0.20284  0.71861  0.71231  1.0000
  H   H522      1.0  0.14318  0.77611  0.80562  1.0000
  H   H523      1.0  0.26328  0.82729  0.78396  1.0000
  H   H524      1.0  0.23137  0.67857  0.76994  1.0000
  H   H525      1.0  0.24903  0.68240  0.82246  1.0000
  H   H526      1.0  0.28635  0.74722  0.71363  1.0000
  H   H527      1.0  0.26636  0.77975  0.71353  1.0000
  H   H528      1.0  0.08680  0.80296  0.71508  1.0000
  C   C656      1.0  0.28503  0.85074  0.82419  1.0000
  C   C657      1.0  0.39583  0.90004  0.87345  1.0000
  P   P22       1.0  0.34782  0.84649  0.87584  1.0000
  C   C658      1.0  0.37316  0.83403  0.86632  1.0000
  C   C659      1.0  0.38556  0.83846  0.83726  1.0000
  C   C660      1.0  0.40561  0.82941  0.83017  1.0000
  C   C661      1.0  0.41389  0.81634  0.85216  1.0000
  C   C662      1.0  0.40205  0.81221  0.88121  1.0000
  C   C663      1.0  0.38173  0.82090  0.88828  1.0000
  H   H529      1.0  0.98622  0.73682  0.57477  1.0000
  C   C664      1.0  0.28243  0.79034  0.92951  1.0000
  C   C665      1.0  0.29878  0.80485  0.90439  1.0000
  C   C666      1.0  0.32158  0.82108  0.96296  1.0000
  H   H530      1.0  0.40579  0.89152  0.85836  1.0000
  H   H531      1.0  0.37971  0.84883  0.81999  1.0000
  H   H532      1.0  0.41450  0.83214  0.80750  1.0000
  H   H533      1.0  0.42922  0.80906  0.84666  1.0000
  H   H534      1.0  0.40860  0.80204  0.89814  1.0000
  H   H535      1.0  0.37287  0.81725  0.91092  1.0000
  H   H536      1.0  0.26114  0.77243  0.92613  1.0000
  H   H537      1.0  0.28954  0.79811  0.88194  1.0000
  H   H538      1.0  0.10210  0.78990  0.80765  1.0000
  C   C667      1.0  0.31110  0.69613  0.78541  1.0000
  C   C668      1.0  0.24422  0.71015  0.71156  1.0000
  C   C669      1.0  0.15568  0.78742  0.49518  1.0000
  C   C670      1.0  0.07591  0.76096  0.72643  1.0000
  C   C671      1.0  0.08597  0.78908  0.73294  1.0000
  C   C672      1.0  0.09552  0.79939  0.76220  1.0000
  C   C673      1.0  0.09510  0.78160  0.78499  1.0000
  C   C674      1.0  0.08584  0.75346  0.77842  1.0000
  C   C675      1.0  0.07549  0.74310  0.74914  1.0000
  H   H539      1.0  0.29204  0.80244  0.78184  1.0000
  H   H540      1.0  0.30906  0.87016  0.86467  1.0000
  C   C676      1.0  0.28007  0.83165  0.80082  1.0000
  C   C677      1.0  0.21696  0.76963  0.97752  1.0000
  C   C678      1.0  0.47799  0.67855  0.86029  1.0000
  C   C679      1.0  0.98287  0.79378  0.61726  1.0000
  H   H541      1.0  0.36161  0.93259  0.92694  1.0000
  H   H542      1.0  0.17317  0.78066  0.89714  1.0000
  C   C680      1.0  0.11110  0.74748  0.83694  1.0000
  C   C681      1.0  0.16820  0.71709  0.97288  1.0000
  H   H543      1.0  0.05363  0.93332  0.59512  1.0000
  C   C682      1.0  0.01911  0.84429  0.50008  1.0000
  C   C683      1.0  0.39820  0.67458  0.90480  1.0000
  C   C684      1.0  0.41118  0.92841  0.88076  1.0000
  C   C685      1.0  0.31362  0.72224  0.63910  1.0000
  P   P23       1.0  0.25919  0.68659  0.71144  1.0000
  Fe  Fe55      1.0  0.47593  0.75560  0.78252  1.0000
  C   C686      1.0  0.15034  0.79813  0.52176  1.0000
  H   H544      1.0  0.39008  0.70820  0.89324  1.0000
  H   H545      1.0  0.29706  0.75043  0.94530  1.0000
  H   H546      1.0  0.15572  0.83492  0.54500  1.0000
  H   H547      1.0  0.32869  0.76368  0.90057  1.0000
  C   C687      1.0  0.12855  0.75006  0.88859  1.0000
  H   H548      1.0  0.12598  0.65905  0.92034  1.0000
  C   C688      1.0  0.10637  0.73771  0.86687  1.0000
  H   H549      1.0  0.09129  0.82177  0.52640  1.0000
  H   H550      1.0  0.31767  0.73814  0.62245  1.0000
  C   C689      1.0  0.35698  0.72887  0.93937  1.0000
  H   H551      1.0  0.03270  0.80088  0.50990  1.0000
  C   C690      1.0  0.35580  0.89512  0.90479  1.0000
  H   H552      1.0  0.05959  0.75069  0.85586  1.0000
  H   H553      1.0  0.02744  0.68189  0.79242  1.0000
  H   H554      1.0  0.08299  0.95823  0.50404  1.0000
  H   H555      1.0  0.17842  0.96708  0.73803  1.0000
  H   H556      1.0  0.26287  0.67761  0.87672  1.0000
  H   H557      1.0  0.18864  0.93032  0.55821  1.0000
  H   H558      1.0  0.14867  0.93670  0.53789  1.0000
  C   C691      1.0  0.16023  0.82664  0.52452  1.0000
  C   C692      1.0  0.19342  0.95011  0.54830  1.0000
  C   C693      1.0  0.37120  0.92349  0.91205  1.0000
  C   C694      1.0  0.19508  0.67566  0.98616  1.0000
  H   H559      1.0  0.00194  0.83996  0.54559  1.0000
  C   C695      1.0  0.17074  0.95382  0.53673  1.0000
  C   C696      1.0  0.30148  0.69468  0.75553  1.0000
  C   C697      1.0  0.28705  0.69548  0.68303  1.0000
  H   H560      1.0  0.14504  0.97718  0.57691  1.0000
  H   H561      1.0  0.41960  0.68845  0.91382  1.0000
  C   C698      1.0  0.39435  0.65820  0.70888  1.0000
  C   C699      1.0  0.04734  0.71688  0.82361  1.0000
  C   C700      1.0  0.02396  0.69292  0.81101  1.0000
  C   C701      1.0  0.20630  0.97249  0.70019  1.0000
  H   H562      1.0  0.42154  0.76776  0.94973  1.0000
  H   H563      1.0  0.40655  0.68041  0.70492  1.0000
  C   C702      1.0  0.10004  0.95516  0.58916  1.0000
  C   C703      1.0  0.46264  0.73994  0.97667  1.0000
  C   C704      1.0  0.02012  0.85194  0.53067  1.0000
  C   C705      1.0  0.07849  0.67737  0.81145  1.0000
  H   H564      1.0  0.19248  0.95165  0.69130  1.0000
  C   C706      1.0  0.33139  0.75149  0.91825  1.0000
  C   C707      1.0  0.06896  0.88128  0.49422  1.0000
  H   H565      1.0  0.37452  0.72386  0.93817  1.0000
  C   C708      1.0  0.06528  0.94505  0.54845  1.0000
  C   C709      1.0  0.33884  0.72115  0.96469  1.0000
  C   C710      1.0  0.12099  0.85963  0.50392  1.0000
  H   H566      1.0  0.47123  0.73797  0.89979  1.0000
  C   C711      1.0  0.32483  0.68798  0.66021  1.0000
  C   C712      1.0  0.44371  0.75113  0.97681  1.0000
  H   H567      1.0  0.31730  0.70027  0.73765  1.0000
  C   C713      1.0  0.26346  0.68504  0.80382  1.0000
  H   H568      1.0  0.10469  0.95394  0.61294  1.0000
  H   H569      1.0  0.28087  0.78731  0.97825  1.0000
  C   C714      1.0  0.01379  0.72187  0.85764  1.0000
  H   H570      1.0  0.46953  0.65550  0.94431  1.0000
  H   H571      1.0  0.11925  0.66059  0.86495  1.0000
  H   H572      1.0  0.34738  0.71418  0.62239  1.0000
  C   C715      1.0  0.47146  0.66174  0.92082  1.0000
  C   C716      1.0  0.08810  0.95768  0.52771  1.0000
  C   C717      1.0  0.10220  0.66017  0.77709  1.0000
  C   C718      1.0  0.47236  0.73512  0.94871  1.0000
  C   C719      1.0  0.11710  0.96899  0.53759  1.0000
  C   C720      1.0  0.33026  0.70866  0.63895  1.0000
  C   C721      1.0  0.25121  0.65531  0.88038  1.0000
  H   H573      1.0  0.32961  0.66578  0.94062  1.0000
  C   C722      1.0  0.17522  0.84451  0.50065  1.0000
  H   H574      1.0  0.08975  0.90492  0.53463  1.0000
  H   H575      1.0  0.37031  0.68691  0.97817  1.0000
  C   C723      1.0  0.12288  0.96807  0.56858  1.0000
  H   H576      1.0  0.00980  0.73328  0.87545  1.0000
  C   C724      1.0  0.98631  0.78616  0.51169  1.0000
  H   H577      1.0  0.06559  0.67442  0.83160  1.0000
  C   C725      1.0  0.17646  0.97945  0.52428  1.0000
  H   H578      1.0  0.34317  0.71077  0.98309  1.0000
  S   S104      1.0  0.16961  0.65977  0.77716  1.0000
  C   C726      1.0  0.19840  0.98123  0.72663  1.0000
  C   C727      1.0  0.22201  0.97192  0.54754  1.0000
  C   C728      1.0  0.35466  0.66493  0.97890  1.0000
  C   C729      1.0  0.41939  0.65706  0.97411  1.0000
  H   H579      1.0  0.14786  0.76527  0.49297  1.0000
  H   H580      1.0  0.21251  0.65553  0.89550  1.0000
  P   P24       1.0  0.14674  0.98447  0.51089  1.0000
  H   H581      1.0  0.23663  0.98438  0.66334  1.0000
  H   H582      1.0  0.43140  0.65602  0.85763  1.0000
  C   C730      1.0  0.98276  0.77431  0.63762  1.0000
  H   H583      1.0  0.48044  0.68476  0.83671  1.0000
  H   H584      1.0  0.43177  0.65571  0.72499  1.0000
  H   H585      1.0  0.35348  0.65505  0.69623  1.0000
  C   C731      1.0  0.44669  0.65321  0.90233  1.0000
  Fe  Fe56      1.0  0.72222  0.23865  0.14079  1.0000
  S   S105      1.0  0.67710  0.21511  0.12029  1.0000
  S   S106      1.0  0.74951  0.21804  0.15539  1.0000
  Fe  Fe57      1.0  0.72440  0.29534  0.12997  1.0000
  S   S107      1.0  0.68022  0.27583  0.10877  1.0000
  H   H586      1.0  0.74882  0.05263  0.46769  1.0000
  Fe  Fe58      1.0  0.66762  0.24509  0.14647  1.0000
  S   S108      1.0  0.62753  0.23507  0.17411  1.0000
  Fe  Fe59      1.0  0.69350  0.24791  0.08393  1.0000
  S   S109      1.0  0.67590  0.23690  0.03561  1.0000
  S   S110      1.0  0.71149  0.26630  0.16972  1.0000
  S   S111      1.0  0.73920  0.26975  0.10226  1.0000
  C   C732      1.0  0.53543  0.26733  0.23434  1.0000
  H   H587      1.0  0.83133  0.22271  0.38841  1.0000
  Fe  Fe60      1.0  0.83095  0.12993  0.31082  1.0000
  S   S112      1.0  0.81940  0.16276  0.32439  1.0000
  S   S113      1.0  0.87578  0.13930  0.29360  1.0000
  Fe  Fe61      1.0  0.77138  0.08196  0.32931  1.0000
  S   S114      1.0  0.75613  0.11228  0.34406  1.0000
  S   S115      1.0  0.73799  0.03628  0.33877  1.0000
  Fe  Fe62      1.0  0.77636  0.13589  0.30101  1.0000
  S   S116      1.0  0.74933  0.15272  0.27629  1.0000
  Fe  Fe63      1.0  0.80000  0.13678  0.36592  1.0000
  S   S117      1.0  0.81248  0.16056  0.41090  1.0000
  S   S118      1.0  0.78881  0.10400  0.28478  1.0000
  S   S119      1.0  0.81430  0.10545  0.35381  1.0000
  C   C733      1.0  0.95965  0.22124  0.31569  1.0000
  C   C734      1.0  0.93220  0.21848  0.32199  1.0000
  C   C735      1.0  0.90646  0.19364  0.31527  1.0000
  C   C736      1.0  0.90785  0.17105  0.30226  1.0000
  C   C737      1.0  0.93536  0.17386  0.29557  1.0000
  C   C738      1.0  0.96117  0.19883  0.30225  1.0000
  H   H588      1.0  0.93094  0.23567  0.33245  1.0000
  H   H589      1.0  0.88552  0.19200  0.31998  1.0000
  H   H590      1.0  0.93671  0.15659  0.28526  1.0000
  H   H591      1.0  0.71632  0.20794  0.05843  1.0000
  C   C739      1.0  0.77168  0.12127  0.44906  1.0000
  C   C740      1.0  0.79877  0.14513  0.44654  1.0000
  C   C741      1.0  0.73083  0.03227  0.13625  1.0000
  H   H592      1.0  0.75891  0.11175  0.42885  1.0000
  C   C742      1.0  0.94882  0.18344  0.46420  1.0000
  C   C743      1.0  0.59617  0.23084  0.15482  1.0000
  C   C744      1.0  0.59397  0.22827  0.12322  1.0000
  C   C745      1.0  0.56803  0.22317  0.10856  1.0000
  C   C746      1.0  0.54436  0.22115  0.12528  1.0000
  C   C747      1.0  0.54695  0.22476  0.15678  1.0000
  C   C748      1.0  0.57270  0.22930  0.17151  1.0000
  H   H593      1.0  0.61189  0.22932  0.11019  1.0000
  H   H594      1.0  0.56622  0.22044  0.08424  1.0000
  H   H595      1.0  0.52881  0.22318  0.16987  1.0000
  H   H596      1.0  0.57433  0.23129  0.19595  1.0000
  C   C749      1.0  0.75023  0.17109  0.24248  1.0000
  C   C750      1.0  0.73132  0.18243  0.24000  1.0000
  C   C751      1.0  0.73077  0.19683  0.21371  1.0000
  C   C752      1.0  0.74907  0.19997  0.18927  1.0000
  C   C753      1.0  0.76799  0.18859  0.19174  1.0000
  C   C754      1.0  0.76860  0.17428  0.21808  1.0000
  H   H597      1.0  0.71689  0.18006  0.25858  1.0000
  H   H598      1.0  0.71610  0.20540  0.21232  1.0000
  H   H599      1.0  0.78223  0.19081  0.17304  1.0000
  H   H600      1.0  0.78293  0.16536  0.21921  1.0000
  C   C755      1.0  0.72463  0.25303  0.99907  1.0000
  C   C756      1.0  0.69472  0.24371  0.00074  1.0000
  C   C757      1.0  0.79905  0.26969  0.21145  1.0000
  H   H601      1.0  0.73720  0.25644  0.01964  1.0000
  H   H602      1.0  0.51264  0.26138  0.23138  1.0000
  H   H603      1.0  0.77949  0.01904  0.31589  1.0000
  C   C758      1.0  0.73502  0.00338  0.32922  1.0000
  C   C759      1.0  0.81501  0.15766  0.47300  1.0000
  H   H604      1.0  0.57925  0.24482  0.26636  1.0000
  H   H605      1.0  0.53813  0.27600  0.06109  1.0000
  C   C760      1.0  0.79196  0.00849  0.21879  1.0000
  P   P25       1.0  0.96253  0.20342  0.42975  1.0000
  H   H606      1.0  0.62151  0.23173  0.01470  1.0000
  H   H607      1.0  0.52697  0.23125  0.26055  1.0000
  C   C761      1.0  0.82214  0.22158  0.36605  1.0000
  C   C762      1.0  0.79213  0.20567  0.36173  1.0000
  C   C763      1.0  0.78014  0.20351  0.33290  1.0000
  C   C764      1.0  0.79817  0.21689  0.30828  1.0000
  C   C765      1.0  0.82845  0.23274  0.31225  1.0000
  C   C766      1.0  0.84029  0.23499  0.34146  1.0000
  P   P26       1.0  0.85165  0.24787  0.27958  1.0000
  C   C767      1.0  0.85881  0.22181  0.26233  1.0000
  C   C768      1.0  0.83228  0.25767  0.25260  1.0000
  C   C769      1.0  0.83224  0.25175  0.22154  1.0000
  C   C770      1.0  0.81569  0.25779  0.20111  1.0000
  C   C771      1.0  0.73360  0.03535  0.45379  1.0000
  C   C772      1.0  0.68152  0.99412  0.13822  1.0000
  C   C773      1.0  0.88540  0.27782  0.29128  1.0000
  C   C774      1.0  0.88679  0.22847  0.25212  1.0000
  C   C775      1.0  0.89211  0.20775  0.24009  1.0000
  C   C776      1.0  0.86939  0.18048  0.23714  1.0000
  C   C777      1.0  0.84126  0.17402  0.24574  1.0000
  C   C778      1.0  0.83597  0.19460  0.25822  1.0000
  C   C779      1.0  0.75850  0.00072  0.31821  1.0000
  H   H608      1.0  0.74887  0.04783  0.12336  1.0000
  H   H609      1.0  0.73831  0.00475  0.47947  1.0000
  C   C780      1.0  0.72723  0.00812  0.46058  1.0000
  H   H610      1.0  0.91393  0.21269  0.23350  1.0000
  H   H611      1.0  0.49270  0.31746  0.99551  1.0000
  H   H612      1.0  0.57799  0.23021  0.99120  1.0000
  H   H613      1.0  0.77826  0.19449  0.38061  1.0000
  H   H614      1.0  0.75690  0.19068  0.32930  1.0000
  H   H615      1.0  0.78836  0.21418  0.28599  1.0000
  H   H616      1.0  0.86341  0.24657  0.34547  1.0000
  H   H617      1.0  0.84431  0.24184  0.21304  1.0000
  H   H618      1.0  0.81480  0.25229  0.17730  1.0000
  C   C781      1.0  0.82909  0.10506  0.43514  1.0000
  H   H619      1.0  0.97626  0.21876  0.22810  1.0000
  H   H620      1.0  0.61694  0.28779  0.24312  1.0000
  C   C782      1.0  0.84306  0.09347  0.48302  1.0000
  H   H621      1.0  0.83598  0.17617  0.47120  1.0000
  H   H622      1.0  0.87363  0.16423  0.22863  1.0000
  H   H623      1.0  0.82362  0.15291  0.24333  1.0000
  H   H624      1.0  0.81408  0.18907  0.26507  1.0000
  H   H625      1.0  0.52335  0.15883  0.04582  1.0000
  C   C783      1.0  0.56933  0.17571  0.05163  1.0000
  H   H626      1.0  0.81549  0.27473  0.28662  1.0000
  C   C784      1.0  0.58630  0.29946  0.22398  1.0000
  H   H627      1.0  0.84150  0.99315  0.41882  1.0000
  S   S120      1.0  0.51136  0.21226  0.10627  1.0000
  H   H628      1.0  0.75963  0.04501  0.26882  1.0000
  H   H629      1.0  0.63495  0.26613  0.06230  1.0000
  C   C785      1.0  0.57297  0.25812  0.25406  1.0000
  C   C786      1.0  0.54353  0.25043  0.25073  1.0000
  C   C787      1.0  0.76302  0.00225  0.21446  1.0000
  H   H630      1.0  0.91272  0.19201  0.46864  1.0000
  C   C788      1.0  0.90610  0.22672  0.39209  1.0000
  C   C789      1.0  0.88235  0.20115  0.38409  1.0000
  C   C790      1.0  0.88328  0.17653  0.38910  1.0000
  C   C791      1.0  0.90779  0.17735  0.40250  1.0000
  C   C792      1.0  0.93194  0.20296  0.41035  1.0000
  C   C793      1.0  0.93090  0.22770  0.40507  1.0000
  H   H631      1.0  0.78544  0.27337  0.19561  1.0000
  C   C794      1.0  0.76055  0.11053  0.47788  1.0000
  C   C795      1.0  0.51840  0.27700  0.01857  1.0000
  C   C796      1.0  0.55673  0.29177  0.22112  1.0000
  H   H632      1.0  0.69065  0.05014  0.31298  1.0000
  C   C797      1.0  0.62592  0.30000  0.06971  1.0000
  C   C798      1.0  0.54456  0.17445  0.03816  1.0000
  C   C799      1.0  0.89116  0.30497  0.28454  1.0000
  H   H633      1.0  0.74991  0.98705  0.19735  1.0000
  H   H634      1.0  0.80099  0.99800  0.20527  1.0000
  C   C800      1.0  0.93311  0.29677  0.31526  1.0000
  C   C801      1.0  0.75319  0.20864  0.03630  1.0000
  H   H635      1.0  0.79124  0.03547  0.44659  1.0000
  C   C802      1.0  0.96979  0.17788  0.37737  1.0000
  H   H636      1.0  0.90536  0.24579  0.38806  1.0000
  H   H637      1.0  0.86316  0.20025  0.37387  1.0000
  H   H638      1.0  0.86485  0.15682  0.38261  1.0000
  H   H639      1.0  0.90790  0.15799  0.40676  1.0000
  H   H640      1.0  0.94897  0.24776  0.41109  1.0000
  H   H641      1.0  0.79588  0.07073  0.40964  1.0000
  C   C803      1.0  0.53045  0.26619  0.03916  1.0000
  H   H642      1.0  0.83113  0.12051  0.41883  1.0000
  H   H643      1.0  0.55518  0.27924  0.11487  1.0000
  C   C804      1.0  0.54742  0.19381  0.01590  1.0000
  C   C805      1.0  0.72091  0.04052  0.42852  1.0000
  C   C806      1.0  0.65514  0.29795  0.02850  1.0000
  C   C807      1.0  0.59434  0.28258  0.24079  1.0000
  H   H644      1.0  0.76822  0.22033  0.05447  1.0000
  H   H645      1.0  0.66573  0.28755  0.01751  1.0000
  H   H646      1.0  0.90255  0.25318  0.31203  1.0000
  C   C808      1.0  0.92388  0.18158  0.47818  1.0000
  C   C809      1.0  0.50788  0.26373  0.99060  1.0000
  C   C810      1.0  0.59703  0.19626  0.04304  1.0000
  C   C811      1.0  0.71027  0.01057  0.18459  1.0000
  C   C812      1.0  0.53103  0.24162  0.03229  1.0000
  H   H647      1.0  0.94932  0.17549  0.36908  1.0000
  H   H648      1.0  0.63899  0.14147  0.00058  1.0000
  C   C813      1.0  0.75110  0.01559  0.23212  1.0000
  P   P27       1.0  0.71423  0.00858  0.22515  1.0000
  C   C814      1.0  0.70872  0.03512  0.24375  1.0000
  C   C815      1.0  0.69942  0.03158  0.27402  1.0000
  C   C816      1.0  0.69694  0.05271  0.28933  1.0000
  C   C817      1.0  0.70378  0.07755  0.27460  1.0000
  C   C818      1.0  0.71304  0.08128  0.24449  1.0000
  C   C819      1.0  0.71556  0.06020  0.22908  1.0000
  H   H649      1.0  0.87539  0.30862  0.27246  1.0000
  C   C820      1.0  0.73361  0.03051  0.16761  1.0000
  C   C821      1.0  0.76847  0.03504  0.25428  1.0000
  C   C822      1.0  0.70444  0.18678  0.01515  1.0000
  C   C823      1.0  0.90655  0.27397  0.30683  1.0000
  H   H650      1.0  0.94946  0.29346  0.32680  1.0000
  C   C824      1.0  0.60000  0.21567  0.02107  1.0000
  C   C825      1.0  0.82805  0.98996  0.43860  1.0000
  C   C826      1.0  0.57534  0.21467  0.00776  1.0000
  S   S121      1.0  0.49258  0.27043  0.10896  1.0000
  H   H651      1.0  0.70247  0.09419  0.28667  1.0000
  H   H652      1.0  0.71885  0.10087  0.23340  1.0000
  H   H653      1.0  0.72333  0.06390  0.20602  1.0000
  H   H654      1.0  0.70265  0.01548  0.09725  1.0000
  H   H655      1.0  0.83174  0.03328  0.24383  1.0000
  H   H656      1.0  0.61621  0.19746  0.05380  1.0000
  C   C827      1.0  0.63802  0.28594  0.05404  1.0000
  C   C828      1.0  0.79757  0.04167  0.25814  1.0000
  H   H657      1.0  0.75294  0.98773  0.41360  1.0000
  C   C829      1.0  0.79931  0.27604  0.24223  1.0000
  C   C830      1.0  0.81595  0.27017  0.26275  1.0000
  C   C831      1.0  0.72391  0.20152  0.03863  1.0000
  H   H658      1.0  0.75391  0.04489  0.17866  1.0000
  H   H659      1.0  0.69250  0.02259  0.38999  1.0000
  C   C832      1.0  0.80671  0.05711  0.45102  1.0000
  C   C833      1.0  0.80935  0.07702  0.42992  1.0000
  C   C834      1.0  0.70480  0.01408  0.12155  1.0000
  H   H660      1.0  0.61380  0.29119  0.09036  1.0000
  H   H661      1.0  0.57805  0.28288  0.16433  1.0000
  C   C835      1.0  0.70158  0.01845  0.41017  1.0000
  H   H662      1.0  0.72639  0.06165  0.42278  1.0000
  H   H663      1.0  0.51671  0.29530  0.02453  1.0000
  H   H664      1.0  0.69502  0.01290  0.28623  1.0000
  H   H665      1.0  0.81092  0.05694  0.27514  1.0000
  C   C836      1.0  0.56962  0.29965  0.12434  1.0000
  C   C837      1.0  0.51934  0.22746  0.00482  1.0000
  H   H666      1.0  0.53923  0.23291  0.04917  1.0000
  C   C838      1.0  0.58261  0.30177  0.15259  1.0000
  C   C839      1.0  0.82378  0.06513  0.47756  1.0000
  C   C840      1.0  0.80929  0.02832  0.24051  1.0000
  H   H667      1.0  0.90465  0.24949  0.25355  1.0000
  H   H668      1.0  0.78606  0.28493  0.25020  1.0000
  H   H669      1.0  0.73384  0.29831  0.03826  1.0000
  H   H670      1.0  0.56705  0.16121  0.06936  1.0000
  H   H671      1.0  0.78578  0.20644  0.00869  1.0000
  P   P28       1.0  0.51580  0.19335  0.99902  1.0000
  H   H672      1.0  0.55014  0.30443  0.20805  1.0000
  C   C841      1.0  0.64951  0.30979  0.18449  1.0000
  C   C842      1.0  0.84571  0.11333  0.46174  1.0000
  H   H673      1.0  0.59633  0.14901  0.99872  1.0000
  H   H674      1.0  0.84903  0.03333  0.45044  1.0000
  H   H675      1.0  0.86023  0.13524  0.46599  1.0000
  C   C843      1.0  0.83224  0.01267  0.45661  1.0000
  C   C844      1.0  0.68420  0.99233  0.16961  1.0000
  S   S122      1.0  0.50451  0.31189  0.18461  1.0000
  C   C845      1.0  0.69473  0.99118  0.41716  1.0000
  H   H676      1.0  0.68214  0.18228  0.01748  1.0000
  H   H677      1.0  0.63158  0.29569  0.17012  1.0000
  H   H678      1.0  0.69674  0.07886  0.00410  1.0000
  C   C846      1.0  0.76302  0.20083  0.01052  1.0000
  C   C847      1.0  0.67512  0.30804  0.18430  1.0000
  C   C848      1.0  0.81471  0.00884  0.48214  1.0000
  C   C849      1.0  0.48304  0.16772  0.01728  1.0000
  C   C850      1.0  0.73481  0.31706  0.02929  1.0000
  H   H679      1.0  0.67671  0.29309  0.16962  1.0000
  H   H680      1.0  0.97682  0.16042  0.33639  1.0000
  H   H681      1.0  0.73907  0.09270  0.47972  1.0000
  C   C851      1.0  0.96308  0.17024  0.47779  1.0000
  H   H682      1.0  0.71449  0.12831  0.99306  1.0000
  Fe  Fe64      1.0  0.48093  0.22740  0.12372  1.0000
  H   H683      1.0  0.48114  0.13315  0.99155  1.0000
  C   C852      1.0  0.68314  0.08498  0.99131  1.0000
  Fe  Fe65      1.0  0.69782  0.21701  0.80506  1.0000
  S   S123      1.0  0.67975  0.20683  0.85271  1.0000
  S   S124      1.0  0.70270  0.18244  0.77992  1.0000
  Fe  Fe66      1.0  0.70023  0.27398  0.80819  1.0000
  S   S125      1.0  0.68383  0.26843  0.85577  1.0000
  H   H684      1.0  0.63448  0.10651  0.94487  1.0000
  Fe  Fe67      1.0  0.71322  0.25041  0.86493  1.0000
  S   S126      1.0  0.74005  0.26006  0.90824  1.0000
  Fe  Fe68      1.0  0.65138  0.22551  0.84025  1.0000
  S   S127      1.0  0.60669  0.21103  0.86034  1.0000
  S   S128      1.0  0.73333  0.25994  0.81820  1.0000
  S   S129      1.0  0.66586  0.23174  0.79173  1.0000
  H   H685      1.0  0.96360  0.14531  0.51521  1.0000
  S   S130      1.0  0.50284  0.21329  0.78872  1.0000
  Fe  Fe69      1.0  0.83746  0.12955  0.62355  1.0000
  S   S131      1.0  0.81890  0.15680  0.60823  1.0000
  S   S132      1.0  0.88450  0.14257  0.60990  1.0000
  Fe  Fe70      1.0  0.77672  0.08167  0.64123  1.0000
  S   S133      1.0  0.75533  0.10694  0.62719  1.0000
  S   S134      1.0  0.74199  0.03795  0.65601  1.0000
  Fe  Fe71      1.0  0.78371  0.11817  0.58590  1.0000
  S   S135      1.0  0.76074  0.10958  0.53996  1.0000
  Fe  Fe72      1.0  0.79198  0.14310  0.65125  1.0000
  S   S136      1.0  0.78869  0.17737  0.67899  1.0000
  S   S137      1.0  0.80328  0.09140  0.59878  1.0000
  S   S138      1.0  0.81252  0.11762  0.66784  1.0000
  C   C853      1.0  0.77673  0.12302  0.50436  1.0000
  C   C854      1.0  0.87546  0.04689  0.52020  1.0000
  C   C855      1.0  0.48860  0.23823  0.65771  1.0000
  C   C856      1.0  0.58646  0.29001  0.84949  1.0000
  H   H686      1.0  0.81677  0.15632  0.52206  1.0000
  C   C857      1.0  0.91826  0.16449  0.62842  1.0000
  C   C858      1.0  0.91997  0.17546  0.65756  1.0000
  C   C859      1.0  0.94740  0.19231  0.67134  1.0000
  H   H687      1.0  0.62515  0.21579  0.70959  1.0000
  C   C860      1.0  0.53978  0.27724  0.73907  1.0000
  C   C861      1.0  0.94426  0.17089  0.61318  1.0000
  H   H688      1.0  0.90020  0.17063  0.66965  1.0000
  H   H689      1.0  0.94849  0.20016  0.69413  1.0000
  C   C862      1.0  0.61216  0.15671  0.98061  1.0000
  H   H690      1.0  0.94328  0.16244  0.59075  1.0000
  C   C863      1.0  0.72232  0.25373  0.94365  1.0000
  C   C864      1.0  0.71402  0.17864  0.98918  1.0000
  C   C865      1.0  0.69251  0.24455  0.94538  1.0000
  C   C866      1.0  0.62040  0.23238  0.71542  1.0000
  H   H691      1.0  0.68000  0.24132  0.92477  1.0000
  C   C867      1.0  0.72738  0.18175  0.75226  1.0000
  C   C868      1.0  0.72495  0.15593  0.74361  1.0000
  C   C869      1.0  0.74353  0.15416  0.72152  1.0000
  C   C870      1.0  0.76463  0.17818  0.70730  1.0000
  C   C871      1.0  0.76708  0.20400  0.71595  1.0000
  C   C872      1.0  0.74869  0.20583  0.73826  1.0000
  H   H692      1.0  0.70866  0.13714  0.75424  1.0000
  H   H693      1.0  0.74172  0.13422  0.71571  1.0000
  H   H694      1.0  0.78339  0.22280  0.70535  1.0000
  H   H695      1.0  0.75095  0.22585  0.74451  1.0000
  C   C873      1.0  0.57957  0.21384  0.83937  1.0000
  C   C874      1.0  0.57777  0.21141  0.80770  1.0000
  C   C875      1.0  0.55429  0.21150  0.79222  1.0000
  C   C876      1.0  0.53284  0.21444  0.80826  1.0000
  C   C877      1.0  0.53521  0.21765  0.83978  1.0000
  C   C878      1.0  0.55853  0.21749  0.85519  1.0000
  H   H696      1.0  0.59398  0.20872  0.79526  1.0000
  H   H697      1.0  0.55252  0.20887  0.76788  1.0000
  H   H698      1.0  0.51876  0.21962  0.85246  1.0000
  H   H699      1.0  0.56033  0.22034  0.87951  1.0000
  C   C879      1.0  0.64257  0.28755  0.90782  1.0000
  C   C880      1.0  0.87111  0.21185  0.68830  1.0000
  C   C881      1.0  0.59204  0.22824  0.71268  1.0000
  H   H700      1.0  0.61525  0.27230  0.84678  1.0000
  H   H701      1.0  0.61706  0.05704  0.95627  1.0000
  H   H702      1.0  0.72822  0.01705  0.58661  1.0000
  C   C882      1.0  0.48602  0.17684  0.94388  1.0000
  C   C883      1.0  0.91899  0.25031  0.65465  1.0000
  C   C884      1.0  0.70538  0.16470  0.92273  1.0000
  H   H703      1.0  0.87399  0.03427  0.50069  1.0000
  C   C885      1.0  0.63638  0.27885  0.73494  1.0000
  H   H704      1.0  0.48332  0.25455  0.65286  1.0000
  H   H705      1.0  0.57473  0.20834  0.70485  1.0000
  H   H706      1.0  0.92243  0.08225  0.57804  1.0000
  C   C886      1.0  0.48256  0.16885  0.91333  1.0000
  H   H707      1.0  0.58084  0.08163  0.59147  1.0000
  C   C887      1.0  0.67556  0.12126  0.96867  1.0000
  H   H708      1.0  0.63841  0.26243  0.94668  1.0000
  H   H709      1.0  0.84478  0.21322  0.65165  1.0000
  C   C888      1.0  0.60364  0.11929  0.56565  1.0000
  C   C889      1.0  0.90309  0.07395  0.56386  1.0000
  H   H710      1.0  0.56907  0.28307  0.93782  1.0000
  H   H711      1.0  0.66933  0.18601  0.91639  1.0000
  C   C890      1.0  0.56023  0.29724  0.93942  1.0000
  H   H712      1.0  0.76143  0.26486  0.96941  1.0000
  C   C891      1.0  0.95673  0.25561  0.60251  1.0000
  H   H713      1.0  0.85254  0.19681  0.70107  1.0000
  C   C892      1.0  0.86671  0.22112  0.66037  1.0000
  H   H714      1.0  0.66809  0.04110  0.60760  1.0000
  P   P29       1.0  0.68857  0.15745  0.95977  1.0000
  H   H715      1.0  0.88660  0.24683  0.62179  1.0000
  H   H716      1.0  0.65367  0.29792  0.74459  1.0000
  H   H717      1.0  0.53814  0.28485  0.89644  1.0000
  H   H718      1.0  0.72959  0.01789  0.72729  1.0000
  C   C893      1.0  0.60834  0.17075  0.95622  1.0000
  H   H719      1.0  0.49935  0.22888  0.96218  1.0000
  H   H720      1.0  0.68648  0.29479  0.96732  1.0000
  C   C894      1.0  0.92325  0.24097  0.68283  1.0000
  P   P30       1.0  0.94945  0.27438  0.63205  1.0000
  C   C895      1.0  0.60931  0.28610  0.80349  1.0000
  H   H721      1.0  0.50237  0.16123  0.87424  1.0000
  C   C896      1.0  0.66061  0.31203  0.89224  1.0000
  C   C897      1.0  0.51415  0.27543  0.72747  1.0000
  H   H722      1.0  0.58953  0.17377  0.95530  1.0000
  H   H723      1.0  0.91806  0.05337  0.53267  1.0000
  H   H724      1.0  0.92408  0.19454  0.56283  1.0000
  H   H725      1.0  0.75147  0.17945  0.96762  1.0000
  C   C898      1.0  0.65570  0.06479  0.98106  1.0000
  H   H726      1.0  0.49565  0.29357  0.69738  1.0000
  C   C899      1.0  0.97163  0.18854  0.62648  1.0000
  H   H727      1.0  0.62163  0.27257  0.89852  1.0000
  C   C900      1.0  0.65752  0.16328  0.95872  1.0000
  H   H728      1.0  0.96049  0.30070  0.57174  1.0000
  H   H729      1.0  0.69758  0.13492  0.85259  1.0000
  H   H730      1.0  0.67748  0.12342  0.90427  1.0000
  C   C901      1.0  0.66657  0.16124  0.70571  1.0000
  C   C902      1.0  0.68232  0.19024  0.70412  1.0000
  C   C903      1.0  0.69797  0.20296  0.67796  1.0000
  C   C904      1.0  0.69824  0.18669  0.65355  1.0000
  C   C905      1.0  0.68348  0.15751  0.65549  1.0000
  C   C906      1.0  0.66677  0.14491  0.68134  1.0000
  P   P31       1.0  0.68365  0.13643  0.62390  1.0000
  C   C907      1.0  0.65245  0.12951  0.60087  1.0000
  C   C908      1.0  0.71683  0.15371  0.60238  1.0000
  C   C909      1.0  0.71697  0.14774  0.57137  1.0000
  C   C910      1.0  0.76926  0.18349  0.60084  1.0000
  C   C911      1.0  0.74323  0.17130  0.61707  1.0000
  C   C912      1.0  0.62567  0.10548  0.60561  1.0000
  C   C913      1.0  0.60140  0.10033  0.58790  1.0000
  H   H731      1.0  0.58485  0.11524  0.55187  1.0000
  C   C914      1.0  0.63009  0.14356  0.56129  1.0000
  C   C915      1.0  0.65438  0.14878  0.57899  1.0000
  C   C916      1.0  0.68247  0.10452  0.63585  1.0000
  C   C917      1.0  0.69298  0.10265  0.66455  1.0000
  C   C918      1.0  0.69357  0.07842  0.67299  1.0000
  C   C919      1.0  0.68420  0.05610  0.65260  1.0000
  C   C920      1.0  0.67430  0.05802  0.62374  1.0000
  C   C921      1.0  0.67357  0.08219  0.61530  1.0000
  H   H732      1.0  0.65497  0.15152  0.72634  1.0000
  H   H733      1.0  0.68293  0.20277  0.72352  1.0000
  H   H734      1.0  0.71038  0.22544  0.67692  1.0000
  H   H735      1.0  0.71037  0.19695  0.63343  1.0000
  H   H736      1.0  0.65438  0.12248  0.68300  1.0000
  H   H737      1.0  0.78958  0.19657  0.61261  1.0000
  H   H738      1.0  0.74386  0.17508  0.64126  1.0000
  H   H739      1.0  0.62350  0.09077  0.62303  1.0000
  C   C922      1.0  0.89936  0.22179  0.69954  1.0000
  H   H740      1.0  0.67466  0.16782  0.57559  1.0000
  H   H741      1.0  0.70160  0.12017  0.68004  1.0000
  H   H742      1.0  0.70242  0.07736  0.69488  1.0000
  H   H743      1.0  0.68568  0.03775  0.65877  1.0000
  S   S139      1.0  0.70440  0.31068  0.78120  1.0000
  H   H744      1.0  0.66685  0.08373  0.59247  1.0000
  H   H745      1.0  0.65558  0.23174  0.97477  1.0000
  C   C923      1.0  0.64815  0.10079  0.95811  1.0000
  H   H746      1.0  0.97356  0.21485  0.54034  1.0000
  C   C924      1.0  0.52486  0.22303  0.66020  1.0000
  H   H747      1.0  0.62364  0.27966  0.79288  1.0000
  C   C925      1.0  0.89048  0.24025  0.64361  1.0000
  H   H748      1.0  0.63179  0.15837  0.54418  1.0000
  S   S140      1.0  0.49063  0.25240  0.85804  1.0000
  C   C926      1.0  0.93494  0.22942  0.59241  1.0000
  C   C927      1.0  0.76918  0.17782  0.56988  1.0000
  C   C928      1.0  0.74518  0.02074  0.57039  1.0000
  C   C929      1.0  0.75171  0.04029  0.54752  1.0000
  C   C930      1.0  0.77432  0.04590  0.52727  1.0000
  C   C931      1.0  0.79014  0.03138  0.52940  1.0000
  C   C932      1.0  0.78376  0.01213  0.55282  1.0000
  P   P32       1.0  0.82015  0.03894  0.50431  1.0000
  C   C933      1.0  0.67949  0.30031  0.94674  1.0000
  C   C934      1.0  0.76109  0.00654  0.57285  1.0000
  H   H749      1.0  0.73497  0.30544  0.98270  1.0000
  H   H750      1.0  0.55493  0.18769  0.95469  1.0000
  C   C935      1.0  0.53461  0.18239  0.94361  1.0000
  H   H751      1.0  0.91899  0.14154  0.53891  1.0000
  H   H752      1.0  0.91811  0.30233  0.65501  1.0000
  C   C936      1.0  0.95236  0.15520  0.50463  1.0000
  H   H753      1.0  0.68483  0.00127  0.69659  1.0000
  H   H754      1.0  0.66448  0.26088  0.72939  1.0000
  H   H755      1.0  0.73501  0.20816  0.93253  1.0000
  C   C937      1.0  0.65345  0.17739  0.93433  1.0000
  C   C938      1.0  0.85267  0.05234  0.52753  1.0000
  H   H756      1.0  0.56354  0.24538  0.71977  1.0000
  C   C939      1.0  0.85544  0.06872  0.55324  1.0000
  C   C940      1.0  0.51732  0.24364  0.65394  1.0000
  H   H757      1.0  0.73980  0.05176  0.54611  1.0000
  H   H758      1.0  0.77979  0.06215  0.51075  1.0000
  C   C941      1.0  0.80423  0.14644  0.50182  1.0000
  H   H759      1.0  0.77107  0.31683  0.85993  1.0000
  C   C942      1.0  0.88050  0.07938  0.57132  1.0000
  C   C943      1.0  0.60796  0.27492  0.73235  1.0000
  H   H760      1.0  0.85587  0.10040  0.50366  1.0000
  H   H761      1.0  0.50948  0.18091  0.67503  1.0000
  H   H762      1.0  0.91353  0.21952  0.60243  1.0000
  C   C944      1.0  0.58579  0.24940  0.72112  1.0000
  C   C945      1.0  0.69487  0.14417  0.89983  1.0000
  C   C946      1.0  0.60484  0.28217  0.83461  1.0000
  C   C947      1.0  0.50363  0.19687  0.67001  1.0000
  H   H763      1.0  0.83832  0.07345  0.55937  1.0000
  C   C948      1.0  0.53081  0.17362  0.91328  1.0000
  C   C949      1.0  0.91307  0.16630  0.50480  1.0000
  H   H764      1.0  0.73619  0.18254  0.84068  1.0000
  H   H765      1.0  0.69719  0.13301  0.55984  1.0000
  C   C950      1.0  0.92448  0.30901  0.63185  1.0000
  C   C951      1.0  0.63648  0.15269  0.98171  1.0000
  H   H766      1.0  0.78571  0.01936  0.65709  1.0000
  C   C952      1.0  0.64256  0.25773  0.72647  1.0000
  C   C953      1.0  0.70617  0.15056  0.87044  1.0000
  H   H767      1.0  0.88233  0.09184  0.59125  1.0000
  C   C954      1.0  0.74022  0.00515  0.64929  1.0000
  H   H768      1.0  0.58269  0.28642  0.87355  1.0000
  H   H769      1.0  0.49340  0.25931  0.73561  1.0000
  C   C955      1.0  0.74303  0.16002  0.55515  1.0000
  C   C956      1.0  0.92728  0.15311  0.51804  1.0000
  H   H770      1.0  0.89377  0.16488  0.51540  1.0000
  C   C957      1.0  0.94086  0.21509  0.56963  1.0000
  H   H771      1.0  0.74321  0.15474  0.53143  1.0000
  C   C958      1.0  0.73833  0.25781  0.97058  1.0000
  H   H772      1.0  0.54828  0.17255  0.90126  1.0000
  H   H773      1.0  0.78946  0.18643  0.55749  1.0000
  C   C959      1.0  0.90058  0.05771  0.53831  1.0000
  H   H774      1.0  0.94486  0.24805  0.69188  1.0000
  C   C960      1.0  0.51224  0.18411  0.95918  1.0000
  H   H775      1.0  0.62600  0.19199  0.91412  1.0000
  C   C961      1.0  0.72803  0.17742  0.86368  1.0000
  H   H776      1.0  0.90276  0.21434  0.72105  1.0000
  C   C962      1.0  0.59508  0.29762  0.78669  1.0000
  C   C963      1.0  0.63825  0.07270  0.96441  1.0000
  H   H777      1.0  0.53848  0.26264  0.75623  1.0000
  C   C964      1.0  0.76476  0.00159  0.65199  1.0000
  C   C965      1.0  0.72728  0.19166  0.91568  1.0000
  C   C966      1.0  0.62887  0.18096  0.93303  1.0000
  H   H778      1.0  0.79646  0.00156  0.55582  1.0000
  P   P33       1.0  0.59982  0.30153  0.74610  1.0000
  C   C967      1.0  0.73868  0.19790  0.88634  1.0000
  C   C968      1.0  0.65201  0.28177  0.93508  1.0000
  C   C969      1.0  0.68736  0.98691  0.71140  1.0000
  C   C970      1.0  0.50491  0.16715  0.89803  1.0000
  H   H779      1.0  0.75600  0.99129  0.59046  1.0000
  H   H780      1.0  0.53383  0.26396  0.64645  1.0000
  C   C971      1.0  0.67876  0.23929  0.97377  1.0000
  H   H781      1.0  0.54718  0.22735  0.65751  1.0000
  H   H782      1.0  0.75511  0.21895  0.88094  1.0000
  C   C972      1.0  0.97338  0.19909  0.65582  1.0000
  C   C973      1.0  0.93995  0.29874  0.61497  1.0000
  C   C974      1.0  0.50851  0.23914  0.98359  1.0000
  H   H783      1.0  0.49836  0.27197  0.97461  1.0000
  C   C975      1.0  0.51546  0.29465  0.70604  1.0000
  H   H784      1.0  0.65386  0.31644  0.87066  1.0000
  C   C976      1.0  0.56694  0.29818  0.72922  1.0000
  C   C977      1.0  0.94832  0.30805  0.58518  1.0000
  C   C978      1.0  0.54261  0.29809  0.91617  1.0000
  C   C979      1.0  0.56619  0.31448  0.96484  1.0000
  C   C980      1.0  0.96866  0.22648  0.55709  1.0000
  C   C981      1.0  0.71269  0.99633  0.72878  1.0000
  H   H785      1.0  0.57965  0.31363  0.98298  1.0000
  H   H786      1.0  0.64801  0.04302  0.98592  1.0000
  C   C982      1.0  0.74352  0.18573  0.98716  1.0000
  C   C983      1.0  0.69312  0.11309  0.98503  1.0000
  H   H787      1.0  0.51735  0.31654  0.89990  1.0000
  C   C984      1.0  0.54242  0.31548  0.69594  1.0000
  C   C985      1.0  0.57264  0.30204  0.83312  1.0000
  C   C986      1.0  0.57700  0.30595  0.80185  1.0000
  C   C987      1.0  0.56812  0.31726  0.70744  1.0000
  H   H788      1.0  0.55825  0.30807  0.84448  1.0000
  C   C988      1.0  0.53062  0.31590  0.91838  1.0000
  H   H789      1.0  0.56613  0.31537  0.78960  1.0000
  Fe  Fe73      1.0  0.69200  0.47382  0.09064  1.0000
  S   S141      1.0  0.72180  0.49157  0.13112  1.0000
  S   S142      1.0  0.71248  0.47543  0.04459  1.0000
  Fe  Fe74      1.0  0.63824  0.45049  0.13061  1.0000
  S   S143      1.0  0.66377  0.46643  0.17420  1.0000
  S   S144      1.0  0.58949  0.42715  0.12283  1.0000
  Fe  Fe75      1.0  0.69134  0.50619  0.14882  1.0000
  S   S145      1.0  0.70951  0.55203  0.16383  1.0000
  Fe  Fe76      1.0  0.69262  0.45086  0.15335  1.0000
  S   S146      1.0  0.71371  0.43033  0.18027  1.0000
  S   S147      1.0  0.66346  0.49128  0.10626  1.0000
  S   S148      1.0  0.66506  0.43208  0.11214  1.0000
  C   C989      1.0  0.61985  0.64187  0.23365  1.0000
  H   H790      1.0  0.81229  0.60204  0.38653  1.0000
  S   S149      1.0  0.75763  0.61834  0.29003  1.0000
  H   H791      1.0  0.71446  0.35824  0.23637  1.0000
  C   C990      1.0  0.86905  0.64152  0.06519  1.0000
  H   H792      1.0  0.68268  0.59368  0.23283  1.0000
  C   C991      1.0  0.56736  0.39453  0.13976  1.0000
  C   C992      1.0  0.57265  0.38875  0.16926  1.0000
  C   C993      1.0  0.55324  0.36328  0.18277  1.0000
  C   C994      1.0  0.52911  0.34308  0.16657  1.0000
  C   C995      1.0  0.52424  0.34860  0.13683  1.0000
  C   C996      1.0  0.54300  0.37443  0.12374  1.0000
  H   H793      1.0  0.59116  0.40417  0.18196  1.0000
  C   C997      1.0  0.86425  0.62853  0.03680  1.0000
  C   C998      1.0  0.69402  0.39738  0.06490  1.0000
  H   H794      1.0  0.53856  0.37889  0.10118  1.0000
  C   C999      1.0  0.73969  0.36612  0.14585  1.0000
  C   C1000     1.0  0.75944  0.39056  0.16097  1.0000
  C   C1001     1.0  0.75118  0.41008  0.17063  1.0000
  C   C1002     1.0  0.72325  0.40603  0.16455  1.0000
  C   C1003     1.0  0.70339  0.38193  0.14863  1.0000
  C   C1004     1.0  0.71163  0.36197  0.13925  1.0000
  H   H795      1.0  0.84859  0.64597  0.18821  1.0000
  H   H796      1.0  0.76651  0.42830  0.18325  1.0000
  H   H797      1.0  0.68152  0.37826  0.14433  1.0000
  H   H798      1.0  0.69621  0.34327  0.12739  1.0000
  C   C1005     1.0  0.72267  0.57004  0.19922  1.0000
  C   C1006     1.0  0.73540  0.59931  0.20007  1.0000
  C   C1007     1.0  0.74609  0.61447  0.22751  1.0000
  C   C1008     1.0  0.74400  0.60052  0.25465  1.0000
  C   C1009     1.0  0.73098  0.57127  0.25383  1.0000
  C   C1010     1.0  0.72046  0.55613  0.22638  1.0000
  H   H799      1.0  0.73712  0.61038  0.17931  1.0000
  H   H800      1.0  0.75602  0.63692  0.22764  1.0000
  H   H801      1.0  0.72913  0.56018  0.27463  1.0000
  H   H802      1.0  0.71057  0.53368  0.22626  1.0000
  C   C1011     1.0  0.68817  0.39558  0.03362  1.0000
  C   C1012     1.0  0.69864  0.47725  0.00846  1.0000
  C   C1013     1.0  0.80763  0.52723  0.08774  1.0000
  H   H803      1.0  0.66605  0.48690  0.02505  1.0000
  C   C1014     1.0  0.83361  0.53522  0.10387  1.0000
  H   H804      1.0  0.71841  0.61797  0.34025  1.0000
  H   H805      1.0  0.84863  0.54932  0.21758  1.0000
  H   H806      1.0  0.85328  0.55406  0.09810  1.0000
  H   H807      1.0  0.76450  0.46602  0.12377  1.0000
  H   H808      1.0  0.81025  0.48048  0.15240  1.0000
  C   C1015     1.0  0.80961  0.49358  0.13442  1.0000
  H   H809      1.0  0.67330  0.33301  0.99864  1.0000
  H   H810      1.0  0.75545  0.44373  0.00948  1.0000
  C   C1016     1.0  0.59339  0.34985  0.12136  1.0000
  H   H811      1.0  0.82576  0.58533  0.10807  1.0000
  H   H812      1.0  0.88995  0.54468  0.19757  1.0000
  C   C1017     1.0  0.72177  0.41599  0.07604  1.0000
  C   C1018     1.0  0.64581  0.33717  0.03251  1.0000
  C   C1019     1.0  0.61506  0.41658  0.05065  1.0000
  C   C1020     1.0  0.63537  0.40854  0.04159  1.0000
  C   C1021     1.0  0.65719  0.62354  0.35055  1.0000
  H   H813      1.0  0.58026  0.34143  0.25192  1.0000
  C   C1022     1.0  0.67048  0.62822  0.29725  1.0000
  H   H814      1.0  0.76569  0.54605  0.10148  1.0000
  C   C1023     1.0  0.60623  0.35201  0.14978  1.0000
  C   C1024     1.0  0.50214  0.36786  0.04643  1.0000
  C   C1025     1.0  0.67036  0.34603  0.22288  1.0000
  C   C1026     1.0  0.61435  0.53923  0.22595  1.0000
  H   H815      1.0  0.58947  0.33915  0.03135  1.0000
  C   C1027     1.0  0.65163  0.62730  0.32034  1.0000
  C   C1028     1.0  0.61823  0.36157  0.22309  1.0000
  C   C1029     1.0  0.59887  0.36084  0.24546  1.0000
  C   C1030     1.0  0.60313  0.38547  0.25949  1.0000
  C   C1031     1.0  0.62699  0.41092  0.25170  1.0000
  C   C1032     1.0  0.64657  0.41174  0.22982  1.0000
  C   C1033     1.0  0.64204  0.38725  0.21536  1.0000
  C   C1034     1.0  0.81415  0.53192  0.02313  1.0000
  H   H816      1.0  0.78113  0.39406  0.16603  1.0000
  H   H817      1.0  0.60067  0.58805  0.25830  1.0000
  H   H818      1.0  0.86924  0.61701  0.15597  1.0000
  H   H819      1.0  0.62206  0.33697  0.07266  1.0000
  C   C1035     1.0  0.78294  0.50195  0.09471  1.0000
  H   H820      1.0  0.59733  0.36858  0.10950  1.0000
  H   H821      1.0  0.61984  0.37250  0.15923  1.0000
  C   C1036     1.0  0.67604  0.48359  0.00515  1.0000
  C   C1037     1.0  0.71941  0.54791  0.04879  1.0000
  C   C1038     1.0  0.59692  0.36076  0.03699  1.0000
  H   H822      1.0  0.58783  0.38479  0.27636  1.0000
  C   C1039     1.0  0.51708  0.39128  0.02820  1.0000
  H   H823      1.0  0.85468  0.52433  0.13918  1.0000
  C   C1040     1.0  0.69526  0.65050  0.23638  1.0000
  H   H824      1.0  0.63031  0.42998  0.26257  1.0000
  H   H825      1.0  0.66536  0.43131  0.22396  1.0000
  H   H826      1.0  0.65732  0.38827  0.19828  1.0000
  C   C1041     1.0  0.73464  0.54889  0.02246  1.0000
  H   H827      1.0  0.60317  0.51773  0.21829  1.0000
  H   H828      1.0  0.55387  0.35358  0.04843  1.0000
  C   C1042     1.0  0.79562  0.63183  0.13579  1.0000
  H   H829      1.0  0.72609  0.41757  0.10018  1.0000
  C   C1043     1.0  0.57663  0.36887  0.04627  1.0000
  P   P34       1.0  0.65238  0.37101  0.01971  1.0000
  C   C1044     1.0  0.77218  0.54679  0.05291  1.0000
  C   C1045     1.0  0.83246  0.58382  0.05978  1.0000
  C   C1046     1.0  0.57450  0.32368  0.10902  1.0000
  H   H830      1.0  0.55680  0.35921  0.20587  1.0000
  H   H831      1.0  0.67713  0.38455  0.08074  1.0000
  C   C1047     1.0  0.83907  0.60922  0.23729  1.0000
  H   H832      1.0  0.76549  0.44673  0.06466  1.0000
  C   C1048     1.0  0.87658  0.63407  0.27541  1.0000
  C   C1049     1.0  0.50033  0.33824  0.00462  1.0000
  P   P35       1.0  0.80671  0.54729  0.05591  1.0000
  H   H833      1.0  0.84403  0.64202  0.35424  1.0000
  C   C1050     1.0  0.82986  0.62062  0.39671  1.0000
  C   C1051     1.0  0.83418  0.62232  0.42809  1.0000
  C   C1052     1.0  0.78382  0.48538  0.11823  1.0000
  H   H834      1.0  0.77269  0.54978  0.00382  1.0000
  C   C1053     1.0  0.64700  0.32902  0.20354  1.0000
  C   C1054     1.0  0.73536  0.33716  0.04918  1.0000
  H   H835      1.0  0.65793  0.42431  0.03961  1.0000
  C   C1055     1.0  0.73087  0.54717  0.07719  1.0000
  H   H836      1.0  0.52330  0.41179  0.03732  1.0000
  C   C1056     1.0  0.76114  0.54873  0.02449  1.0000
  H   H837      1.0  0.76301  0.49490  0.08177  1.0000
  S   S150      1.0  0.75202  0.34225  0.13554  1.0000
  H   H838      1.0  0.71863  0.32443  0.20192  1.0000
  H   H839      1.0  0.57025  0.40321  0.06044  1.0000
  H   H840      1.0  0.81986  0.60510  0.44233  1.0000
  C   C1057     1.0  0.64462  0.55469  0.22390  1.0000
  C   C1058     1.0  0.62652  0.38054  0.03492  1.0000
  C   C1059     1.0  0.79129  0.50998  0.00724  1.0000
  C   C1060     1.0  0.71044  0.41264  0.01375  1.0000
  C   C1061     1.0  0.83454  0.51840  0.12712  1.0000
  C   C1062     1.0  0.69857  0.32551  0.20284  1.0000
  C   C1063     1.0  0.88509  0.56020  0.18823  1.0000
  H   H841      1.0  0.64265  0.62283  0.36835  1.0000
  H   H842      1.0  0.73344  0.47930  0.23068  1.0000
  C   C1064     1.0  0.90238  0.57768  0.16513  1.0000
  C   C1065     1.0  0.86162  0.56282  0.19942  1.0000
  C   C1066     1.0  0.73682  0.36145  0.03777  1.0000
  H   H843      1.0  0.86101  0.55577  0.02801  1.0000
  C   C1067     1.0  0.49376  0.34136  0.03464  1.0000
  C   C1068     1.0  0.78910  0.58926  0.15890  1.0000
  C   C1069     1.0  0.81390  0.60456  0.17709  1.0000
  H   H844      1.0  0.76037  0.59104  0.12513  1.0000
  P   P36       1.0  0.82615  0.58743  0.20371  1.0000
  C   C1070     1.0  0.79658  0.55336  0.21266  1.0000
  C   C1071     1.0  0.85541  0.58313  0.18774  1.0000
  C   C1072     1.0  0.78117  0.54847  0.23995  1.0000
  C   C1073     1.0  0.75854  0.52182  0.24647  1.0000
  C   C1074     1.0  0.75114  0.49993  0.22585  1.0000
  C   C1075     1.0  0.76643  0.50466  0.19872  1.0000
  C   C1076     1.0  0.78896  0.53124  0.19205  1.0000
  C   C1077     1.0  0.87303  0.60075  0.16475  1.0000
  H   H845      1.0  0.71913  0.54660  0.09760  1.0000
  C   C1078     1.0  0.61310  0.57919  0.24808  1.0000
  C   C1079     1.0  0.73531  0.32108  0.99795  1.0000
  C   C1080     1.0  0.64341  0.59517  0.24497  1.0000
  H   H846      1.0  0.66882  0.36039  0.23865  1.0000
  C   C1081     1.0  0.83410  0.64031  0.27334  1.0000
  H   H847      1.0  0.77603  0.56693  0.16100  1.0000
  H   H848      1.0  0.57520  0.53916  0.24047  1.0000
  C   C1082     1.0  0.82951  0.63367  0.17427  1.0000
  H   H849      1.0  0.78622  0.56512  0.25613  1.0000
  H   H850      1.0  0.74645  0.51823  0.26737  1.0000
  H   H851      1.0  0.69862  0.54751  0.04718  1.0000
  H   H852      1.0  0.76054  0.48766  0.18275  1.0000
  H   H853      1.0  0.80022  0.53459  0.17067  1.0000
  H   H854      1.0  0.80263  0.61733  0.23874  1.0000
  C   C1083     1.0  0.85645  0.64651  0.44132  1.0000
  C   C1084     1.0  0.82323  0.62170  0.24886  1.0000
  C   C1085     1.0  0.84573  0.59985  0.03401  1.0000
  C   C1086     1.0  0.73832  0.43076  0.02492  1.0000
  H   H855      1.0  0.73777  0.37711  0.05342  1.0000
  C   C1087     1.0  0.83692  0.59709  0.08816  1.0000
  H   H856      1.0  0.65695  0.54518  0.21474  1.0000
  C   C1088     1.0  0.58574  0.39679  0.05297  1.0000
  C   C1089     1.0  0.75719  0.54668  0.07928  1.0000
  C   C1090     1.0  0.74398  0.43249  0.05604  1.0000
  C   C1091     1.0  0.65914  0.58239  0.23380  1.0000
  C   C1092     1.0  0.68139  0.62042  0.35780  1.0000
  H   H857      1.0  0.62211  0.43818  0.05631  1.0000
  C   C1093     1.0  0.85520  0.62585  0.09079  1.0000
  C   C1094     1.0  0.59862  0.55139  0.23830  1.0000
  H   H858      1.0  0.92067  0.57573  0.15657  1.0000
  C   C1095     1.0  0.69980  0.62072  0.33482  1.0000
  C   C1096     1.0  0.69427  0.62448  0.30465  1.0000
  C   C1097     1.0  0.73705  0.36539  0.00640  1.0000
  C   C1098     1.0  0.64255  0.64984  0.25484  1.0000
  H   H859      1.0  0.92205  0.34871  0.28785  1.0000
  H   H860      1.0  0.67722  0.62757  0.19445  1.0000
  H   H861      1.0  0.63245  0.62903  0.31503  1.0000
  H   H862      1.0  0.50551  0.33330  0.12431  1.0000
  H   H863      1.0  0.89739  0.63916  0.28559  1.0000
  H   H864      1.0  0.87447  0.64077  0.01682  1.0000
  H   H865      1.0  0.70839  0.62422  0.28699  1.0000
  C   C1099     1.0  0.60028  0.32794  0.16606  1.0000
  C   C1100     1.0  0.89630  0.59789  0.15335  1.0000
  H   H866      1.0  0.49667  0.37016  0.06960  1.0000
  P   P37       1.0  0.61318  0.33003  0.20462  1.0000
  H   H867      1.0  0.68580  0.61754  0.38117  1.0000
  C   C1101     1.0  0.78008  0.60291  0.13835  1.0000
  C   C1102     1.0  0.52371  0.38824  0.99814  1.0000
  H   H868      1.0  0.56350  0.32202  0.08775  1.0000
  H   H869      1.0  0.72559  0.54920  0.00042  1.0000
  C   C1103     1.0  0.86578  0.61537  0.25094  1.0000
  P   P38       1.0  0.66249  0.63091  0.25803  1.0000
  H   H870      1.0  0.87861  0.60624  0.24256  1.0000
  C   C1104     1.0  0.84299  0.53992  0.01508  1.0000
  H   H871      1.0  0.79814  0.63910  0.46824  1.0000
  H   H872      1.0  0.90995  0.61168  0.13572  1.0000
  C   C1105     1.0  0.86084  0.64667  0.28645  1.0000
  H   H873      1.0  0.85823  0.63615  0.11255  1.0000
  C   C1106     1.0  0.82032  0.64722  0.15379  1.0000
  H   H874      1.0  0.84136  0.59036  0.01164  1.0000
  H   H875      1.0  0.73488  0.33399  0.07346  1.0000
  H   H876      1.0  0.61392  0.62423  0.21866  1.0000
  C   C1107     1.0  0.69621  0.34456  0.22212  1.0000
  H   H877      1.0  0.95930  0.34140  0.31497  1.0000
  C   C1108     1.0  0.69591  0.64455  0.20542  1.0000
  C   C1109     1.0  0.65927  0.32360  0.01791  1.0000
  H   H878      1.0  0.73837  0.38430  0.99791  1.0000
  C   C1110     1.0  0.93867  0.32372  0.30849  1.0000
  C   C1111     1.0  0.84780  0.64314  0.37850  1.0000
  H   H879      1.0  0.76896  0.50239  0.01418  1.0000
  H   H880      1.0  0.85860  0.64744  0.46575  1.0000
  H   H881      1.0  0.78820  0.64230  0.12021  1.0000
  C   C1112     1.0  0.91769  0.32781  0.29320  1.0000
  C   C1113     1.0  0.63025  0.32575  0.05931  1.0000
  H   H882      1.0  0.82187  0.65004  0.28198  1.0000
  H   H883      1.0  0.58712  0.65068  0.21520  1.0000
  H   H884      1.0  0.70653  0.41195  0.98968  1.0000
  H   H885      1.0  0.48167  0.32317  0.04863  1.0000
  C   C1114     1.0  0.84877  0.52742  0.99021  1.0000
  Fe  Fe77      1.0  0.71065  0.49960  0.80623  1.0000
  S   S151      1.0  0.66569  0.48667  0.82428  1.0000
  S   S152      1.0  0.74276  0.54036  0.78188  1.0000
  Fe  Fe78      1.0  0.71020  0.44791  0.83511  1.0000
  S   S153      1.0  0.66571  0.43185  0.85501  1.0000
  S   S154      1.0  0.73574  0.42553  0.84611  1.0000
  Fe  Fe79      1.0  0.65414  0.44290  0.81010  1.0000
  S   S155      1.0  0.61341  0.41326  0.78334  1.0000
  Fe  Fe80      1.0  0.68091  0.47640  0.86809  1.0000
  S   S156      1.0  0.66839  0.48747  0.91363  1.0000
  S   S157      1.0  0.69815  0.45636  0.78900  1.0000
  S   S158      1.0  0.72642  0.49196  0.85131  1.0000
  C   C1115     1.0  0.74266  0.38391  0.93624  1.0000
  H   H886      1.0  0.65182  0.42041  0.92666  1.0000
  S   S159      1.0  0.75211  0.62080  0.67125  1.0000
  H   H887      1.0  0.69888  0.54204  0.74076  1.0000
  C   C1116     1.0  0.65304  0.39874  0.96683  1.0000
  H   H888      1.0  0.78981  0.35391  0.96531  1.0000
  C   C1117     1.0  0.72524  0.39270  0.82931  1.0000
  C   C1118     1.0  0.70588  0.38301  0.80476  1.0000
  C   C1119     1.0  0.69925  0.35760  0.79047  1.0000
  C   C1120     1.0  0.71135  0.34138  0.80107  1.0000
  C   C1121     1.0  0.73024  0.35078  0.82605  1.0000
  C   C1122     1.0  0.73738  0.37648  0.83996  1.0000
  H   H889      1.0  0.69663  0.39548  0.79642  1.0000
  C   C1123     1.0  0.59771  0.42874  0.93180  1.0000
  H   H890      1.0  0.74027  0.33876  0.83371  1.0000
  H   H891      1.0  0.75260  0.38396  0.85877  1.0000
  C   C1124     1.0  0.58264  0.38482  0.79976  1.0000
  C   C1125     1.0  0.55887  0.36757  0.78106  1.0000
  C   C1126     1.0  0.53283  0.34664  0.79360  1.0000
  C   C1127     1.0  0.53033  0.34267  0.82501  1.0000
  C   C1128     1.0  0.55472  0.35880  0.84348  1.0000
  C   C1129     1.0  0.58079  0.37974  0.83096  1.0000
  H   H892      1.0  0.56017  0.37121  0.75688  1.0000
  H   H893      1.0  0.71037  0.42450  0.92787  1.0000
  H   H894      1.0  0.55322  0.35575  0.86770  1.0000
  H   H895      1.0  0.59899  0.39267  0.84560  1.0000
  C   C1130     1.0  0.68007  0.48279  0.94981  1.0000
  H   H896      1.0  0.62497  0.33373  0.91460  1.0000
  C   C1131     1.0  0.70211  0.47568  0.95313  1.0000
  C   C1132     1.0  0.94105  0.32716  0.57241  1.0000
  H   H897      1.0  0.71233  0.47274  0.93319  1.0000
  C   C1133     1.0  0.74462  0.56275  0.75137  1.0000
  C   C1134     1.0  0.77188  0.58520  0.74340  1.0000
  C   C1135     1.0  0.77465  0.60339  0.71942  1.0000
  C   C1136     1.0  0.75013  0.59937  0.70280  1.0000
  C   C1137     1.0  0.72285  0.57703  0.71089  1.0000
  C   C1138     1.0  0.72006  0.55891  0.73492  1.0000
  H   H898      1.0  0.79109  0.58854  0.75585  1.0000
  H   H899      1.0  0.79581  0.62034  0.71362  1.0000
  H   H900      1.0  0.70366  0.57361  0.69833  1.0000
  H   H901      1.0  0.51416  0.33466  0.77912  1.0000
  H   H902      1.0  0.58879  0.33386  0.69976  1.0000
  H   H903      1.0  0.83026  0.49692  0.95421  1.0000
  C   C1139     1.0  0.66700  0.48659  0.97593  1.0000
  H   H904      1.0  0.56601  0.42336  0.86293  1.0000
  C   C1140     1.0  0.56842  0.41857  0.88625  1.0000
  C   C1141     1.0  0.77750  0.43050  0.91991  1.0000
  C   C1142     1.0  0.63320  0.35192  0.92920  1.0000
  H   H905      1.0  0.61125  0.45368  0.89133  1.0000
  C   C1143     1.0  0.69777  0.32498  0.93135  1.0000
  H   H906      1.0  0.87105  0.53388  0.98384  1.0000
  H   H907      1.0  0.66022  0.41706  0.98110  1.0000
  P   P39       1.0  0.73384  0.34871  0.94572  1.0000
  H   H908      1.0  0.76018  0.45843  0.91214  1.0000
  C   C1144     1.0  0.64811  0.40071  0.93598  1.0000
  C   C1145     1.0  0.75562  0.43804  0.91999  1.0000
  C   C1146     1.0  0.74470  0.44961  0.60849  1.0000
  C   C1147     1.0  0.76673  0.44243  0.61145  1.0000
  C   C1148     1.0  0.78236  0.44791  0.63865  1.0000
  C   C1149     1.0  0.77575  0.46028  0.66303  1.0000
  C   C1150     1.0  0.75293  0.46663  0.66059  1.0000
  C   C1151     1.0  0.73804  0.46197  0.63284  1.0000
  P   P40       1.0  0.74561  0.48446  0.69099  1.0000
  C   C1152     1.0  0.70726  0.47093  0.69790  1.0000
  C   C1153     1.0  0.75971  0.48050  0.72694  1.0000
  C   C1154     1.0  0.75561  0.45428  0.73569  1.0000
  C   C1155     1.0  0.76369  0.45043  0.76479  1.0000
  C   C1156     1.0  0.77569  0.47265  0.78541  1.0000
  C   C1157     1.0  0.77967  0.49873  0.77694  1.0000
  C   C1158     1.0  0.77170  0.50265  0.74785  1.0000
  C   C1159     1.0  0.69849  0.48539  0.71788  1.0000
  C   C1160     1.0  0.66922  0.47442  0.72572  1.0000
  C   C1161     1.0  0.64847  0.44878  0.71380  1.0000
  C   C1162     1.0  0.65696  0.43423  0.69378  1.0000
  C   C1163     1.0  0.68628  0.44519  0.68588  1.0000
  C   C1164     1.0  0.76206  0.52032  0.67941  1.0000
  C   C1165     1.0  0.79227  0.53759  0.68210  1.0000
  C   C1166     1.0  0.80524  0.56507  0.67189  1.0000
  C   C1167     1.0  0.78822  0.57525  0.65834  1.0000
  C   C1168     1.0  0.75826  0.55798  0.65500  1.0000
  C   C1169     1.0  0.74515  0.53065  0.66555  1.0000
  H   H909      1.0  0.73305  0.44599  0.58717  1.0000
  H   H910      1.0  0.77204  0.43306  0.59251  1.0000
  H   H911      1.0  0.79990  0.44294  0.64074  1.0000
  H   H912      1.0  0.78881  0.46525  0.68351  1.0000
  H   H913      1.0  0.72151  0.46820  0.62994  1.0000
  H   H914      1.0  0.74567  0.43668  0.72030  1.0000
  H   H915      1.0  0.75989  0.43004  0.77182  1.0000
  H   H916      1.0  0.78115  0.46943  0.80824  1.0000
  H   H917      1.0  0.78791  0.51574  0.79326  1.0000
  H   H918      1.0  0.77389  0.52274  0.74224  1.0000
  H   H919      1.0  0.71446  0.50482  0.72814  1.0000
  H   H920      1.0  0.66279  0.48544  0.74180  1.0000
  H   H921      1.0  0.62593  0.43993  0.72072  1.0000
  H   H922      1.0  0.64087  0.41406  0.68517  1.0000
  H   H923      1.0  0.69248  0.43302  0.67139  1.0000
  H   H924      1.0  0.80576  0.52989  0.69226  1.0000
  H   H925      1.0  0.82844  0.57861  0.67464  1.0000
  H   H926      1.0  0.79806  0.59670  0.65093  1.0000
  H   H927      1.0  0.74510  0.56616  0.64494  1.0000
  H   H928      1.0  0.72187  0.51776  0.66288  1.0000
  C   C1170     1.0  0.67182  0.36715  0.70936  1.0000
  C   C1171     1.0  0.67564  0.38933  0.72801  1.0000
  C   C1172     1.0  0.65574  0.38509  0.75097  1.0000
  C   C1173     1.0  0.63279  0.35850  0.75644  1.0000
  H   H929      1.0  0.82527  0.34367  0.93960  1.0000
  C   C1174     1.0  0.48692  0.34536  0.92907  1.0000
  C   C1175     1.0  0.63820  0.34985  0.96005  1.0000
  C   C1176     1.0  0.59407  0.43550  0.90217  1.0000
  C   C1177     1.0  0.75481  0.33052  0.89740  1.0000
  C   C1178     1.0  0.63822  0.37731  0.91716  1.0000
  S   S160      1.0  0.49570  0.32256  0.84187  1.0000
  C   C1179     1.0  0.54626  0.39500  0.90001  1.0000
  C   C1180     1.0  0.72100  0.39190  0.93704  1.0000
  H   H930      1.0  0.61777  0.44179  0.94394  1.0000
  C   C1181     1.0  0.77534  0.32540  0.88274  1.0000
  C   C1182     1.0  0.54955  0.38829  0.92995  1.0000
  C   C1183     1.0  0.82581  0.50650  0.97359  1.0000
  C   C1184     1.0  0.72742  0.41879  0.92867  1.0000
  H   H931      1.0  0.52706  0.38160  0.88673  1.0000
  P   P41       1.0  0.52185  0.35687  0.94700  1.0000
  H   H932      1.0  0.90521  0.33584  0.63215  1.0000
  C   C1185     1.0  0.91722  0.32807  0.61901  1.0000
  H   H933      1.0  0.68482  0.35052  0.77107  1.0000
  C   C1186     1.0  0.80068  0.33007  0.89797  1.0000
  H   H934      1.0  0.79915  0.44522  0.91237  1.0000
  H   H935      1.0  0.68715  0.37049  0.69136  1.0000
  H   H936      1.0  0.69395  0.40984  0.72489  1.0000
  H   H937      1.0  0.65839  0.40235  0.76505  1.0000
  H   H938      1.0  0.61789  0.35584  0.77466  1.0000
  H   H939      1.0  0.69896  0.37716  0.94330  1.0000
  C   C1187     1.0  0.75966  0.34076  0.92730  1.0000
  H   H940      1.0  0.63419  0.37881  0.89327  1.0000
  C   C1188     1.0  0.64849  0.34053  0.71433  1.0000
  H   H941      1.0  0.94756  0.33426  0.54941  1.0000
  C   C1189     1.0  0.78541  0.34581  0.94232  1.0000
  H   H942      1.0  0.64992  0.49211  0.97354  1.0000
  C   C1190     1.0  0.77112  0.40358  0.92815  1.0000
  H   H943      1.0  0.78826  0.39803  0.92734  1.0000
  H   H944      1.0  0.70186  0.34922  0.89118  1.0000
  C   C1191     1.0  0.62950  0.33584  0.73874  1.0000
  C   C1192     1.0  0.53592  0.33277  0.94421  1.0000
  H   H945      1.0  0.57922  0.39976  0.96827  1.0000
  C   C1193     1.0  0.57571  0.40504  0.94557  1.0000
  C   C1194     1.0  0.92548  0.33714  0.58929  1.0000
  C   C1195     1.0  0.51587  0.36170  0.98634  1.0000
  C   C1196     1.0  0.80574  0.34030  0.92774  1.0000
  H   H946      1.0  0.73505  0.32603  0.88543  1.0000
  C   C1197     1.0  0.55430  0.33235  0.96711  1.0000
  C   C1198     1.0  0.64845  0.37336  0.97914  1.0000
  C   C1199     1.0  0.68803  0.33068  0.90396  1.0000
  C   C1200     1.0  0.79710  0.49772  0.98219  1.0000
  H   H947      1.0  0.77931  0.48136  0.96947  1.0000
  H   H948      1.0  0.63325  0.32972  0.96878  1.0000
  H   H949      1.0  0.64570  0.32363  0.69952  1.0000
  H   H950      1.0  0.72866  0.46788  0.98456  1.0000
  C   C1201     1.0  0.71142  0.47307  0.98232  1.0000
  C   C1202     1.0  0.73565  0.34492  0.98626  1.0000
  H   H951      1.0  0.53449  0.40656  0.98413  1.0000
  H   H952      1.0  0.55940  0.34587  0.98667  1.0000
  H   H953      1.0  0.81608  0.32524  0.88683  1.0000
  H   H954      1.0  0.72813  0.64381  0.71501  1.0000
  H   H955      1.0  0.91987  0.35194  0.57936  1.0000
  H   H956      1.0  0.54347  0.33059  0.67962  1.0000
  H   H957      1.0  0.49226  0.38690  0.92560  1.0000
  S   S161      1.0  0.80996  0.70085  0.27621  1.0000
  Fe  Fe81      1.0  0.79409  0.70187  0.36256  1.0000
  S   S162      1.0  0.82476  0.74025  0.33709  1.0000
  C   C1203     1.0  0.71214  0.79559  0.38481  1.0000
  Fe  Fe82      1.0  0.79011  0.72409  0.30087  1.0000
  S   S163      1.0  0.77816  0.75470  0.27856  1.0000
  Fe  Fe83      1.0  0.84171  0.71383  0.31551  1.0000
  S   S164      1.0  0.88808  0.72018  0.31471  1.0000
  C   C1204     1.0  0.59211  0.73704  0.43737  1.0000
  Fe  Fe84      1.0  0.62417  0.83330  0.27929  1.0000
  S   S165      1.0  0.67021  0.84195  0.27013  1.0000
  S   S166      1.0  0.59327  0.83108  0.24070  1.0000
  Fe  Fe85      1.0  0.63470  0.83597  0.34858  1.0000
  S   S167      1.0  0.68081  0.84458  0.34373  1.0000
  S   S168      1.0  0.61180  0.82993  0.39380  1.0000
  Fe  Fe86      1.0  0.68373  0.87456  0.30739  1.0000
  S   S169      1.0  0.72463  0.91715  0.30368  1.0000
  Fe  Fe87      1.0  0.66343  0.81147  0.30742  1.0000
  S   S170      1.0  0.66991  0.77310  0.31014  1.0000
  S   S171      1.0  0.63846  0.86784  0.31440  1.0000
  S   S172      1.0  0.61665  0.80114  0.31433  1.0000
  H   H958      1.0  0.76348  0.86380  0.38113  1.0000
  C   C1205     1.0  0.51665  0.76000  0.18720  1.0000
  C   C1206     1.0  0.52814  0.75403  0.21332  1.0000
  C   C1207     1.0  0.55167  0.77530  0.22976  1.0000
  C   C1208     1.0  0.56389  0.80306  0.22055  1.0000
  C   C1209     1.0  0.55243  0.80900  0.19440  1.0000
  C   C1210     1.0  0.52915  0.78768  0.17775  1.0000
  H   H959      1.0  0.51872  0.73275  0.22089  1.0000
  H   H960      1.0  0.56013  0.77026  0.24973  1.0000
  H   H961      1.0  0.56172  0.83031  0.18687  1.0000
  H   H962      1.0  0.52086  0.79266  0.15761  1.0000
  C   C1211     1.0  0.72793  0.95000  0.31405  1.0000
  C   C1212     1.0  0.70458  0.95258  0.32574  1.0000
  C   C1213     1.0  0.80061  0.71055  0.47183  1.0000
  C   C1214     1.0  0.66059  0.71270  0.39539  1.0000
  H   H963      1.0  0.64792  0.67739  0.36553  1.0000
  H   H964      1.0  0.68981  0.98082  0.34189  1.0000
  H   H965      1.0  0.68370  0.93418  0.32871  1.0000
  H   H966      1.0  0.64295  0.70804  0.28336  1.0000
  C   C1215     1.0  0.97504  0.77492  0.31520  1.0000
  H   H967      1.0  0.72873  0.75203  0.42435  1.0000
  C   C1216     1.0  0.74866  0.76025  0.28904  1.0000
  C   C1217     1.0  0.72568  0.74130  0.30692  1.0000
  C   C1218     1.0  0.70194  0.74575  0.31330  1.0000
  C   C1219     1.0  0.70105  0.76937  0.30240  1.0000
  C   C1220     1.0  0.72421  0.78854  0.28494  1.0000
  C   C1221     1.0  0.74773  0.78384  0.27809  1.0000
  H   H968      1.0  0.72603  0.72306  0.31548  1.0000
  H   H969      1.0  0.68414  0.73082  0.32682  1.0000
  H   H970      1.0  0.72377  0.80672  0.27624  1.0000
  H   H971      1.0  0.76533  0.79857  0.26415  1.0000
  H   H972      1.0  0.59812  0.88222  0.47061  1.0000
  C   C1222     1.0  0.94778  0.75059  0.31677  1.0000
  C   C1223     1.0  0.92170  0.75170  0.31350  1.0000
  C   C1224     1.0  0.92316  0.77753  0.30890  1.0000
  C   C1225     1.0  0.95045  0.80187  0.30724  1.0000
  H   H973      1.0  0.94690  0.73072  0.32026  1.0000
  H   H974      1.0  0.90331  0.77870  0.30622  1.0000
  H   H975      1.0  0.95134  0.82170  0.30330  1.0000
  P   P42       1.0  0.70084  0.95070  0.44948  1.0000
  C   C1226     1.0  0.63169  0.83430  0.42778  1.0000
  C   C1227     1.0  0.66132  0.84243  0.42707  1.0000
  H   H976      1.0  0.59484  0.82360  0.45682  1.0000
  H   H977      1.0  0.67234  0.84592  0.40569  1.0000
  H   H978      1.0  0.76645  0.92906  0.36129  1.0000
  C   C1228     1.0  0.79584  0.69674  0.44377  1.0000
  H   H979      1.0  0.71864  0.91344  0.47974  1.0000
  S   S173      1.0  0.75838  0.68700  0.32730  1.0000
  C   C1229     1.0  0.70617  0.79356  0.41603  1.0000
  C   C1230     1.0  0.74781  0.84418  0.39096  1.0000
  C   C1231     1.0  0.74241  0.84228  0.42213  1.0000
  C   C1232     1.0  0.72170  0.81707  0.43469  1.0000
  C   C1233     1.0  0.64303  0.75636  0.42338  1.0000
  C   C1234     1.0  0.58758  0.75054  0.41291  1.0000
  H   H980      1.0  0.60692  0.77703  0.37459  1.0000
  H   H981      1.0  0.88454  0.77874  0.46226  1.0000
  C   C1235     1.0  0.95984  0.71721  0.45700  1.0000
  C   C1236     1.0  0.71090  0.73563  0.41198  1.0000
  H   H982      1.0  0.56648  0.74911  0.40928  1.0000
  H   H983      1.0  0.83615  0.78370  0.46391  1.0000
  C   C1237     1.0  0.63770  0.94144  0.25109  1.0000
  C   C1238     1.0  0.69410  0.83186  0.17899  1.0000
  C   C1239     1.0  0.68206  0.84871  0.18726  1.0000
  C   C1240     1.0  0.65307  0.83656  0.19646  1.0000
  C   C1241     1.0  0.63631  0.80760  0.19823  1.0000
  C   C1242     1.0  0.64834  0.79056  0.19045  1.0000
  C   C1243     1.0  0.67717  0.80287  0.18003  1.0000
  P   P43       1.0  0.62537  0.75335  0.18891  1.0000
  C   C1244     1.0  0.64713  0.73613  0.19243  1.0000
  C   C1245     1.0  0.60149  0.74112  0.22123  1.0000
  C   C1246     1.0  0.57269  0.71944  0.21804  1.0000
  C   C1247     1.0  0.55506  0.70854  0.24355  1.0000
  C   C1248     1.0  0.56635  0.71842  0.27250  1.0000
  C   C1249     1.0  0.59524  0.73924  0.27591  1.0000
  C   C1250     1.0  0.61263  0.75094  0.25040  1.0000
  C   C1251     1.0  0.63982  0.71141  0.17642  1.0000
  C   C1252     1.0  0.65651  0.69800  0.18004  1.0000
  C   C1253     1.0  0.68007  0.70875  0.20027  1.0000
  C   C1254     1.0  0.68682  0.73275  0.21712  1.0000
  C   C1255     1.0  0.67032  0.74629  0.21341  1.0000
  C   C1256     1.0  0.60514  0.74729  0.15388  1.0000
  C   C1257     1.0  0.61534  0.74180  0.12666  1.0000
  C   C1258     1.0  0.59977  0.73793  0.09958  1.0000
  C   C1259     1.0  0.57430  0.74010  0.09940  1.0000
  C   C1260     1.0  0.56467  0.74666  0.12617  1.0000
  C   C1261     1.0  0.58028  0.75071  0.15315  1.0000
  H   H984      1.0  0.71649  0.84128  0.17151  1.0000
  H   H985      1.0  0.69511  0.87116  0.18650  1.0000
  H   H986      1.0  0.64360  0.84958  0.20262  1.0000
  H   H987      1.0  0.61387  0.79851  0.20535  1.0000
  H   H988      1.0  0.68659  0.79020  0.17248  1.0000
  H   H989      1.0  0.56374  0.71070  0.19598  1.0000
  C   C1262     1.0  0.68788  0.97462  0.23885  1.0000
  H   H990      1.0  0.55280  0.70988  0.29231  1.0000
  H   H991      1.0  0.60431  0.74625  0.29840  1.0000
  H   H992      1.0  0.63493  0.76722  0.25357  1.0000
  H   H993      1.0  0.62106  0.70225  0.16148  1.0000
  H   H994      1.0  0.64753  0.91780  0.48520  1.0000
  H   H995      1.0  0.69291  0.69833  0.20326  1.0000
  H   H996      1.0  0.70471  0.74077  0.23333  1.0000
  H   H997      1.0  0.67564  0.76461  0.22715  1.0000
  H   H998      1.0  0.63549  0.74095  0.12618  1.0000
  H   H999      1.0  0.60757  0.73353  0.07863  1.0000
  H   H1000     1.0  0.56220  0.73713  0.07846  1.0000
  H   H1001     1.0  0.54516  0.74880  0.12605  1.0000
  H   H1002     1.0  0.57291  0.75665  0.17340  1.0000
  S   S174      1.0  0.78844  0.71148  0.41160  1.0000
  C   C1263     1.0  0.68341  0.73399  0.41208  1.0000
  H   H1003     1.0  0.86948  0.66160  0.30499  1.0000
  H   H1004     1.0  0.80151  0.73056  0.47284  1.0000
  C   C1264     1.0  0.68180  0.75956  0.47216  1.0000
  H   H1005     1.0  0.93010  0.77593  0.46324  1.0000
  H   H1006     1.0  0.83214  0.66971  0.15218  1.0000
  H   H1007     1.0  0.97827  0.69338  0.38105  1.0000
  C   C1265     1.0  0.66327  0.84236  0.48235  1.0000
  H   H1008     1.0  0.77188  0.93837  0.47665  1.0000
  C   C1266     1.0  0.75489  0.97425  0.31039  1.0000
  C   C1267     1.0  0.82288  0.78816  0.44859  1.0000
  C   C1268     1.0  0.90033  0.72886  0.41998  1.0000
  C   C1269     1.0  0.97299  0.69967  0.40243  1.0000
  C   C1270     1.0  0.64565  0.92095  0.25629  1.0000
  H   H1009     1.0  0.94591  0.75143  0.40724  1.0000
  H   H1010     1.0  0.69705  0.68103  0.36542  1.0000
  H   H1011     1.0  0.60142  0.69232  0.24770  1.0000
  C   C1271     1.0  0.67470  0.92734  0.25340  1.0000
  P   P44       1.0  0.90249  0.70140  0.44007  1.0000
  H   H1012     1.0  0.50734  0.83044  0.20423  1.0000
  C   C1272     1.0  0.75543  0.93333  0.37965  1.0000
  C   C1273     1.0  0.87475  0.66927  0.42317  1.0000
  H   H1013     1.0  0.62266  0.89222  0.37685  1.0000
  H   H1014     1.0  0.69453  0.72743  0.47244  1.0000
  C   C1274     1.0  0.79964  0.79147  0.45949  1.0000
  C   C1275     1.0  0.66542  0.69348  0.37880  1.0000
  C   C1276     1.0  0.63811  0.76942  0.39849  1.0000
  C   C1277     1.0  0.78191  0.79578  0.43870  1.0000
  C   C1278     1.0  0.97654  0.80075  0.31035  1.0000
  C   C1279     1.0  0.78873  0.95915  0.47112  1.0000
  C   C1280     1.0  0.60705  0.88563  0.42275  1.0000
  C   C1281     1.0  0.80639  0.96318  0.44595  1.0000
  H   H1015     1.0  0.62933  0.90012  0.26265  1.0000
  C   C1282     1.0  0.69581  0.95408  0.24490  1.0000
  C   C1283     1.0  0.93815  0.70466  0.43454  1.0000
  C   C1284     1.0  0.71930  0.67355  0.24945  1.0000
  H   H1016     1.0  0.76446  0.69521  0.18856  1.0000
  H   H1017     1.0  0.67241  0.92789  0.39070  1.0000
  H   H1018     1.0  0.72652  0.89005  0.38882  1.0000
  H   H1019     1.0  0.66945  0.68137  0.28793  1.0000
  C   C1285     1.0  0.74736  0.96631  0.40920  1.0000
  H   H1020     1.0  0.89260  0.78384  0.37144  1.0000
  H   H1021     1.0  0.92917  0.68726  0.38900  1.0000
  C   C1286     1.0  0.62805  0.89859  0.40037  1.0000
  H   H1022     1.0  0.88294  0.68502  0.37709  1.0000
  H   H1023     1.0  0.57441  0.72487  0.45269  1.0000
  H   H1024     1.0  0.68095  0.91158  0.25805  1.0000
  H   H1025     1.0  0.75493  0.73889  0.46029  1.0000
  C   C1287     1.0  0.79899  0.65916  0.46925  1.0000
  C   C1288     1.0  0.72411  0.94429  0.42423  1.0000
  C   C1289     1.0  0.94507  0.69616  0.40708  1.0000
  H   H1026     1.0  0.66587  0.97667  0.18193  1.0000
  C   C1290     1.0  0.92969  0.79369  0.47349  1.0000
  H   H1027     1.0  0.66133  0.97999  0.12683  1.0000
  S   S175      1.0  0.81276  0.67621  0.34317  1.0000
  H   H1028     1.0  0.75386  0.86045  0.43657  1.0000
  H   H1029     1.0  0.76272  0.70717  0.24236  1.0000
  H   H1030     1.0  0.94052  0.78594  0.37656  1.0000
  C   C1291     1.0  0.90387  0.79522  0.47295  1.0000
  C   C1292     1.0  0.76283  0.96079  0.38691  1.0000
  C   C1293     1.0  0.82857  0.78967  0.41747  1.0000
  C   C1294     1.0  0.63352  0.83391  0.48331  1.0000
  C   C1295     1.0  0.89568  0.70201  0.48024  1.0000
  H   H1031     1.0  0.77979  0.97778  0.37436  1.0000
  H   H1032     1.0  0.84640  0.78697  0.40913  1.0000
  C   C1296     1.0  0.61965  0.73972  0.44247  1.0000
  C   C1297     1.0  0.81076  0.79384  0.39695  1.0000
  C   C1298     1.0  0.65629  0.91867  0.40841  1.0000
  P   P45       1.0  0.67882  0.76079  0.43132  1.0000
  H   H1033     1.0  0.71817  0.95848  0.24338  1.0000
  C   C1299     1.0  0.67701  0.84663  0.45417  1.0000
  H   H1034     1.0  0.71776  0.81626  0.45883  1.0000
  H   H1035     1.0  0.73655  0.82220  0.34805  1.0000
  H   H1036     1.0  0.58554  0.86922  0.41650  1.0000
  C   C1300     1.0  0.71730  0.91681  0.41727  1.0000
  H   H1037     1.0  0.65096  0.67904  0.16749  1.0000
  H   H1038     1.0  0.77341  0.79976  0.39157  1.0000
  H   H1039     1.0  0.72465  0.68933  0.47172  1.0000
  C   C1301     1.0  0.61422  0.89286  0.45323  1.0000
  C   C1302     1.0  0.61045  0.76638  0.39333  1.0000
  C   C1303     1.0  0.73271  0.82080  0.37232  1.0000
  H   H1040     1.0  0.53265  0.69235  0.24084  1.0000
  C   C1304     1.0  0.78746  0.79695  0.40757  1.0000
  C   C1305     1.0  0.64243  0.91304  0.46139  1.0000
  H   H1041     1.0  0.70043  0.77778  0.36990  1.0000
  H   H1042     1.0  0.63928  0.71120  0.39457  1.0000
  H   H1043     1.0  0.84940  0.74627  0.39715  1.0000
  C   C1306     1.0  0.65870  0.96818  0.24245  1.0000
  C   C1307     1.0  0.86998  0.66745  0.39162  1.0000
  C   C1308     1.0  0.61779  0.82995  0.45603  1.0000
  H   H1044     1.0  0.71891  0.67936  0.27290  1.0000
  C   C1309     1.0  0.74505  0.68285  0.20171  1.0000
  C   C1310     1.0  0.89488  0.76892  0.38557  1.0000
  C   C1311     1.0  0.87058  0.74779  0.39984  1.0000
  C   C1312     1.0  0.73286  0.91135  0.39505  1.0000
  H   H1045     1.0  0.70005  0.85354  0.45332  1.0000
  C   C1313     1.0  0.65109  0.67404  0.27244  1.0000
  H   H1046     1.0  0.69898  0.89958  0.42796  1.0000
  H   H1047     1.0  0.88310  0.66382  0.06724  1.0000
  C   C1314     1.0  0.79568  0.67122  0.44242  1.0000
  H   H1048     1.0  0.68027  0.97463  0.40208  1.0000
  Fe  Fe88      1.0  0.78007  0.66448  0.30492  1.0000
  H   H1049     1.0  0.65544  0.78228  0.38318  1.0000
  H   H1050     1.0  0.62272  0.72916  0.46164  1.0000
  C   C1315     1.0  0.92196  0.77016  0.38858  1.0000
  C   C1316     1.0  0.87321  0.72771  0.41668  1.0000
  H   H1051     1.0  0.85391  0.71088  0.42661  1.0000
  H   H1052     1.0  0.61519  0.93651  0.25363  1.0000
  C   C1317     1.0  0.74413  0.68950  0.23217  1.0000
  C   C1318     1.0  0.69301  0.69547  0.37870  1.0000
  H   H1053     1.0  0.73717  0.71813  0.39520  1.0000
  H   H1054     1.0  0.81474  0.79420  0.37276  1.0000
  H   H1055     1.0  0.76332  0.79753  0.44645  1.0000
  C   C1319     1.0  0.66375  0.92608  0.43903  1.0000
  C   C1320     1.0  0.70813  0.97910  0.33322  1.0000
  C   C1321     1.0  0.71570  0.71646  0.39542  1.0000
  H   H1056     1.0  0.95562  0.72504  0.47790  1.0000
  C   C1322     1.0  0.92480  0.75029  0.40580  1.0000
  H   H1057     1.0  0.77316  0.97255  0.30153  1.0000
  C   C1323     1.0  0.63618  0.68924  0.26991  1.0000
  H   H1058     1.0  0.80301  0.94559  0.43190  1.0000
  H   H1059     1.0  0.87739  0.72989  0.47714  1.0000
  H   H1060     1.0  0.49913  0.83179  0.14894  1.0000
  C   C1324     1.0  0.75185  0.73249  0.48373  1.0000
  C   C1325     1.0  0.61288  0.68052  0.24962  1.0000
  H   H1061     1.0  0.80099  0.84236  0.47802  1.0000
  C   C1326     1.0  0.70730  0.98570  0.44258  1.0000
  H   H1062     1.0  0.79225  0.66044  0.42092  1.0000
  C   C1327     1.0  0.70653  0.94532  0.48892  1.0000
  C   C1328     1.0  0.48149  0.81768  0.16332  1.0000
  C   C1329     1.0  0.79256  0.98185  0.48897  1.0000
  C   C1330     1.0  0.72089  0.66043  0.18829  1.0000
  H   H1063     1.0  0.66765  0.79013  0.48055  1.0000
  C   C1331     1.0  0.95491  0.81499  0.48713  1.0000
  C   C1332     1.0  0.90309  0.81809  0.48605  1.0000
  S   S176      1.0  0.48719  0.73199  0.16722  1.0000
  H   H1064     1.0  0.88317  0.81940  0.48566  1.0000
  C   C1333     1.0  0.68934  0.74091  0.48594  1.0000
  C   C1334     1.0  0.48603  0.81704  0.19448  1.0000
  H   H1065     1.0  0.72152  0.65530  0.16463  1.0000
  C   C1335     1.0  0.60480  0.65697  0.23139  1.0000
  H   H1066     1.0  0.65212  0.98375  0.23818  1.0000
  Fe  Fe89      1.0  0.80722  0.67425  0.57796  1.0000
  S   S177      1.0  0.83723  0.71893  0.58993  1.0000
  C   C1336     1.0  0.79761  0.80855  0.70377  1.0000
  S   S178      1.0  0.81528  0.70257  0.66057  1.0000
  Fe  Fe90      1.0  0.80038  0.71590  0.61871  1.0000
  S   S179      1.0  0.79591  0.75510  0.61406  1.0000
  Fe  Fe91      1.0  0.85000  0.70268  0.63029  1.0000
  S   S180      1.0  0.89685  0.71728  0.64561  1.0000
  C   C1337     1.0  0.95393  0.83790  0.50024  1.0000
  Fe  Fe92      1.0  0.69614  0.87584  0.62382  1.0000
  S   S181      1.0  0.65860  0.86910  0.59393  1.0000
  S   S182      1.0  0.73310  0.91822  0.63931  1.0000
  Fe  Fe93      1.0  0.68108  0.81384  0.61922  1.0000
  S   S183      1.0  0.64227  0.80329  0.58937  1.0000
  S   S184      1.0  0.68793  0.77686  0.63061  1.0000
  Fe  Fe94      1.0  0.67115  0.84283  0.56476  1.0000
  S   S185      1.0  0.68471  0.84791  0.51522  1.0000
  Fe  Fe95      1.0  0.63266  0.82987  0.62171  1.0000
  S   S186      1.0  0.58559  0.81548  0.63673  1.0000
  S   S187      1.0  0.71042  0.85189  0.59310  1.0000
  S   S188      1.0  0.66978  0.83814  0.65311  1.0000
  C   C1338     1.0  0.83593  0.79057  0.77306  1.0000
  C   C1339     1.0  0.56894  0.80493  0.67317  1.0000
  C   C1340     1.0  0.58469  0.80586  0.69925  1.0000
  C   C1341     1.0  0.57048  0.79731  0.72754  1.0000
  C   C1342     1.0  0.54032  0.78761  0.73026  1.0000
  C   C1343     1.0  0.52460  0.78671  0.70419  1.0000
  C   C1344     1.0  0.53885  0.79540  0.67595  1.0000
  H   H1067     1.0  0.60778  0.81304  0.69757  1.0000
  H   H1068     1.0  0.58291  0.79811  0.74746  1.0000
  H   H1069     1.0  0.52640  0.79459  0.65602  1.0000
  C   C1345     1.0  0.87714  0.71704  0.52272  1.0000
  C   C1346     1.0  0.76630  0.75170  0.50729  1.0000
  C   C1347     1.0  0.88328  0.70067  0.54237  1.0000
  H   H1070     1.0  0.69150  0.97304  0.50674  1.0000
  C   C1348     1.0  0.74286  0.81896  0.54120  1.0000
  C   C1349     1.0  0.75454  0.80178  0.53303  1.0000
  H   H1071     1.0  0.83193  0.84060  0.53003  1.0000
  H   H1072     1.0  0.68179  0.75383  0.56028  1.0000
  C   C1350     1.0  0.92959  0.74658  0.63350  1.0000
  C   C1351     1.0  0.95626  0.75092  0.64573  1.0000
  H   H1073     1.0  0.52398  0.70045  0.86972  1.0000
  C   C1352     1.0  0.95622  0.78931  0.60475  1.0000
  C   C1353     1.0  0.92973  0.76578  0.61266  1.0000
  H   H1074     1.0  0.95641  0.73621  0.66184  1.0000
  H   H1075     1.0  0.90943  0.76269  0.60297  1.0000
  C   C1354     1.0  0.76520  0.76029  0.61747  1.0000
  C   C1355     1.0  0.73762  0.73870  0.62481  1.0000
  C   C1356     1.0  0.71409  0.74408  0.62799  1.0000
  C   C1357     1.0  0.71774  0.77093  0.62345  1.0000
  C   C1358     1.0  0.74516  0.79234  0.61522  1.0000
  C   C1359     1.0  0.76876  0.78703  0.61236  1.0000
  H   H1076     1.0  0.73445  0.71796  0.62844  1.0000
  H   H1077     1.0  0.69298  0.72740  0.63445  1.0000
  H   H1078     1.0  0.74839  0.81316  0.61205  1.0000
  H   H1079     1.0  0.79001  0.80383  0.60651  1.0000
  C   C1360     1.0  0.73495  0.95136  0.64261  1.0000
  C   C1361     1.0  0.71842  0.92078  0.52740  1.0000
  C   C1362     1.0  0.71653  0.97781  0.74734  1.0000
  C   C1363     1.0  0.80355  0.69837  0.49866  1.0000
  H   H1080     1.0  0.66828  0.78670  0.53610  1.0000
  H   H1081     1.0  0.86681  0.72857  0.53129  1.0000
  S   S189      1.0  0.80486  0.65593  0.53087  1.0000
  H   H1082     1.0  0.85388  0.79753  0.75735  1.0000
  C   C1364     1.0  0.69970  0.95888  0.51212  1.0000
  C   C1365     1.0  0.89579  0.68510  0.53113  1.0000
  S   S190      1.0  0.76933  0.67200  0.60395  1.0000
  P   P46       1.0  0.79908  0.76138  0.72447  1.0000
  C   C1366     1.0  0.81887  0.79166  0.82384  1.0000
  C   C1367     1.0  0.76168  0.71200  0.69476  1.0000
  H   H1083     1.0  0.77956  0.87210  0.49231  1.0000
  H   H1084     1.0  0.89866  0.77608  0.65872  1.0000
  C   C1368     1.0  0.83848  0.78150  0.67629  1.0000
  C   C1369     1.0  0.77516  0.80965  0.50975  1.0000
  S   S191      1.0  0.82225  0.65764  0.61665  1.0000
  C   C1370     1.0  0.86272  0.78466  0.66002  1.0000
  C   C1371     1.0  0.78442  0.83535  0.49536  1.0000
  C   C1372     1.0  0.68176  0.75535  0.53571  1.0000
  C   C1373     1.0  0.88021  0.77413  0.67154  1.0000
  H   H1085     1.0  0.74340  0.70686  0.56685  1.0000
  H   H1086     1.0  0.80619  0.70871  0.52030  1.0000
  H   H1087     1.0  0.69522  0.72454  0.52822  1.0000
  C   C1374     1.0  0.74541  0.71396  0.54362  1.0000
  H   H1088     1.0  0.97304  0.85482  0.51056  1.0000
  C   C1375     1.0  0.71042  0.95493  0.63957  1.0000
  C   C1376     1.0  0.87282  0.81362  0.55896  1.0000
  H   H1089     1.0  0.77797  0.97804  0.50774  1.0000
  C   C1377     1.0  0.78434  0.76528  0.78410  1.0000
  H   H1090     1.0  0.86488  0.77174  0.55189  1.0000
  C   C1378     1.0  0.77555  0.72422  0.72231  1.0000
  C   C1379     1.0  0.78391  0.82329  0.69317  1.0000
  Fe  Fe96      1.0  0.78651  0.65834  0.64414  1.0000
  C   C1380     1.0  0.74118  0.66624  0.71713  1.0000
  H   H1091     1.0  0.82096  0.81943  0.70729  1.0000
  H   H1092     1.0  0.92739  0.85702  0.50997  1.0000
  C   C1381     1.0  0.71223  0.93480  0.55027  1.0000
  H   H1093     1.0  0.57427  0.86466  0.83449  1.0000
  C   C1382     1.0  0.73157  0.69489  0.52004  1.0000
  C   C1383     1.0  0.77252  0.85239  0.50349  1.0000
  H   H1094     1.0  0.74235  0.85725  0.53265  1.0000
  C   C1384     1.0  0.96026  0.76771  0.52616  1.0000
  C   C1385     1.0  0.75374  0.80970  0.68900  1.0000
  H   H1095     1.0  0.64713  0.95197  0.69752  1.0000
  C   C1386     1.0  0.79019  0.77451  0.81424  1.0000
  C   C1387     1.0  0.76264  0.74220  0.53724  1.0000
  H   H1096     1.0  0.61382  0.87693  0.62152  1.0000
  C   C1388     1.0  0.83907  0.82544  0.53409  1.0000
  C   C1389     1.0  0.86350  0.83296  0.55260  1.0000
  H   H1097     1.0  0.58833  0.85411  0.74079  1.0000
  H   H1098     1.0  0.84341  0.74520  0.73637  1.0000
  C   C1390     1.0  0.96027  0.74967  0.54845  1.0000
  H   H1099     1.0  0.97778  0.66480  0.81219  1.0000
  H   H1100     1.0  0.87807  0.69974  0.56628  1.0000
  C   C1391     1.0  0.67415  0.77386  0.52215  1.0000
  H   H1101     1.0  0.74305  0.82085  0.68016  1.0000
  H   H1102     1.0  0.78115  0.97233  0.65145  1.0000
  H   H1103     1.0  0.71387  0.77092  0.69214  1.0000
  H   H1104     1.0  0.73753  0.74476  0.71105  1.0000
  S   S192      1.0  0.52378  0.77776  0.76685  1.0000
  H   H1105     1.0  0.69692  0.96381  0.56043  1.0000
  H   H1106     1.0  0.87484  0.85363  0.56256  1.0000
  H   H1107     1.0  0.58955  0.90405  0.72016  1.0000
  H   H1108     1.0  0.82463  0.78881  0.66628  1.0000
  H   H1109     1.0  0.76198  0.75222  0.77683  1.0000
  C   C1392     1.0  0.83352  0.77925  0.52804  1.0000
  C   C1393     1.0  0.85790  0.78683  0.54658  1.0000
  C   C1394     1.0  0.80240  0.67243  0.49752  1.0000
  C   C1395     1.0  0.82374  0.79843  0.52179  1.0000
  C   C1396     1.0  0.84171  0.79976  0.80324  1.0000
  H   H1110     1.0  0.50149  0.77945  0.70579  1.0000
  C   C1397     1.0  0.70252  0.95358  0.54261  1.0000
  H   H1111     1.0  0.56853  0.87953  0.62697  1.0000
  C   C1398     1.0  0.90203  0.68578  0.50023  1.0000
  C   C1399     1.0  0.87333  0.76019  0.69920  1.0000
  H   H1112     1.0  0.77244  0.76844  0.83012  1.0000
  H   H1113     1.0  0.64707  0.88683  0.66515  1.0000
  H   H1114     1.0  0.62068  0.90934  0.83624  1.0000
  H   H1115     1.0  0.55837  0.83724  0.78663  1.0000
  H   H1116     1.0  0.94017  0.76789  0.52143  1.0000
  H   H1117     1.0  0.94054  0.73647  0.56072  1.0000
  H   H1118     1.0  0.65118  0.92649  0.79060  1.0000
  H   H1119     1.0  0.71432  0.93060  0.57393  1.0000
  C   C1400     1.0  0.75165  0.84412  0.52632  1.0000
  H   H1120     1.0  0.69889  0.93552  0.76203  1.0000
  C   C1401     1.0  0.83159  0.76779  0.70427  1.0000
  C   C1402     1.0  0.74435  0.68312  0.69228  1.0000
  C   C1403     1.0  0.66607  0.95885  0.71199  1.0000
  H   H1121     1.0  0.72682  0.81268  0.55911  1.0000
  C   C1404     1.0  0.73725  0.78145  0.69569  1.0000
  H   H1122     1.0  0.76475  0.72480  0.67503  1.0000
  H   H1123     1.0  0.72484  0.90541  0.53344  1.0000
  C   C1405     1.0  0.84903  0.75688  0.71547  1.0000
  C   C1406     1.0  0.75570  0.67816  0.74434  1.0000
  H   H1124     1.0  0.88635  0.75113  0.70741  1.0000
  H   H1125     1.0  0.71893  0.67289  0.52493  1.0000
  H   H1126     1.0  0.86392  0.81332  0.81059  1.0000
  H   H1127     1.0  0.86731  0.79445  0.63798  1.0000
  H   H1128     1.0  0.82339  0.79886  0.84719  1.0000
  C   C1407     1.0  0.77304  0.70704  0.74691  1.0000
  H   H1129     1.0  0.73399  0.67368  0.67085  1.0000
  C   C1408     1.0  0.75089  0.76658  0.70597  1.0000
  H   H1130     1.0  0.74743  0.78254  0.54516  1.0000
  C   C1409     1.0  0.78130  0.77992  0.70956  1.0000
  C   C1410     1.0  0.80720  0.77289  0.76342  1.0000
  C   C1411     1.0  0.68944  0.73895  0.51761  1.0000
  H   H1131     1.0  0.78476  0.71574  0.76788  1.0000
  H   H1132     1.0  0.79664  0.84520  0.68799  1.0000
  H   H1133     1.0  0.95610  0.80418  0.58886  1.0000
  C   C1412     1.0  0.67077  0.84426  0.73699  1.0000
  C   C1413     1.0  0.69817  0.85708  0.72345  1.0000
  C   C1414     1.0  0.70869  0.88328  0.71033  1.0000
  C   C1415     1.0  0.69194  0.89678  0.71095  1.0000
  C   C1416     1.0  0.66488  0.88457  0.72564  1.0000
  C   C1417     1.0  0.65416  0.85790  0.73810  1.0000
  P   P47       1.0  0.64434  0.90309  0.72846  1.0000
  C   C1418     1.0  0.62211  0.89163  0.76217  1.0000
  C   C1419     1.0  0.66995  0.93997  0.73021  1.0000
  H   H1134     1.0  0.96879  0.69030  0.85376  1.0000
  C   C1420     1.0  0.50250  0.68719  0.87884  1.0000
  H   H1135     1.0  0.89140  0.81924  0.57376  1.0000
  H   H1136     1.0  0.62269  0.83052  0.50495  1.0000
  C   C1421     1.0  0.69523  0.94976  0.74814  1.0000
  C   C1422     1.0  0.63100  0.90709  0.78932  1.0000
  C   C1423     1.0  0.61373  0.89743  0.81530  1.0000
  C   C1424     1.0  0.58757  0.87231  0.81436  1.0000
  C   C1425     1.0  0.57856  0.85688  0.78741  1.0000
  C   C1426     1.0  0.59566  0.86651  0.76142  1.0000
  C   C1427     1.0  0.62063  0.89589  0.69606  1.0000
  C   C1428     1.0  0.59517  0.89814  0.69876  1.0000
  C   C1429     1.0  0.57646  0.89233  0.67393  1.0000
  C   C1430     1.0  0.58332  0.88479  0.64608  1.0000
  C   C1431     1.0  0.60903  0.88339  0.64300  1.0000
  C   C1432     1.0  0.62762  0.88873  0.66789  1.0000
  H   H1137     1.0  0.66217  0.82357  0.74632  1.0000
  H   H1138     1.0  0.71085  0.84634  0.72222  1.0000
  H   H1139     1.0  0.72952  0.89287  0.69890  1.0000
  H   H1140     1.0  0.70026  0.91676  0.69991  1.0000
  H   H1141     1.0  0.63300  0.84743  0.74860  1.0000
  H   H1142     1.0  0.75392  0.66484  0.76318  1.0000
  H   H1143     1.0  0.77384  0.75660  0.55563  1.0000
  H   H1144     1.0  0.55642  0.89322  0.67638  1.0000
  H   H1145     1.0  0.68938  0.93707  0.63499  1.0000
  C   C1433     1.0  0.76205  0.97484  0.64890  1.0000
  H   H1146     1.0  0.48702  0.72650  0.94838  1.0000
  H   H1147     1.0  0.51823  0.68577  0.92359  1.0000
  H   H1148     1.0  0.69385  0.98405  0.64140  1.0000
  P   P48       1.0  0.79101  0.78794  0.49947  1.0000
  C   C1434     1.0  0.88317  0.71765  0.49179  1.0000
  C   C1435     1.0  0.49923  0.67886  0.90913  1.0000
  H   H1149     1.0  0.82197  0.75822  0.51921  1.0000
  C   C1436     1.0  0.71304  0.98163  0.64319  1.0000
  C   C1437     1.0  0.71515  0.92565  0.49688  1.0000
  C   C1438     1.0  0.92805  0.83933  0.49977  1.0000
  H   H1150     1.0  0.90022  0.67220  0.54641  1.0000
  H   H1151     1.0  0.73637  0.98510  0.76051  1.0000
  H   H1152     1.0  0.91123  0.67317  0.49181  1.0000
  C   C1439     1.0  0.67411  0.77594  0.49057  1.0000
  C   C1440     1.0  0.73466  0.70418  0.49012  1.0000
