data_image0
_chemical_formula_structural       FeS2FeS2FeSFeS3FeS2FeS2FeSFeS3FeS2FeS2FeSFeCS2CH2C3HC6H5C3HC5H3C6H4C2HCHC2H2C7H4PC9H2C7H6C2H7C2HC7H3PHC2HC4PC20H14CH3C3H2CH4CHC2HSH6CHCH3CHC5H4C3PSC3HCPC3H2C9H6CHC7PC8HC9H11C2H7C2HC5HCH5CHC2H2C2HC3HCHC2HC2H2CHC3HCHCH2CPCHC2HCH7C3HC6H5C2HCHC2H3CH4CH3CFeS2FeS2FeSFeS3FeS2FeS2FeHFeS3FeSCFeS2FeSFeS3C7H2C7H4C5SH2C3H3C7H2CHC6H4CHCHC3H2CHCH2C4HCH3C8H2C7H2CH7C3H4C3H2CHCHC6PC3HC5HC7H5C2H11C2HC3PHCHCHC3H2C2HC2H2CHCHC3H2C4H2CHC4HCPCHC2HC2H3CHC2HCH3CHCHC2PCHC3H6CPC4HC3H2CH2C2H2C2H2C3HC2HCH2C2HCHCHCH4CHC2HCH2C2HC4H2C2HCHCHPHC2HCH4CHC3PCHCH2CHC3HCHCH2FeS2FeS2FeSFeS3FeS2FeSCFeSFeS3FeSCFeS2FeSFeS3HC5H3CHC2H2C8H2SHC2H3C6H4C6H4C5HCH2C4H5CHC3HC2HPCH3CH2CHCPH4C2HC2HC3HC2SC2H2CHCHCHC3H2CHCH3CH2CH3CHCHCHCH5CH2C4H2CH2CHCHC2HC3H2CHCHCH2CHC2HC7HCHC2HC2H2CH3C2H2CPHC2H3CHCH4C2HCHCHCHC2H2CH2C3HC2H2C2HC2H2C4HCHC2PC5HC11H2CH3CHC2H2CH3CH4C3H2CPC3H2PC2H4CHC2HC2H2FeS2FeS2FeCFeS3FeS2FeS2FeSFeS3FeS2FeS2FeSFeS3C2HC2H2CPH2C5H2C6H3C3H2C7H5C4H3C6H4C3HCH2C4H2C5HC3H4C2HCH7CHC2H4C7HC2HC5H6CH8C3H3CH3CHC6HC2HC2HC2HCHCH2C2HCH2C3PC3H2C5HC8HCHC2H3CHC2H2CH6C2H2C3PH2CHCHCHC2HCH2CH3CH2C3HCH3C3PH2C3H2C6HCHPH3C8HCH4CHC6HCHPHCH2C2HC2HC2H2C4H2C3HCHCHC2HSC2H2C3H2CHCH6FeS2FeS2FeSFeS3FeS2FeS2FeHFeS3FeS2FeS2FeSFeS3HCH3C6H4C3HCH2C2HCHC7H4C6H4C3HCH3C3HC5HPC12H12C4H4CH3C2H3C2HCHCHC3HC3HC3HCH2PCHC4HC9H2CH2C3H3C2HC2HC2H2C2H3C6H3C2H5C4H4CH4CH4C2H3C7H2CH3C2H2C9HPCH2C2PH2CHCHC6HC3HCHC3H4CHCHC3HC2H3PC5HC3HC2H2CHCHCH3CHC2H5C3HCHCH4C2HCHCSPCHC2HFeS2FeS2FeSFeS3FeS2FeS2FeHFeS3FeS2FeS2FeCFeS3C6H4C2H2CHSHCHC8H4C6H4C4H4C6H6C2H3CH2C2H2C2H2C2HC4H6C2H3CH2C2H2C2H3PC4PHC2H3C2HC8H3CHCH2CHC5H3CH3C2HC7HCHSC3HCHC4H5C2HC4HC2H2CH4C3H2CH2CH4CH4C2H2CHC4HC2H2C2HC7HCHPCH4C3HC6PC3HC2HCHCHC4HCSHCHCHCPCH6CFeSHFeS2FeSFeS3FeS2FeS2FeSFeS3FeS2FeSHFeSFeS3C2H3C6H4SHC2HC5H3C6H4CHC6H4C2HC3H5C3HC3HCHC3HC2HC2HCH3CHC4HPC14SCHC2H2CPH8C2HC3H2CH3CPCHC12HCH2CH4C2HC2H4CH2CHC2PC3HC16HCH4CH11CH2C2H4C2HC3HCH2CHC2HCH2C2PH2C2PC2HCHCHCHCHCHCHCHC2PCHC2H2C2H2C4H3CH2C3H6CHC2H3CHC2HC4HCHC2HC2H2C2HCFeS2FeS2FeSFeS3FeS2FeS2FeCFeS3FeS2FeS2FeSFeS3H2C6H4C3H2C3HC7H6CH2C5H3C6H3C4H3C5PC5H2C12H5CHC2H2CH8C2HC2H4C4H2C5PCHCHCHC9HCH3CHC2H6C6H4CHC11H9C3H2PC2HCHCH2C2HPCH3CHCHPCHCH3C2HC2H3CH2C6HCHC2HCHCHCH2C2H2CH2CHC4H3C5H3C2HCHC2PHCHCHCSCH2C4H3CHCHC2HC3H2C4HC3HCH3C3H2CFeSHFeSCFeSFeS3FeSHFeS2FeSFeS3FeS2FeS2FeSFeS3C5HCHC6H4C3HC7H4C6H4C6H4CHC4HC4H3C2H2C7H4C2HC2HC7H2C5HPC2HCHSH2SH2SH2CH4CH2C2HC2H2C6PC14PC3H10CH5CH4CHC3H5CHC3H3C4H8PC11HC6H7CH3CHC3H2C2HCH2C2H3C2HC2H2C5H4CHC3H2C2H4FeS2FeS2FeSFeS3FeS2FeS2FeCFeS3FeS2FeS2FeCFeS3CHCHC2HC6H4C4HC6H4C3HC7H6CH2C3HCH3C2PC8H3C8H14C2HCH3CHCH2C2H3CH2CHCHCH2CHC2H2C2HC2HCH3C6HC5H2CHC3H3C2H2C3HCHCH4CHCHCHCH3C3H3C3H3C2H2C2H4CHC2HC3HC4HCSH2C2PH2CHC3HC3H3CPC2HCHC6PC18H20C6PC7H2C6H3CH8CH4CHC2H2CFeSCFeS2FeSFeS3FeS2FeS2FeSFeS3FeS2FeS2FeSFeS3C5H5C3H3C2H2C6H4C6H2C2H4C5HC6H4C2HC3HC4PHSC2H7C5H3C2HC7H6CHC3HCPC3H2CH3C2HCHCHCHCHCH3C3H3C5PH2CHC2HCH2C4HC3H2C6HCHC2H5C6HC3HCHCH4C3H2C5H2C2H2C2H2C3HC3H2C3H3CH4CH3PC2HCH2C6H3C2H5PHC4H2C2PHC2PH2CHC2HC3HC4H4CHC2HCHC3H2CHC2HCHCHCH5C3HCH3CHCH5FeSHFeS2FeSFeS3FeS2FeS2FeCFeS3FeSCFeS2FeSFeS3HCHCHC6H3PC6H4C3HCH2C6H4C4HCH2CHC3PHCH4C2HC5HCH2C5SH7C2HC6H6CHC3HCH3CHC4HC3H2C2H2CHC3H3CPCH2C2H4CHC2SC3HCH2C3PH3CH2CH2C5HCHC7PC7HCHC8H6CH2CH7CSH3C3HC4HC4H3CHC2H2C2H2CHC8H3CHCH4C6PCH3C2HC3HCHCH2C2H3CH2CHCH2CPHCFeS2FeS2FeSFeS3FeS2FeSCFeSFeS3FeS2FeSHFeSFeS3C6H5C3HC6HCH2C3H2C6H4C6H4C5H5C9HCH3CH2C2HC6PH3CHCH2C2HC2H3CHPHCH2C2HC3H2CHC3H2C3HC3PC2HSCH2C11HC3H3CH12CHCHCHCH2SH2C3HCHCH2CH2CHSCH2C2HC2HC5HCH5C3H2C3H3C2PH2C8HC3HC3H4CHCH2CH2CH2C2HCHCHC2H2PC4H6C4FeS2FeS2FeSFeS3FeS2FeS2FeSFeS3FeS2FeS2FeCFeS3C5H3C2H2PC6H4C4HCHC3HC2HC2HC6H4C6H7CHCH2CHCHCH2C2HCH2C2HCHC2PCH2CH5C2HCHC3HCH6C2H2CH4C2H2C4H3C3HC3H2CH2C2HCHCHCHC2H3C2HC4HC6H2C4H2CHC3H2C3H2CHPCHC2HCHC5HC4H3CHCHC2H2C3HC3HCHPCH2C2HC3HCHSHC5HC2H2CHCH3C2HC3H4C2HC2H2C2H2C4PHPCH4FeS2FeS2FeSFeS3FeS2FeS2FeSFeS3FeSHFeSCFeSFeS3C2H3C6H4C6HC6H4C6H4CHC2HC4H10CH2SCHC3HC3H2C2PC14HC3HC4HCH9C2H7C5H2C3HC3HC3HC3H2CH4CH2CH2C2HCH4CH4CH3C2H2C3HC3HCHC3H4C6HCHC2HCH2C3HC8PHC2H3C6HCH4CH3C2H2C4H3C2HC2HC2H2C3H2C2HCPH2C2PHCH2C2HC2HC2HCPH2CSCHC2H3C2H4CHC2HC8HCFeS2FeS2FeSFeS3FeS2FeSCFeSFeS3FeS2FeS2FeCFeS3C6H4C6H4C5H2C2HC6H4C3H2C6H4C3HCHCHCPCHCHCH7PC5HC3H3CHPCH3CH4CH2CH2CHC4HC2HPHC4HC2PCH5CH3C8HC2H5C2HC7PC16HCH6CH9CHCHCHC3HCHC10HCHC6H11CPHCHCHC9HC3H2CHCH2C3H3CH3C2H2CHCH5C3HC4HC2HC6H4C2H2CH2CHC4HCH2C2H6C4HCSHC3HCHCHCHC2H5C2H
_chemical_formula_sum              "Fe192 S384 C2880 H2304 P96"
_cell_length_a       59.8025
_cell_length_b       59.9088
_cell_length_c       59.7412
_cell_angle_alpha    90.0106
_cell_angle_beta     89.9446
_cell_angle_gamma    89.8501

_space_group_name_H-M_alt    "P 1"
_space_group_IT_number       1

loop_
  _space_group_symop_operation_xyz
  'x, y, z'

loop_
  _atom_site_type_symbol
  _atom_site_label
  _atom_site_symmetry_multiplicity
  _atom_site_fract_x
  _atom_site_fract_y
  _atom_site_fract_z
  _atom_site_occupancy
  Fe  Fe1       1.0  0.19016  0.38908  0.13173  1.0000
  S   S1        1.0  0.15679  0.37224  0.12531  1.0000
  S   S2        1.0  0.22013  0.36478  0.13378  1.0000
  Fe  Fe2       1.0  0.16768  0.43562  0.13429  1.0000
  S   S3        1.0  0.13393  0.42146  0.12728  1.0000
  S   S4        1.0  0.17217  0.47325  0.13948  1.0000
  Fe  Fe3       1.0  0.14308  0.39491  0.15248  1.0000
  S   S5        1.0  0.11507  0.38895  0.17830  1.0000
  Fe  Fe4       1.0  0.15070  0.40028  0.10093  1.0000
  S   S6        1.0  0.13656  0.40085  0.06516  1.0000
  S   S7        1.0  0.17657  0.40988  0.16048  1.0000
  S   S8        1.0  0.18435  0.41626  0.10633  1.0000
  Fe  Fe5       1.0  0.34729  0.33157  0.09099  1.0000
  S   S9        1.0  0.34015  0.29764  0.07656  1.0000
  S   S10       1.0  0.32156  0.35943  0.09830  1.0000
  Fe  Fe6       1.0  0.39868  0.32579  0.08297  1.0000
  S   S11       1.0  0.39402  0.29207  0.06690  1.0000
  S   S12       1.0  0.43329  0.34217  0.08444  1.0000
  Fe  Fe7       1.0  0.36426  0.30753  0.04918  1.0000
  S   S13       1.0  0.35594  0.30316  0.01195  1.0000
  Fe  Fe8       1.0  0.37052  0.28545  0.09563  1.0000
  S   S14       1.0  0.37150  0.25621  0.12059  1.0000
  S   S15       1.0  0.37068  0.34143  0.06310  1.0000
  S   S16       1.0  0.37612  0.31905  0.11208  1.0000
  Fe  Fe9       1.0  0.40644  0.12639  0.13970  1.0000
  S   S17       1.0  0.42233  0.13492  0.17243  1.0000
  S   S18       1.0  0.39920  0.15306  0.11301  1.0000
  Fe  Fe10      1.0  0.41019  0.07531  0.14933  1.0000
  S   S19       1.0  0.42729  0.08140  0.18246  1.0000
  S   S20       1.0  0.40706  0.03894  0.13737  1.0000
  Fe  Fe11      1.0  0.40083  0.10775  0.18756  1.0000
  S   S21       1.0  0.37844  0.11449  0.21824  1.0000
  Fe  Fe12      1.0  0.44730  0.10782  0.16407  1.0000
  C   C1        1.0  0.45101  0.46559  0.99082  1.0000
  S   S22       1.0  0.38310  0.10084  0.15485  1.0000
  S   S23       1.0  0.43200  0.09999  0.13079  1.0000
  C   C2        1.0  0.09225  0.42719  0.02937  1.0000
  H   H1        1.0  0.42951  0.20444  0.19036  1.0000
  H   H2        1.0  0.46848  0.30678  0.06490  1.0000
  C   C3        1.0  0.38424  0.01991  0.13734  1.0000
  C   C4        1.0  0.36222  0.02670  0.14148  1.0000
  C   C5        1.0  0.45910  0.15464  0.11325  1.0000
  H   H3        1.0  0.35878  0.04398  0.14553  1.0000
  C   C6        1.0  0.38115  0.22807  0.11838  1.0000
  C   C7        1.0  0.38860  0.21886  0.09816  1.0000
  C   C8        1.0  0.39437  0.19599  0.09695  1.0000
  C   C9        1.0  0.39340  0.18215  0.11599  1.0000
  C   C10       1.0  0.38680  0.19158  0.13639  1.0000
  C   C11       1.0  0.38047  0.21429  0.13748  1.0000
  H   H4        1.0  0.38919  0.22915  0.08330  1.0000
  H   H5        1.0  0.39933  0.18888  0.08106  1.0000
  H   H6        1.0  0.38604  0.18125  0.15121  1.0000
  H   H7        1.0  0.37477  0.22119  0.15323  1.0000
  H   H8        1.0  0.03014  0.44069  0.09647  1.0000
  C   C12       1.0  0.08227  0.41464  0.01236  1.0000
  C   C13       1.0  0.26104  0.11830  0.08172  1.0000
  C   C14       1.0  0.32454  0.99854  0.21632  1.0000
  H   H9        1.0  0.34797  0.35124  0.01683  1.0000
  C   C15       1.0  0.45312  0.34031  0.10666  1.0000
  C   C16       1.0  0.47442  0.34992  0.10391  1.0000
  C   C17       1.0  0.07426  0.44726  0.13189  1.0000
  C   C18       1.0  0.46397  0.32961  0.14449  1.0000
  C   C19       1.0  0.44810  0.32986  0.12699  1.0000
  H   H10       1.0  0.21327  0.33139  0.00295  1.0000
  H   H11       1.0  0.45968  0.32202  0.16031  1.0000
  H   H12       1.0  0.43185  0.32232  0.12935  1.0000
  C   C20       1.0  0.24810  0.36364  0.12321  1.0000
  C   C21       1.0  0.25928  0.38250  0.11516  1.0000
  C   C22       1.0  0.28164  0.38082  0.10758  1.0000
  C   C23       1.0  0.29319  0.36027  0.10783  1.0000
  C   C24       1.0  0.28203  0.34140  0.11587  1.0000
  C   C25       1.0  0.25969  0.34311  0.12355  1.0000
  H   H13       1.0  0.25082  0.39848  0.11520  1.0000
  H   H14       1.0  0.29010  0.39562  0.10168  1.0000
  H   H15       1.0  0.29056  0.32546  0.11623  1.0000
  H   H16       1.0  0.25128  0.32840  0.12977  1.0000
  C   C26       1.0  0.37983  0.02264  0.20197  1.0000
  C   C27       1.0  0.05356  0.33701  0.99725  1.0000
  H   H17       1.0  0.12410  0.46662  0.14534  1.0000
  C   C28       1.0  0.40319  0.02187  0.20193  1.0000
  H   H18       1.0  0.08014  0.06514  0.00099  1.0000
  C   C29       1.0  0.11577  0.37992  0.20678  1.0000
  C   C30       1.0  0.13557  0.37349  0.21747  1.0000
  H   H19       1.0  0.48275  0.24805  0.12162  1.0000
  H   H20       1.0  0.15124  0.37418  0.20843  1.0000
  C   C31       1.0  0.48514  0.33953  0.14190  1.0000
  C   C32       1.0  0.13410  0.34531  0.01141  1.0000
  C   C33       1.0  0.13125  0.36775  0.00565  1.0000
  C   C34       1.0  0.13213  0.38445  0.02229  1.0000
  C   C35       1.0  0.13590  0.37899  0.04491  1.0000
  C   C36       1.0  0.13921  0.35657  0.05062  1.0000
  C   C37       1.0  0.13826  0.33986  0.03395  1.0000
  H   H21       1.0  0.37735  0.38011  0.03598  1.0000
  H   H22       1.0  0.13017  0.40174  0.01754  1.0000
  H   H23       1.0  0.14235  0.35208  0.06787  1.0000
  H   H24       1.0  0.44802  0.15907  0.07930  1.0000
  P   P1        1.0  0.38419  0.37876  0.16174  1.0000
  C   C38       1.0  0.40792  0.37873  0.18060  1.0000
  C   C39       1.0  0.36980  0.35212  0.16225  1.0000
  C   C40       1.0  0.38056  0.33264  0.16985  1.0000
  C   C41       1.0  0.36936  0.31215  0.16970  1.0000
  C   C42       1.0  0.34732  0.31090  0.16208  1.0000
  C   C43       1.0  0.33637  0.33019  0.15479  1.0000
  C   C44       1.0  0.34750  0.35068  0.15488  1.0000
  C   C45       1.0  0.42706  0.36606  0.17556  1.0000
  C   C46       1.0  0.44565  0.36644  0.18973  1.0000
  H   H25       1.0  0.46012  0.45873  0.00492  1.0000
  H   H26       1.0  0.33689  0.44311  0.00043  1.0000
  C   C47       1.0  0.40757  0.39152  0.20033  1.0000
  C   C48       1.0  0.39244  0.38443  0.13309  1.0000
  C   C49       1.0  0.41451  0.39037  0.12752  1.0000
  C   C50       1.0  0.42037  0.39468  0.10526  1.0000
  C   C51       1.0  0.40418  0.39379  0.08846  1.0000
  C   C52       1.0  0.38204  0.38890  0.09397  1.0000
  C   C53       1.0  0.37623  0.38413  0.11611  1.0000
  H   H27       1.0  0.39763  0.33296  0.17564  1.0000
  H   H28       1.0  0.37791  0.29708  0.17499  1.0000
  H   H29       1.0  0.33890  0.29491  0.16139  1.0000
  H   H30       1.0  0.31880  0.42114  0.03063  1.0000
  H   H31       1.0  0.42772  0.35613  0.16043  1.0000
  H   H32       1.0  0.46055  0.35697  0.18549  1.0000
  C   C54       1.0  0.30350  0.99372  0.22562  1.0000
  C   C55       1.0  0.04538  0.06724  0.99167  1.0000
  H   H33       1.0  0.29145  0.34628  0.99674  1.0000
  H   H34       1.0  0.42740  0.39167  0.14007  1.0000
  H   H35       1.0  0.43763  0.39811  0.10095  1.0000
  H   H36       1.0  0.40888  0.39654  0.07118  1.0000
  H   H37       1.0  0.36934  0.38833  0.08109  1.0000
  H   H38       1.0  0.35900  0.38034  0.11987  1.0000
  H   H39       1.0  0.42095  0.36784  0.03763  1.0000
  C   C56       1.0  0.36876  0.39392  0.02816  1.0000
  C   C57       1.0  0.42891  0.47273  0.99353  1.0000
  H   H40       1.0  0.33862  0.36530  0.14894  1.0000
  C   C58       1.0  0.40957  0.36808  0.00305  1.0000
  C   C59       1.0  0.41681  0.35796  0.02304  1.0000
  C   C60       1.0  0.14600  0.43501  0.23150  1.0000
  C   C61       1.0  0.09113  0.44209  0.21099  1.0000
  C   C62       1.0  0.45583  0.20099  0.11691  1.0000
  C   C63       1.0  0.09836  0.45969  0.19756  1.0000
  C   C64       1.0  0.29507  0.36266  0.02826  1.0000
  H   H41       1.0  0.09628  0.44805  0.08259  1.0000
  H   H42       1.0  0.08350  0.42254  0.15643  1.0000
  H   H43       1.0  0.45452  0.21892  0.11779  1.0000
  P   P2        1.0  0.33775  0.02504  0.22192  1.0000
  H   H44       1.0  0.10205  0.45685  0.18004  1.0000
  C   C65       1.0  0.47197  0.24833  0.16770  1.0000
  C   C66       1.0  0.46386  0.16506  0.13361  1.0000
  H   H45       1.0  0.30831  0.35157  0.03376  1.0000
  C   C67       1.0  0.10109  0.48094  0.20673  1.0000
  C   C68       1.0  0.18749  0.29309  0.03624  1.0000
  C   C69       1.0  0.20176  0.31073  0.03027  1.0000
  C   C70       1.0  0.41841  0.33472  0.02460  1.0000
  P   P3        1.0  0.21967  0.32375  0.05083  1.0000
  C   C71       1.0  0.21567  0.35372  0.05136  1.0000
  C   C72       1.0  0.21305  0.31328  0.07840  1.0000
  C   C73       1.0  0.19904  0.32541  0.09286  1.0000
  C   C74       1.0  0.19439  0.31733  0.11431  1.0000
  C   C75       1.0  0.20357  0.29709  0.12146  1.0000
  C   C76       1.0  0.21727  0.28475  0.10705  1.0000
  C   C77       1.0  0.22195  0.29276  0.08557  1.0000
  C   C78       1.0  0.23034  0.36739  0.06357  1.0000
  C   C79       1.0  0.22626  0.39029  0.06555  1.0000
  C   C80       1.0  0.20768  0.39984  0.05522  1.0000
  C   C81       1.0  0.19292  0.38643  0.04324  1.0000
  C   C82       1.0  0.19671  0.36343  0.04148  1.0000
  C   C83       1.0  0.24868  0.31700  0.04531  1.0000
  C   C84       1.0  0.25560  0.30760  0.02485  1.0000
  C   C85       1.0  0.27817  0.30258  0.02112  1.0000
  C   C86       1.0  0.29396  0.30676  0.03778  1.0000
  C   C87       1.0  0.28714  0.31580  0.05826  1.0000
  C   C88       1.0  0.26464  0.32056  0.06209  1.0000
  C   C89       1.0  0.17570  0.28936  0.99765  1.0000
  C   C90       1.0  0.44008  0.27297  0.16301  1.0000
  H   H46       1.0  0.43182  0.45091  0.05990  1.0000
  H   H47       1.0  0.18617  0.28752  0.05340  1.0000
  H   H48       1.0  0.47857  0.35793  0.08824  1.0000
  H   H49       1.0  0.19195  0.34131  0.08790  1.0000
  H   H50       1.0  0.18414  0.32715  0.12562  1.0000
  H   H51       1.0  0.20019  0.29114  0.13824  1.0000
  H   H52       1.0  0.22442  0.26909  0.11262  1.0000
  H   H53       1.0  0.23264  0.28304  0.07461  1.0000
  H   H54       1.0  0.24456  0.36049  0.07223  1.0000
  H   H55       1.0  0.23726  0.40055  0.07556  1.0000
  H   H56       1.0  0.20428  0.41752  0.05710  1.0000
  H   H57       1.0  0.17818  0.39389  0.03586  1.0000
  H   H58       1.0  0.18453  0.35329  0.03284  1.0000
  H   H59       1.0  0.24379  0.30378  0.01180  1.0000
  C   C91       1.0  0.45838  0.42890  0.04948  1.0000
  H   H60       1.0  0.31148  0.30313  0.03473  1.0000
  H   H61       1.0  0.29922  0.31944  0.07121  1.0000
  H   H62       1.0  0.25968  0.32684  0.07830  1.0000
  C   C92       1.0  0.12755  0.48422  0.14700  1.0000
  C   C93       1.0  0.45401  0.28503  0.08954  1.0000
  C   C94       1.0  0.45796  0.26838  0.10537  1.0000
  H   H63       1.0  0.48590  0.10283  0.12117  1.0000
  H   H64       1.0  0.42387  0.32701  0.04005  1.0000
  C   C95       1.0  0.47164  0.29352  0.07684  1.0000
  H   H65       1.0  0.34763  0.37960  0.19452  1.0000
  H   H66       1.0  0.43734  0.29172  0.08741  1.0000
  H   H67       1.0  0.44415  0.26188  0.11506  1.0000
  H   H68       1.0  0.35570  0.06846  0.20971  1.0000
  C   C96       1.0  0.45242  0.16731  0.09482  1.0000
  H   H69       1.0  0.06708  0.48268  0.05086  1.0000
  C   C97       1.0  0.34584  0.42943  0.00823  1.0000
  C   C98       1.0  0.37889  0.40581  0.01068  1.0000
  H   H70       1.0  0.19442  0.47289  0.21115  1.0000
  S   S24       1.0  0.13288  0.32351  0.99119  1.0000
  H   H71       1.0  0.29560  0.38210  0.05852  1.0000
  H   H72       1.0  0.32067  0.40886  0.20556  1.0000
  H   H73       1.0  0.26708  0.40911  0.04503  1.0000
  H   H74       1.0  0.16847  0.45614  0.18369  1.0000
  H   H75       1.0  0.37118  0.02449  0.18620  1.0000
  H   H76       1.0  0.34826  0.21056  0.06324  1.0000
  C   C99       1.0  0.43971  0.19059  0.19573  1.0000
  H   H77       1.0  0.08960  0.44491  0.12270  1.0000
  C   C100      1.0  0.47970  0.26050  0.10887  1.0000
  H   H78       1.0  0.47419  0.13930  0.21540  1.0000
  H   H79       1.0  0.46024  0.13666  0.11189  1.0000
  H   H80       1.0  0.44530  0.20029  0.08243  1.0000
  C   C101      1.0  0.07087  0.43451  0.15118  1.0000
  H   H81       1.0  0.10996  0.45731  0.03764  1.0000
  C   C102      1.0  0.43591  0.23320  0.15732  1.0000
  C   C103      1.0  0.38836  0.99729  0.13232  1.0000
  C   C104      1.0  0.36559  0.42157  0.16041  1.0000
  C   C105      1.0  0.46477  0.15393  0.21031  1.0000
  C   C106      1.0  0.09113  0.48225  0.09343  1.0000
  H   H82       1.0  0.43296  0.28962  0.16296  1.0000
  H   H83       1.0  0.14071  0.32257  0.03858  1.0000
  H   H84       1.0  0.22826  0.13242  0.08687  1.0000
  H   H85       1.0  0.13698  0.45191  0.07777  1.0000
  C   C107      1.0  0.05135  0.43720  0.16374  1.0000
  C   C108      1.0  0.03506  0.45249  0.15687  1.0000
  C   C109      1.0  0.46272  0.26981  0.16793  1.0000
  P   P4        1.0  0.47014  0.20179  0.16159  1.0000
  S   S25       1.0  0.48478  0.11515  0.16869  1.0000
  C   C110      1.0  0.10175  0.44791  0.02454  1.0000
  C   C111      1.0  0.28813  0.38010  0.04211  1.0000
  C   C112      1.0  0.44901  0.40245  0.02030  1.0000
  H   H86       1.0  0.45395  0.38863  0.00964  1.0000
  C   C113      1.0  0.28523  0.35964  0.00725  1.0000
  P   P5        1.0  0.06168  0.47857  0.09923  1.0000
  C   C114      1.0  0.27195  0.39515  0.03457  1.0000
  C   C115      1.0  0.47255  0.16707  0.19262  1.0000
  C   C116      1.0  0.09681  0.48484  0.22952  1.0000
  H   H87       1.0  0.04018  0.05429  0.00321  1.0000
  H   H88       1.0  0.28354  0.29550  0.00530  1.0000
  C   C117      1.0  0.35036  0.43813  0.16688  1.0000
  C   C118      1.0  0.35050  0.32509  0.99240  1.0000
  C   C119      1.0  0.46005  0.18547  0.18504  1.0000
  C   C120      1.0  0.30780  0.05511  0.16807  1.0000
  C   C121      1.0  0.31889  0.07558  0.16711  1.0000
  C   C122      1.0  0.34237  0.06447  0.19808  1.0000
  C   C123      1.0  0.03485  0.44560  0.07969  1.0000
  C   C124      1.0  0.33101  0.04405  0.19953  1.0000
  C   C125      1.0  0.31367  0.03943  0.18439  1.0000
  H   H89       1.0  0.29459  0.05139  0.15627  1.0000
  H   H90       1.0  0.31421  0.08786  0.15477  1.0000
  H   H91       1.0  0.32758  0.01666  0.14285  1.0000
  H   H92       1.0  0.40918  0.25709  0.15355  1.0000
  H   H93       1.0  0.30469  0.02379  0.18502  1.0000
  H   H94       1.0  0.35108  0.45453  0.15927  1.0000
  C   C126      1.0  0.16621  0.45302  0.20140  1.0000
  H   H95       1.0  0.13841  0.43086  0.19647  1.0000
  C   C127      1.0  0.12705  0.46626  0.08279  1.0000
  C   C128      1.0  0.37026  0.09107  0.09692  1.0000
  C   C129      1.0  0.36050  0.07024  0.10058  1.0000
  C   C130      1.0  0.33796  0.06888  0.10664  1.0000
  C   C131      1.0  0.32529  0.08837  0.10936  1.0000
  C   C132      1.0  0.33499  0.10940  0.10572  1.0000
  C   C133      1.0  0.35758  0.11054  0.09953  1.0000
  P   P6        1.0  0.31985  0.13459  0.11281  1.0000
  C   C134      1.0  0.29070  0.13311  0.10520  1.0000
  C   C135      1.0  0.32422  0.13866  0.14245  1.0000
  C   C136      1.0  0.30752  0.13353  0.15816  1.0000
  C   C137      1.0  0.31181  0.13564  0.18111  1.0000
  C   C138      1.0  0.33284  0.14261  0.18849  1.0000
  C   C139      1.0  0.34955  0.14758  0.17296  1.0000
  C   C140      1.0  0.34528  0.14561  0.15004  1.0000
  C   C141      1.0  0.28354  0.11868  0.08813  1.0000
  H   H96       1.0  0.33376  0.98794  0.07762  1.0000
  C   C142      1.0  0.26220  0.39235  0.01347  1.0000
  C   C143      1.0  0.45861  0.22979  0.16240  1.0000
  C   C144      1.0  0.27527  0.14797  0.11489  1.0000
  C   C145      1.0  0.33000  0.15843  0.09745  1.0000
  C   C146      1.0  0.33003  0.17969  0.10739  1.0000
  C   C147      1.0  0.33641  0.19840  0.09499  1.0000
  C   C148      1.0  0.34288  0.19606  0.07264  1.0000
  C   C149      1.0  0.34277  0.17499  0.06258  1.0000
  C   C150      1.0  0.33612  0.15626  0.07486  1.0000
  H   H97       1.0  0.38787  0.09221  0.09271  1.0000
  H   H98       1.0  0.37056  0.05520  0.09918  1.0000
  H   H99       1.0  0.33054  0.05269  0.10979  1.0000
  H   H100      1.0  0.30807  0.08701  0.11476  1.0000
  H   H101      1.0  0.36562  0.12649  0.09721  1.0000
  H   H102      1.0  0.29142  0.12731  0.15286  1.0000
  H   H103      1.0  0.29904  0.13138  0.19324  1.0000
  H   H104      1.0  0.33647  0.14361  0.20626  1.0000
  H   H105      1.0  0.36605  0.15238  0.17873  1.0000
  H   H106      1.0  0.35857  0.14908  0.13824  1.0000
  H   H107      1.0  0.29531  0.10799  0.07945  1.0000
  C   C151      1.0  0.33325  0.41242  0.19299  1.0000
  C   C152      1.0  0.24565  0.13263  0.09196  1.0000
  H   H108      1.0  0.34440  0.09629  0.18181  1.0000
  H   H109      1.0  0.28067  0.16006  0.12723  1.0000
  H   H110      1.0  0.32514  0.18192  0.12470  1.0000
  H   H111      1.0  0.33677  0.21474  0.10283  1.0000
  H   H112      1.0  0.43294  0.01999  0.22204  1.0000
  H   H113      1.0  0.34791  0.17320  0.04529  1.0000
  H   H114      1.0  0.33581  0.14011  0.06673  1.0000
  C   C153      1.0  0.43664  0.43749  0.04870  1.0000
  C   C154      1.0  0.46456  0.41142  0.03524  1.0000
  H   H115      1.0  0.41223  0.02327  0.18622  1.0000
  C   C155      1.0  0.34458  0.01116  0.14009  1.0000
  C   C156      1.0  0.42667  0.25465  0.15775  1.0000
  C   C157      1.0  0.05796  0.46264  0.12476  1.0000
  C   C158      1.0  0.33604  0.08029  0.18219  1.0000
  C   C159      1.0  0.33565  0.41709  0.02527  1.0000
  H   H116      1.0  0.37269  0.00186  0.07998  1.0000
  C   C160      1.0  0.36747  0.42397  0.00108  1.0000
  H   H117      1.0  0.33930  0.38980  0.04855  1.0000
  H   H118      1.0  0.24095  0.15900  0.11605  1.0000
  H   H119      1.0  0.31937  0.32925  0.14858  1.0000
  H   H120      1.0  0.41610  0.18115  0.22136  1.0000
  H   H121      1.0  0.08923  0.42557  0.20385  1.0000
  C   C161      1.0  0.04978  0.46330  0.07605  1.0000
  H   H122      1.0  0.31821  0.06891  0.23471  1.0000
  C   C162      1.0  0.41482  0.02001  0.22209  1.0000
  C   C163      1.0  0.36447  0.40017  0.16993  1.0000
  H   H123      1.0  0.37810  0.42548  0.14790  1.0000
  H   H124      1.0  0.04887  0.42737  0.17877  1.0000
  C   C164      1.0  0.17447  0.28254  0.01996  1.0000
  C   C165      1.0  0.45083  0.19049  0.09663  1.0000
  H   H125      1.0  0.25038  0.40473  0.00757  1.0000
  C   C166      1.0  0.05553  0.46912  0.05401  1.0000
  C   C167      1.0  0.41244  0.32135  0.00645  1.0000
  C   C168      1.0  0.36785  0.02181  0.22219  1.0000
  H   H126      1.0  0.02455  0.43088  0.02560  1.0000
  C   C169      1.0  0.20253  0.31775  0.00786  1.0000
  H   H127      1.0  0.13282  0.42380  0.23650  1.0000
  C   C170      1.0  0.14912  0.43895  0.20865  1.0000
  C   C171      1.0  0.42102  0.42853  0.03380  1.0000
  H   H128      1.0  0.08014  0.38380  0.21091  1.0000
  C   C172      1.0  0.43202  0.17744  0.21350  1.0000
  C   C173      1.0  0.09559  0.37898  0.21898  1.0000
  H   H129      1.0  0.05075  0.46222  0.01895  1.0000
  H   H130      1.0  0.40420  0.43523  0.03370  1.0000
  C   C174      1.0  0.34718  0.39946  0.03536  1.0000
  H   H131      1.0  0.25560  0.10708  0.06858  1.0000
  C   C175      1.0  0.25279  0.14755  0.10845  1.0000
  C   C176      1.0  0.02585  0.43393  0.06152  1.0000
  C   C177      1.0  0.46224  0.18833  0.13566  1.0000
  H   H132      1.0  0.01361  0.01012  0.21664  1.0000
  C   C178      1.0  0.26829  0.37420  0.99983  1.0000
  H   H133      1.0  0.46893  0.15489  0.14764  1.0000
  C   C179      1.0  0.08668  0.44576  0.23364  1.0000
  H   H134      1.0  0.42538  0.21922  0.15276  1.0000
  H   H135      1.0  0.04952  0.32102  0.00468  1.0000
  C   C180      1.0  0.04627  0.45760  0.03590  1.0000
  P   P7        1.0  0.40662  0.39814  0.00132  1.0000
  C   C181      1.0  0.42707  0.41086  0.01953  1.0000
  H   H136      1.0  0.09332  0.42045  0.04620  1.0000
  C   C182      1.0  0.18076  0.46253  0.21694  1.0000
  C   C183      1.0  0.10396  0.46412  0.08567  1.0000
  H   H137      1.0  0.16313  0.26926  0.02464  1.0000
  C   C184      1.0  0.33412  0.43353  0.18307  1.0000
  H   H138      1.0  0.02254  0.35253  0.00698  1.0000
  H   H139      1.0  0.10864  0.47225  0.99897  1.0000
  H   H140      1.0  0.43819  0.14851  0.23406  1.0000
  H   H141      1.0  0.21910  0.38375  0.00142  1.0000
  H   H142      1.0  0.02529  0.47658  0.13215  1.0000
  H   H143      1.0  0.47319  0.28407  0.17171  1.0000
  H   H144      1.0  0.01990  0.45456  0.16660  1.0000
  C   C185      1.0  0.00539  0.99251  0.18629  1.0000
  C   C186      1.0  0.03825  0.46505  0.13738  1.0000
  C   C187      1.0  0.34847  0.39584  0.18659  1.0000
  H   H145      1.0  0.40530  0.99186  0.12895  1.0000
  C   C188      1.0  0.18968  0.30699  0.99161  1.0000
  C   C189      1.0  0.03843  0.35476  0.99856  1.0000
  C   C190      1.0  0.03154  0.43993  0.03964  1.0000
  C   C191      1.0  0.44450  0.15908  0.22074  1.0000
  C   C192      1.0  0.42613  0.39173  0.21459  1.0000
  C   C193      1.0  0.34740  0.34722  0.99922  1.0000
  H   H146      1.0  0.07590  0.39827  0.01649  1.0000
  H   H147      1.0  0.47041  0.43562  0.06125  1.0000
  H   H148      1.0  0.41291  0.30332  0.00795  1.0000
  H   H149      1.0  0.01442  0.42023  0.06445  1.0000
  H   H150      1.0  0.42093  0.47159  0.00977  1.0000
  C   C194      1.0  0.10103  0.45628  0.00273  1.0000
  C   C195      1.0  0.00772  0.99459  0.20947  1.0000
  H   H151      1.0  0.00957  0.00640  0.17546  1.0000
  C   C196      1.0  0.08168  0.42281  0.99030  1.0000
  H   H152      1.0  0.32221  0.44632  0.18793  1.0000
  C   C197      1.0  0.44518  0.37925  0.20925  1.0000
  C   C198      1.0  0.06790  0.07332  0.99040  1.0000
  H   H153      1.0  0.39952  0.07420  0.23730  1.0000
  H   H154      1.0  0.39309  0.40144  0.20478  1.0000
  H   H155      1.0  0.03214  0.38913  0.99066  1.0000
  C   C199      1.0  0.34867  0.98859  0.13490  1.0000
  H   H156      1.0  0.29530  0.00554  0.23660  1.0000
  H   H157      1.0  0.00172  0.11255  0.99053  1.0000
  H   H158      1.0  0.17848  0.37782  0.99768  1.0000
  H   H159      1.0  0.45966  0.37953  0.22014  1.0000
  C   C200      1.0  0.13746  0.48666  0.08712  1.0000
  H   H160      1.0  0.48134  0.40455  0.03607  1.0000
  H   H161      1.0  0.42579  0.40167  0.22973  1.0000
  H   H162      1.0  0.48807  0.16238  0.18448  1.0000
  C   C201      1.0  0.04390  0.37543  0.98920  1.0000
  Fe  Fe13      1.0  0.04330  0.34806  0.33075  1.0000
  S   S26       1.0  0.05687  0.35602  0.36452  1.0000
  S   S27       1.0  0.00602  0.34088  0.32632  1.0000
  Fe  Fe14      1.0  0.08952  0.35389  0.30843  1.0000
  S   S28       1.0  0.10582  0.36150  0.34168  1.0000
  S   S29       1.0  0.11528  0.35400  0.27984  1.0000
  Fe  Fe15      1.0  0.08528  0.33299  0.35548  1.0000
  S   S30       1.0  0.09629  0.30904  0.38352  1.0000
  Fe  Fe16      1.0  0.07620  0.38367  0.34779  1.0000
  S   S31       1.0  0.07523  0.41904  0.36234  1.0000
  S   S32       1.0  0.07094  0.32374  0.32196  1.0000
  S   S33       1.0  0.06051  0.37726  0.31420  1.0000
  Fe  Fe17      1.0  0.09229  0.13195  0.41911  1.0000
  S   S34       1.0  0.09556  0.16551  0.43569  1.0000
  S   S35       1.0  0.05738  0.11652  0.42043  1.0000
  Fe  Fe18      1.0  0.14344  0.12900  0.40992  1.0000
  S   S36       1.0  0.14957  0.16260  0.42580  1.0000
  S   S37       1.0  0.16857  0.10374  0.39504  1.0000
  Fe  Fe19      1.0  0.12575  0.15068  0.45302  1.0000
  H   H163      1.0  0.32663  0.12418  0.45135  1.0000
  Fe  Fe20      1.0  0.11859  0.17436  0.40726  1.0000
  S   S38       1.0  0.11396  0.20342  0.38238  1.0000
  S   S39       1.0  0.12121  0.11677  0.43799  1.0000
  S   S40       1.0  0.11380  0.14119  0.38982  1.0000
  Fe  Fe21      1.0  0.32761  0.02422  0.37435  1.0000
  S   S41       1.0  0.36145  0.03924  0.36982  1.0000
  C   C202      1.0  0.02217  0.26765  0.39624  1.0000
  Fe  Fe22      1.0  0.30463  0.07071  0.37621  1.0000
  S   S42       1.0  0.33780  0.08824  0.37065  1.0000
  S   S43       1.0  0.27522  0.09482  0.38345  1.0000
  Fe  Fe23      1.0  0.34519  0.06200  0.34443  1.0000
  S   S44       1.0  0.36484  0.06185  0.31108  1.0000
  Fe  Fe24      1.0  0.35113  0.06409  0.39625  1.0000
  S   S45       1.0  0.37599  0.07378  0.42370  1.0000
  S   S46       1.0  0.31120  0.04601  0.34827  1.0000
  S   S47       1.0  0.31807  0.04748  0.40274  1.0000
  C   C203      1.0  0.17796  0.45831  0.23980  1.0000
  C   C204      1.0  0.35900  0.10725  0.25964  1.0000
  C   C205      1.0  0.35570  0.09614  0.28029  1.0000
  C   C206      1.0  0.36819  0.07703  0.28550  1.0000
  C   C207      1.0  0.38402  0.06938  0.26978  1.0000
  C   C208      1.0  0.27783  0.99057  0.28811  1.0000
  C   C209      1.0  0.26850  0.01053  0.29600  1.0000
  H   H164      1.0  0.34355  0.10236  0.29218  1.0000
  H   H165      1.0  0.39407  0.05493  0.27382  1.0000
  C   C210      1.0  0.11846  0.45474  0.29861  1.0000
  C   C211      1.0  0.19826  0.10175  0.39165  1.0000
  C   C212      1.0  0.20789  0.08084  0.38654  1.0000
  C   C213      1.0  0.23128  0.07833  0.38388  1.0000
  C   C214      1.0  0.24547  0.09673  0.38639  1.0000
  C   C215      1.0  0.23582  0.11761  0.39152  1.0000
  C   C216      1.0  0.21243  0.12016  0.39400  1.0000
  H   H166      1.0  0.19715  0.06647  0.38461  1.0000
  H   H167      1.0  0.23832  0.06218  0.37984  1.0000
  H   H168      1.0  0.24654  0.13201  0.39336  1.0000
  H   H169      1.0  0.20537  0.13641  0.39747  1.0000
  C   C217      1.0  0.03201  0.10765  0.35761  1.0000
  C   C218      1.0  0.04686  0.11209  0.37535  1.0000
  C   C219      1.0  0.03941  0.11078  0.39748  1.0000
  C   C220      1.0  0.01703  0.10480  0.40163  1.0000
  C   C221      1.0  0.17246  0.22298  0.37728  1.0000
  S   S48       1.0  0.99124  0.09912  0.33833  1.0000
  H   H170      1.0  0.06410  0.11625  0.37191  1.0000
  H   H171      1.0  0.01116  0.10348  0.41871  1.0000
  C   C222      1.0  0.38816  0.09140  0.46930  1.0000
  C   C223      1.0  0.36812  0.08435  0.45026  1.0000
  C   C224      1.0  0.34089  0.08754  0.45687  1.0000
  H   H172      1.0  0.40561  0.08960  0.46483  1.0000
  H   H173      1.0  0.32843  0.08354  0.44444  1.0000
  H   H174      1.0  0.04382  0.16184  0.40349  1.0000
  C   C225      1.0  0.00203  0.10090  0.38379  1.0000
  C   C226      1.0  0.09647  0.43986  0.36175  1.0000
  C   C227      1.0  0.11822  0.43530  0.35437  1.0000
  C   C228      1.0  0.13452  0.45232  0.35431  1.0000
  C   C229      1.0  0.12933  0.47414  0.36148  1.0000
  C   C230      1.0  0.10754  0.47873  0.36873  1.0000
  C   C231      1.0  0.09127  0.46166  0.36895  1.0000
  H   H175      1.0  0.12248  0.41868  0.34870  1.0000
  H   H176      1.0  0.15129  0.44856  0.34870  1.0000
  C   C232      1.0  0.01521  0.20688  0.42360  1.0000
  H   H177      1.0  0.07453  0.46540  0.37473  1.0000
  C   C233      1.0  0.10018  0.27950  0.38288  1.0000
  C   C234      1.0  0.10441  0.26810  0.40306  1.0000
  C   C235      1.0  0.10802  0.24477  0.40340  1.0000
  C   C236      1.0  0.10780  0.23256  0.38343  1.0000
  C   C237      1.0  0.10323  0.24393  0.36329  1.0000
  C   C238      1.0  0.09936  0.26720  0.36298  1.0000
  H   H178      1.0  0.10506  0.27742  0.41854  1.0000
  H   H179      1.0  0.11148  0.23634  0.41902  1.0000
  H   H180      1.0  0.10293  0.23464  0.34777  1.0000
  H   H181      1.0  0.09614  0.27568  0.34732  1.0000
  C   C239      1.0  0.00629  0.15885  0.36203  1.0000
  H   H182      1.0  0.08310  0.40335  0.28151  1.0000
  C   C240      1.0  0.03779  0.45637  0.44534  1.0000
  H   H183      1.0  0.03628  0.24168  0.35692  1.0000
  C   C241      1.0  0.99635  0.25659  0.30042  1.0000
  C   C242      1.0  0.12782  0.43825  0.28470  1.0000
  C   C243      1.0  0.38116  0.15670  0.45725  1.0000
  H   H184      1.0  0.39633  0.16652  0.45822  1.0000
  H   H185      1.0  0.00998  0.23454  0.46549  1.0000
  C   C244      1.0  0.26806  0.01498  0.31897  1.0000
  H   H186      1.0  0.07943  0.37063  0.25037  1.0000
  C   C245      1.0  0.04045  0.15398  0.31849  1.0000
  H   H187      1.0  0.01075  0.24669  0.29572  1.0000
  H   H188      1.0  0.09558  0.28765  0.47470  1.0000
  C   C246      1.0  0.16018  0.39877  0.30058  1.0000
  C   C247      1.0  0.07748  0.14573  0.33331  1.0000
  C   C248      1.0  0.02067  0.18454  0.41941  1.0000
  C   C249      1.0  0.04745  0.21852  0.40199  1.0000
  H   H189      1.0  0.20036  0.29261  0.25262  1.0000
  C   C250      1.0  0.01082  0.46678  0.41702  1.0000
  H   H190      1.0  0.26282  0.05814  0.41786  1.0000
  H   H191      1.0  0.33396  0.00634  0.26714  1.0000
  H   H192      1.0  0.05936  0.33036  0.42336  1.0000
  C   C251      1.0  0.04217  0.20699  0.30258  1.0000
  C   C252      1.0  0.99722  0.18319  0.27628  1.0000
  C   C253      1.0  0.22902  0.06777  0.46295  1.0000
  C   C254      1.0  0.23557  0.06090  0.44143  1.0000
  C   C255      1.0  0.25787  0.06289  0.43469  1.0000
  C   C256      1.0  0.27368  0.07192  0.44922  1.0000
  C   C257      1.0  0.99570  0.33240  0.37099  1.0000
  C   C258      1.0  0.48754  0.41163  0.33962  1.0000
  H   H193      1.0  0.09088  0.14946  0.34491  1.0000
  H   H194      1.0  0.06698  0.43207  0.30704  1.0000
  C   C259      1.0  0.06160  0.14043  0.47948  1.0000
  C   C260      1.0  0.15560  0.05263  0.42089  1.0000
  C   C261      1.0  0.16763  0.06452  0.43700  1.0000
  C   C262      1.0  0.30717  0.02855  0.46183  1.0000
  C   C263      1.0  0.16909  0.48225  0.28838  1.0000
  C   C264      1.0  0.11250  0.06100  0.46440  1.0000
  C   C265      1.0  0.05362  0.22720  0.30480  1.0000
  H   H195      1.0  0.01950  0.29614  0.33784  1.0000
  H   H196      1.0  0.15044  0.36047  0.24774  1.0000
  C   C266      1.0  0.02528  0.21255  0.33904  1.0000
  H   H197      1.0  0.18987  0.41053  0.25323  1.0000
  H   H198      1.0  0.04200  0.42125  0.45111  1.0000
  H   H199      1.0  0.20496  0.10276  0.43692  1.0000
  H   H200      1.0  0.24923  0.12977  0.45742  1.0000
  H   H201      1.0  0.06465  0.23276  0.29157  1.0000
  H   H202      1.0  0.12182  0.40638  0.26880  1.0000
  H   H203      1.0  0.29080  0.07383  0.44366  1.0000
  C   C267      1.0  0.33318  0.09837  0.48254  1.0000
  C   C268      1.0  0.18324  0.05352  0.45061  1.0000
  C   C269      1.0  0.09512  0.37147  0.24139  1.0000
  H   H204      1.0  0.09455  0.11761  0.31867  1.0000
  H   H205      1.0  0.17234  0.20866  0.38838  1.0000
  H   H206      1.0  0.14409  0.06145  0.40996  1.0000
  H   H207      1.0  0.16479  0.08230  0.43849  1.0000
  C   C270      1.0  0.00942  0.10257  0.36162  1.0000
  C   C271      1.0  0.38271  0.03233  0.46195  1.0000
  C   C272      1.0  0.15871  0.02963  0.41858  1.0000
  H   H208      1.0  0.36286  0.18260  0.44075  1.0000
  H   H209      1.0  0.06378  0.10900  0.29218  1.0000
  C   C273      1.0  0.02763  0.19967  0.31952  1.0000
  H   H210      1.0  0.32007  0.02173  0.30279  1.0000
  C   C274      1.0  0.34341  0.15315  0.44596  1.0000
  H   H211      1.0  0.05324  0.30027  0.36150  1.0000
  C   C275      1.0  0.11164  0.25484  0.30032  1.0000
  C   C276      1.0  0.10136  0.27314  0.29008  1.0000
  C   C277      1.0  0.11096  0.29428  0.29182  1.0000
  C   C278      1.0  0.13071  0.29727  0.30397  1.0000
  C   C279      1.0  0.14117  0.27895  0.31428  1.0000
  C   C280      1.0  0.13151  0.25769  0.31225  1.0000
  P   P8        1.0  0.16778  0.28234  0.32817  1.0000
  C   C281      1.0  0.17094  0.25964  0.34796  1.0000
  C   C282      1.0  0.19008  0.28167  0.30773  1.0000
  C   C283      1.0  0.18609  0.28789  0.28541  1.0000
  H   H212      1.0  0.37112  0.01988  0.25831  1.0000
  C   C284      1.0  0.18615  0.03037  0.44838  1.0000
  C   C285      1.0  0.22928  0.27563  0.29862  1.0000
  C   C286      1.0  0.21185  0.27572  0.31427  1.0000
  C   C287      1.0  0.16299  0.26165  0.37001  1.0000
  C   C288      1.0  0.03890  0.36012  0.42299  1.0000
  H   H213      1.0  0.14803  0.40588  0.31205  1.0000
  C   C289      1.0  0.17973  0.23904  0.34080  1.0000
  C   C290      1.0  0.16823  0.30879  0.34273  1.0000
  C   C291      1.0  0.14935  0.31590  0.35473  1.0000
  C   C292      1.0  0.14981  0.33585  0.36684  1.0000
  C   C293      1.0  0.16883  0.34931  0.36641  1.0000
  C   C294      1.0  0.18758  0.34261  0.35413  1.0000
  C   C295      1.0  0.18738  0.32236  0.34244  1.0000
  H   H214      1.0  0.10441  0.23836  0.29895  1.0000
  H   H215      1.0  0.08606  0.27101  0.28064  1.0000
  H   H216      1.0  0.10313  0.30842  0.28361  1.0000
  H   H217      1.0  0.13791  0.31384  0.30495  1.0000
  H   H218      1.0  0.13914  0.24320  0.31989  1.0000
  C   C296      1.0  0.99177  0.15433  0.37984  1.0000
  C   C297      1.0  0.18380  0.45315  0.31244  1.0000
  H   H219      1.0  0.04514  0.19674  0.28791  1.0000
  H   H220      1.0  0.24603  0.27093  0.30374  1.0000
  H   H221      1.0  0.21540  0.27129  0.33149  1.0000
  H   H222      1.0  0.15547  0.27696  0.37596  1.0000
  H   H223      1.0  0.18678  0.20482  0.34969  1.0000
  H   H224      1.0  0.18532  0.23678  0.32370  1.0000
  H   H225      1.0  0.13435  0.30583  0.35495  1.0000
  H   H226      1.0  0.13529  0.34088  0.37651  1.0000
  H   H227      1.0  0.16899  0.36493  0.37557  1.0000
  H   H228      1.0  0.20233  0.35308  0.35378  1.0000
  H   H229      1.0  0.20218  0.31745  0.33327  1.0000
  C   C298      1.0  0.02896  0.22404  0.41548  1.0000
  C   C299      1.0  0.20357  0.28782  0.26983  1.0000
  H   H230      1.0  0.47123  0.44181  0.35077  1.0000
  C   C300      1.0  0.36143  0.11955  0.46583  1.0000
  C   C301      1.0  0.17125  0.45948  0.29363  1.0000
  C   C302      1.0  0.09348  0.07143  0.47315  1.0000
  P   P9        1.0  0.19988  0.06859  0.47069  1.0000
  H   H231      1.0  0.32876  0.16012  0.43784  1.0000
  C   C303      1.0  0.29214  0.02790  0.47968  1.0000
  H   H232      1.0  0.06069  0.25519  0.32643  1.0000
  C   C304      1.0  0.03943  0.17918  0.40648  1.0000
  H   H233      1.0  0.30460  0.06028  0.30411  1.0000
  C   C305      1.0  0.19822  0.11073  0.45171  1.0000
  C   C306      1.0  0.16806  0.41117  0.28223  1.0000
  C   C307      1.0  0.19422  0.13371  0.45149  1.0000
  H   H234      1.0  0.16959  0.29289  0.27991  1.0000
  H   H235      1.0  0.14946  0.02055  0.40594  1.0000
  C   C308      1.0  0.99784  0.16675  0.34162  1.0000
  C   C309      1.0  0.16389  0.24342  0.38460  1.0000
  H   H236      1.0  0.08980  0.46455  0.31817  1.0000
  C   C310      1.0  0.02034  0.28792  0.35396  1.0000
  C   C311      1.0  0.08966  0.46700  0.24298  1.0000
  H   H237      1.0  0.34931  0.12205  0.25591  1.0000
  H   H238      1.0  0.16033  0.36703  0.31745  1.0000
  C   C312      1.0  0.04278  0.13603  0.30349  1.0000
  H   H239      1.0  0.30390  0.08346  0.27012  1.0000
  C   C313      1.0  0.19089  0.37945  0.27102  1.0000
  H   H240      1.0  0.05085  0.04168  0.46913  1.0000
  C   C314      1.0  0.18258  0.36707  0.28904  1.0000
  C   C315      1.0  0.01729  0.42757  0.42537  1.0000
  C   C316      1.0  0.36248  0.16581  0.44745  1.0000
  H   H241      1.0  0.03366  0.29732  0.43962  1.0000
  H   H242      1.0  0.47213  0.40223  0.33847  1.0000
  C   C317      1.0  0.31918  0.03168  0.28765  1.0000
  C   C318      1.0  0.18048  0.22082  0.35542  1.0000
  C   C319      1.0  0.04029  0.28026  0.38836  1.0000
  C   C320      1.0  0.38371  0.04776  0.47974  1.0000
  H   H243      1.0  0.39720  0.13079  0.47245  1.0000
  H   H244      1.0  0.02964  0.13177  0.29188  1.0000
  C   C321      1.0  0.03306  0.43383  0.44161  1.0000
  H   H245      1.0  0.15720  0.24490  0.40139  1.0000
  C   C322      1.0  0.05737  0.11762  0.48162  1.0000
  C   C323      1.0  0.05133  0.23983  0.32434  1.0000
  C   C324      1.0  0.05803  0.15871  0.33338  1.0000
  C   C325      1.0  0.16009  0.44505  0.24737  1.0000
  H   H246      1.0  0.18531  0.43581  0.31723  1.0000
  C   C326      1.0  0.11477  0.41977  0.27869  1.0000
  P   P10       1.0  0.15702  0.43878  0.27688  1.0000
  C   C327      1.0  0.27700  0.99951  0.33401  1.0000
  H   H247      1.0  0.36870  0.03117  0.45106  1.0000
  C   C328      1.0  0.28058  0.13470  0.47437  1.0000
  C   C329      1.0  0.05261  0.19618  0.39751  1.0000
  H   H248      1.0  0.01497  0.20692  0.35283  1.0000
  C   C330      1.0  0.22513  0.28165  0.27641  1.0000
  C   C331      1.0  0.32706  0.04063  0.46367  1.0000
  H   H249      1.0  0.09366  0.39109  0.40742  1.0000
  H   H250      1.0  0.00042  0.21051  0.43334  1.0000
  H   H251      1.0  0.06719  0.19201  0.38753  1.0000
  C   C332      1.0  0.40093  0.01858  0.45678  1.0000
  H   H252      1.0  0.03798  0.10828  0.34061  1.0000
  C   C333      1.0  0.19403  0.46938  0.32577  1.0000
  C   C334      1.0  0.07958  0.12785  0.31845  1.0000
  H   H253      1.0  0.00544  0.19915  0.27756  1.0000
  C   C335      1.0  0.99951  0.16697  0.29312  1.0000
  H   H254      1.0  0.09443  0.35026  0.41477  1.0000
  H   H255      1.0  0.00237  0.47955  0.40732  1.0000
  H   H256      1.0  0.30310  0.02031  0.44618  1.0000
  C   C336      1.0  0.24503  0.07693  0.47744  1.0000
  H   H257      1.0  0.02391  0.15549  0.36412  1.0000
  C   C337      1.0  0.09280  0.41781  0.28626  1.0000
  H   H258      1.0  0.33681  0.04280  0.44871  1.0000
  C   C338      1.0  0.37968  0.01981  0.24237  1.0000
  C   C339      1.0  0.03733  0.23237  0.34147  1.0000
  P   P11       1.0  0.01604  0.17191  0.31803  1.0000
  C   C340      1.0  0.09652  0.45251  0.30644  1.0000
  H   H259      1.0  0.01123  0.28781  0.29029  1.0000
  C   C341      1.0  0.17390  0.01847  0.43241  1.0000
  C   C342      1.0  0.02673  0.47284  0.43300  1.0000
  C   C343      1.0  0.34278  0.13144  0.45445  1.0000
  H   H260      1.0  0.05836  0.41183  0.40925  1.0000
  H   H261      1.0  0.01341  0.33368  0.37426  1.0000
  H   H262      1.0  0.26212  0.02282  0.28432  1.0000
  H   H263      1.0  0.22345  0.05488  0.42942  1.0000
  H   H264      1.0  0.18769  0.34987  0.29134  1.0000
  H   H265      1.0  0.05770  0.14881  0.46389  1.0000
  C   C344      1.0  0.16727  0.37676  0.30383  1.0000
  P   P12       1.0  0.02392  0.25298  0.42252  1.0000
  C   C345      1.0  0.18364  0.40141  0.26757  1.0000
  C   C346      1.0  0.04686  0.26367  0.43894  1.0000
  C   C347      1.0  0.04703  0.28631  0.44500  1.0000
  C   C348      1.0  0.06454  0.29491  0.45787  1.0000
  H   H266      1.0  0.17639  0.00064  0.43056  1.0000
  C   C349      1.0  0.07894  0.35954  0.41653  1.0000
  C   C350      1.0  0.06424  0.24965  0.44635  1.0000
  C   C351      1.0  0.05836  0.39428  0.41363  1.0000
  H   H267      1.0  0.13604  0.03397  0.46788  1.0000
  H   H268      1.0  0.27657  0.01885  0.47802  1.0000
  C   C352      1.0  0.06227  0.12305  0.30351  1.0000
  H   H269      1.0  0.05529  0.28223  0.39825  1.0000
  H   H270      1.0  0.05830  0.23145  0.39544  1.0000
  C   C353      1.0  0.03931  0.29036  0.36732  1.0000
  C   C354      1.0  0.38091  0.13498  0.46578  1.0000
  H   H271      1.0  0.05681  0.17249  0.34505  1.0000
  H   H272      1.0  0.06470  0.31244  0.46236  1.0000
  C   C355      1.0  0.00332  0.26493  0.38254  1.0000
  C   C356      1.0  0.48703  0.43392  0.34656  1.0000
  H   H273      1.0  0.06449  0.23205  0.44233  1.0000
  H   H274      1.0  0.12815  0.46885  0.30435  1.0000
  C   C357      1.0  0.08370  0.43407  0.30032  1.0000
  C   C358      1.0  0.33291  0.05137  0.48384  1.0000
  C   C359      1.0  0.32732  0.02311  0.26747  1.0000
  H   H275      1.0  0.20303  0.46457  0.34075  1.0000
  C   C360      1.0  0.31049  0.05334  0.28848  1.0000
  C   C361      1.0  0.31007  0.06647  0.26924  1.0000
  H   H276      1.0  0.12040  0.06778  0.44960  1.0000
  C   C362      1.0  0.25732  0.13484  0.47286  1.0000
  H   H277      1.0  0.01935  0.03442  0.44364  1.0000
  H   H278      1.0  0.98938  0.25489  0.38807  1.0000
  C   C363      1.0  0.99884  0.06091  0.45682  1.0000
  C   C364      1.0  0.11485  0.36449  0.25188  1.0000
  H   H279      1.0  0.39990  0.00723  0.44267  1.0000
  C   C365      1.0  0.32731  0.03632  0.24805  1.0000
  H   H280      1.0  0.26132  0.03065  0.32512  1.0000
  C   C366      1.0  0.08192  0.28094  0.46488  1.0000
  H   H281      1.0  0.43473  0.00940  0.46488  1.0000
  C   C367      1.0  0.05911  0.34833  0.42156  1.0000
  H   H282      1.0  0.08096  0.43205  0.24392  1.0000
  H   H283      1.0  0.18996  0.46521  0.25142  1.0000
  H   H284      1.0  0.19746  0.14329  0.43647  1.0000
  H   H285      1.0  0.20255  0.37186  0.25938  1.0000
  C   C368      1.0  0.01812  0.04771  0.45589  1.0000
  H   H286      1.0  0.19811  0.02158  0.45878  1.0000
  C   C369      1.0  0.08172  0.25832  0.45919  1.0000
  C   C370      1.0  0.03598  0.05193  0.47039  1.0000
  H   H287      1.0  0.08699  0.08612  0.46480  1.0000
  C   C371      1.0  0.19337  0.09802  0.47081  1.0000
  H   H288      1.0  0.05034  0.10879  0.46749  1.0000
  H   H289      1.0  0.01050  0.17128  0.42635  1.0000
  C   C372      1.0  0.37483  0.09953  0.24391  1.0000
  C   C373      1.0  0.42060  0.01991  0.46917  1.0000
  H   H290      1.0  0.23864  0.28159  0.26429  1.0000
  C   C374      1.0  0.18589  0.14428  0.47057  1.0000
  C   C375      1.0  0.00223  0.27541  0.36168  1.0000
  C   C376      1.0  0.99662  0.27970  0.29729  1.0000
  C   C377      1.0  0.26733  0.07872  0.47067  1.0000
  H   H291      1.0  0.08625  0.46934  0.26057  1.0000
  H   H292      1.0  0.41204  0.01810  0.25801  1.0000
  C   C378      1.0  0.07853  0.38249  0.41245  1.0000
  C   C379      1.0  0.38725  0.08039  0.24910  1.0000
  H   H293      1.0  0.09521  0.24747  0.46461  1.0000
  C   C380      1.0  0.99423  0.38666  0.44115  1.0000
  H   H294      1.0  0.29037  0.12952  0.46006  1.0000
  C   C381      1.0  0.99941  0.25766  0.43970  1.0000
  H   H295      1.0  0.27868  0.98765  0.27027  1.0000
  P   P13       1.0  0.35997  0.06662  0.48790  1.0000
  H   H296      1.0  0.99827  0.14741  0.39523  1.0000
  C   C382      1.0  0.99724  0.24628  0.46014  1.0000
  C   C383      1.0  0.12122  0.04193  0.47465  1.0000
  H   H297      1.0  0.45297  0.00212  0.26213  1.0000
  C   C384      1.0  0.03842  0.38330  0.41942  1.0000
  H   H298      1.0  0.18247  0.16206  0.47044  1.0000
  H   H299      1.0  0.01480  0.39358  0.33719  1.0000
  H   H300      1.0  0.37037  0.98804  0.36942  1.0000
  H   H301      1.0  0.03130  0.39830  0.37458  1.0000
  C   C385      1.0  0.31850  0.05809  0.24913  1.0000
  H   H302      1.0  0.31578  0.10100  0.48643  1.0000
  C   C386      1.0  0.42218  0.03522  0.48666  1.0000
  C   C387      1.0  0.99730  0.07824  0.47242  1.0000
  C   C388      1.0  0.03474  0.06960  0.48581  1.0000
  P   P14       1.0  0.01212  0.39838  0.41966  1.0000
  C   C389      1.0  0.40307  0.01884  0.24228  1.0000
  H   H303      1.0  0.21456  0.21714  0.47905  1.0000
  C   C390      1.0  0.01339  0.39625  0.37310  1.0000
  H   H304      1.0  0.27963  0.08577  0.48188  1.0000
  H   H305      1.0  0.27741  0.00321  0.35179  1.0000
  C   C391      1.0  0.00406  0.39392  0.35180  1.0000
  H   H306      1.0  0.05030  0.46109  0.45757  1.0000
  C   C392      1.0  0.01515  0.08256  0.48690  1.0000
  C   C393      1.0  0.00607  0.44424  0.41321  1.0000
  C   C394      1.0  0.99292  0.39634  0.46255  1.0000
  H   H307      1.0  0.02368  0.35099  0.42623  1.0000
  C   C395      1.0  0.99971  0.39586  0.39219  1.0000
  H   H308      1.0  0.99387  0.43994  0.40055  1.0000
  C   C396      1.0  0.13506  0.36570  0.23980  1.0000
  H   H309      1.0  0.00237  0.41114  0.46662  1.0000
  H   H310      1.0  0.98851  0.13436  0.30435  1.0000
  Fe  Fe25      1.0  0.39493  0.13312  0.59385  1.0000
  S   S49       1.0  0.39056  0.15506  0.56349  1.0000
  S   S50       1.0  0.42920  0.11584  0.59572  1.0000
  Fe  Fe26      1.0  0.34498  0.13826  0.60654  1.0000
  S   S51       1.0  0.33819  0.16061  0.57720  1.0000
  S   S52       1.0  0.31733  0.12850  0.63122  1.0000
  Fe  Fe27      1.0  0.35884  0.13599  0.55716  1.0000
  S   S53       1.0  0.34327  0.12166  0.52503  1.0000
  Fe  Fe28      1.0  0.37058  0.17756  0.58652  1.0000
  S   S54       1.0  0.37598  0.21549  0.58429  1.0000
  S   S55       1.0  0.36392  0.11293  0.58634  1.0000
  S   S56       1.0  0.37655  0.15651  0.61716  1.0000
  Fe  Fe29      1.0  0.43547  0.35658  0.66258  1.0000
  S   S57       1.0  0.40763  0.34938  0.63810  1.0000
  S   S58       1.0  0.47367  0.35697  0.65892  1.0000
  Fe  Fe30      1.0  0.40282  0.36030  0.70306  1.0000
  S   S59       1.0  0.37316  0.35264  0.68148  1.0000
  C   C397      1.0  0.48538  0.17459  0.69857  1.0000
  Fe  Fe31      1.0  0.39445  0.32610  0.66468  1.0000
  S   S60       1.0  0.38312  0.28947  0.66169  1.0000
  Fe  Fe32      1.0  0.38844  0.37664  0.65667  1.0000
  S   S61       1.0  0.36446  0.40261  0.64149  1.0000
  S   S62       1.0  0.42313  0.33225  0.68829  1.0000
  S   S63       1.0  0.41719  0.38537  0.67898  1.0000
  Fe  Fe33      1.0  0.15827  0.03238  0.63101  1.0000
  S   S64       1.0  0.12907  0.05627  0.63141  1.0000
  C   C398      1.0  0.21133  0.04360  0.50872  1.0000
  Fe  Fe34      1.0  0.19255  0.07090  0.62122  1.0000
  S   S65       1.0  0.16526  0.09684  0.62190  1.0000
  S   S66       1.0  0.22676  0.07816  0.60526  1.0000
  Fe  Fe35      1.0  0.15167  0.07833  0.65223  1.0000
  S   S67       1.0  0.14568  0.09646  0.68576  1.0000
  Fe  Fe36      1.0  0.14537  0.07274  0.60103  1.0000
  S   S68       1.0  0.12995  0.07841  0.56602  1.0000
  S   S69       1.0  0.18049  0.05390  0.65264  1.0000
  S   S70       1.0  0.17290  0.04716  0.59970  1.0000
  H   H311      1.0  0.40738  0.45590  0.58099  1.0000
  C   C399      1.0  0.13753  0.13868  0.53380  1.0000
  C   C400      1.0  0.13799  0.12195  0.55054  1.0000
  C   C401      1.0  0.13237  0.09988  0.54527  1.0000
  C   C402      1.0  0.12704  0.09478  0.52288  1.0000
  C   C403      1.0  0.12699  0.11140  0.50608  1.0000
  H   H312      1.0  0.14146  0.15571  0.53826  1.0000
  H   H313      1.0  0.14206  0.12626  0.56764  1.0000
  H   H314      1.0  0.12273  0.07785  0.51849  1.0000
  C   C404      1.0  0.06819  0.06165  0.56966  1.0000
  H   H315      1.0  0.41817  0.27280  0.70491  1.0000
  C   C405      1.0  0.12620  0.09463  0.70848  1.0000
  C   C406      1.0  0.10581  0.08334  0.70673  1.0000
  H   H316      1.0  0.32173  0.99342  0.52077  1.0000
  H   H317      1.0  0.10162  0.07493  0.69129  1.0000
  C   C407      1.0  0.24021  0.02900  0.63619  1.0000
  C   C408      1.0  0.45820  0.26169  0.57618  1.0000
  C   C409      1.0  0.36512  0.43241  0.64252  1.0000
  C   C410      1.0  0.38436  0.44426  0.64850  1.0000
  C   C411      1.0  0.38436  0.46783  0.64801  1.0000
  C   C412      1.0  0.36507  0.47995  0.64198  1.0000
  C   C413      1.0  0.34569  0.46815  0.63647  1.0000
  C   C414      1.0  0.34583  0.44455  0.63649  1.0000
  H   H318      1.0  0.39932  0.43525  0.65322  1.0000
  H   H319      1.0  0.36123  0.47954  0.59369  1.0000
  S   S71       1.0  0.13146  0.15539  0.49088  1.0000
  H   H320      1.0  0.33084  0.43561  0.63184  1.0000
  C   C415      1.0  0.35290  0.10615  0.50139  1.0000
  C   C416      1.0  0.02890  0.05587  0.56207  1.0000
  H   H321      1.0  0.36374  0.39778  0.72271  1.0000
  H   H322      1.0  0.01237  0.05123  0.56783  1.0000
  H   H323      1.0  0.99974  0.41564  0.62142  1.0000
  C   C417      1.0  0.37848  0.23565  0.60618  1.0000
  C   C418      1.0  0.38559  0.25745  0.60090  1.0000
  C   C419      1.0  0.38726  0.27413  0.61757  1.0000
  C   C420      1.0  0.38156  0.26928  0.63977  1.0000
  C   C421      1.0  0.37465  0.24745  0.64507  1.0000
  C   C422      1.0  0.37320  0.23073  0.62845  1.0000
  H   H324      1.0  0.38968  0.26150  0.58374  1.0000
  H   H325      1.0  0.39269  0.29077  0.61320  1.0000
  H   H326      1.0  0.37030  0.24344  0.66217  1.0000
  H   H327      1.0  0.36762  0.21413  0.63278  1.0000
  C   C423      1.0  0.29131  0.11608  0.62387  1.0000
  C   C424      1.0  0.27672  0.10871  0.64086  1.0000
  C   C425      1.0  0.25641  0.09784  0.63561  1.0000
  C   C426      1.0  0.25043  0.09430  0.61325  1.0000
  C   C427      1.0  0.26473  0.10224  0.59637  1.0000
  C   C428      1.0  0.28508  0.11291  0.60155  1.0000
  H   H328      1.0  0.28133  0.11108  0.65820  1.0000
  H   H329      1.0  0.24568  0.09176  0.64884  1.0000
  H   H330      1.0  0.26001  0.10004  0.57912  1.0000
  H   H331      1.0  0.29607  0.11843  0.58827  1.0000
  C   C429      1.0  0.46639  0.12804  0.65195  1.0000
  C   C430      1.0  0.44843  0.12752  0.63662  1.0000
  C   C431      1.0  0.45152  0.11852  0.61524  1.0000
  C   C432      1.0  0.47293  0.11071  0.60919  1.0000
  C   C433      1.0  0.20030  0.12549  0.57941  1.0000
  H   H332      1.0  0.43211  0.13364  0.64153  1.0000
  C   C434      1.0  0.45334  0.41962  0.70907  1.0000
  H   H333      1.0  0.07561  0.16964  0.49508  1.0000
  H   H334      1.0  0.39087  0.47531  0.73233  1.0000
  C   C435      1.0  0.24627  0.01068  0.59359  1.0000
  C   C436      1.0  0.22368  0.01540  0.62694  1.0000
  C   C437      1.0  0.40894  0.19504  0.66080  1.0000
  C   C438      1.0  0.40404  0.04906  0.49181  1.0000
  H   H335      1.0  0.04431  0.05092  0.59437  1.0000
  H   H336      1.0  0.31604  0.06680  0.56857  1.0000
  H   H337      1.0  0.46046  0.17308  0.63166  1.0000
  H   H338      1.0  0.43397  0.18570  0.56628  1.0000
  H   H339      1.0  0.24757  0.04463  0.56288  1.0000
  C   C439      1.0  0.47246  0.19854  0.66836  1.0000
  H   H340      1.0  0.29526  0.20295  0.59582  1.0000
  C   C440      1.0  0.18649  0.20518  0.49816  1.0000
  C   C441      1.0  0.48765  0.11975  0.64608  1.0000
  C   C442      1.0  0.31674  0.05175  0.50106  1.0000
  H   H341      1.0  0.00962  0.35652  0.58186  1.0000
  C   C443      1.0  0.45319  0.18472  0.61987  1.0000
  C   C444      1.0  0.31053  0.23125  0.71656  1.0000
  H   H342      1.0  0.31970  0.06132  0.51609  1.0000
  P   P15       1.0  0.28811  0.03041  0.58682  1.0000
  C   C445      1.0  0.16840  0.04639  0.52718  1.0000
  H   H343      1.0  0.12234  0.01139  0.68734  1.0000
  H   H344      1.0  0.24054  0.07391  0.53514  1.0000
  H   H345      1.0  0.29827  0.07070  0.61216  1.0000
  C   C446      1.0  0.19500  0.17776  0.52673  1.0000
  H   H346      1.0  0.46369  0.13462  0.66861  1.0000
  H   H347      1.0  0.08495  0.15007  0.53040  1.0000
  C   C447      1.0  0.41458  0.44433  0.59290  1.0000
  H   H348      1.0  0.21649  0.08825  0.73199  1.0000
  C   C448      1.0  0.34670  0.02897  0.62266  1.0000
  P   P16       1.0  0.46776  0.44226  0.63637  1.0000
  H   H349      1.0  0.33070  0.47718  0.63187  1.0000
  H   H350      1.0  0.02495  0.38645  0.60605  1.0000
  H   H351      1.0  0.18443  0.09340  0.57612  1.0000
  H   H352      1.0  0.47552  0.10372  0.59269  1.0000
  C   C449      1.0  0.26118  0.05538  0.55793  1.0000
  C   C450      1.0  0.32496  0.32743  0.71479  1.0000
  H   H353      1.0  0.28676  0.15316  0.52777  1.0000
  C   C451      1.0  0.18197  0.13188  0.48994  1.0000
  C   C452      1.0  0.32981  0.06527  0.62829  1.0000
  H   H354      1.0  0.17601  0.14016  0.50488  1.0000
  C   C453      1.0  0.41368  0.40867  0.61181  1.0000
  C   C454      1.0  0.46852  0.26845  0.59601  1.0000
  C   C455      1.0  0.31346  0.99099  0.53674  1.0000
  H   H355      1.0  0.22659  0.14244  0.48950  1.0000
  C   C456      1.0  0.28243  0.05310  0.56764  1.0000
  C   C457      1.0  0.31801  0.34051  0.69667  1.0000
  S   S72       1.0  0.15880  0.99485  0.63949  1.0000
  C   C458      1.0  0.38056  0.10217  0.49513  1.0000
  C   C459      1.0  0.18520  0.10881  0.48999  1.0000
  H   H356      1.0  0.44178  0.46586  0.60120  1.0000
  H   H357      1.0  0.46038  0.28059  0.60677  1.0000
  C   C460      1.0  0.36347  0.05857  0.51810  1.0000
  H   H358      1.0  0.19973  0.08615  0.53865  1.0000
  C   C461      1.0  0.36020  0.03565  0.52324  1.0000
  H   H359      1.0  0.22374  0.11409  0.52004  1.0000
  C   C462      1.0  0.44289  0.43530  0.62071  1.0000
  H   H360      1.0  0.43851  0.48160  0.64074  1.0000
  C   C463      1.0  0.37143  0.07222  0.53576  1.0000
  C   C464      1.0  0.37547  0.06336  0.55708  1.0000
  C   C465      1.0  0.37115  0.04105  0.56170  1.0000
  H   H361      1.0  0.24014  0.08324  0.49369  1.0000
  H   H362      1.0  0.44115  0.46188  0.67341  1.0000
  C   C466      1.0  0.09041  0.08366  0.72473  1.0000
  H   H363      1.0  0.09856  0.02366  0.72424  1.0000
  C   C467      1.0  0.31608  0.25378  0.71911  1.0000
  H   H364      1.0  0.37537  0.08952  0.53401  1.0000
  H   H365      1.0  0.38251  0.07381  0.57005  1.0000
  H   H366      1.0  0.37425  0.03449  0.57831  1.0000
  C   C468      1.0  0.41919  0.22237  0.68887  1.0000
  H   H367      1.0  0.15957  0.06510  0.49786  1.0000
  H   H368      1.0  0.32874  0.30393  0.65441  1.0000
  C   C469      1.0  0.46880  0.24620  0.56221  1.0000
  H   H369      1.0  0.40565  0.39274  0.61463  1.0000
  H   H370      1.0  0.26366  0.14353  0.57168  1.0000
  H   H371      1.0  0.47356  0.41490  0.59540  1.0000
  C   C470      1.0  0.43712  0.22076  0.61096  1.0000
  H   H372      1.0  0.21363  0.99601  0.59848  1.0000
  C   C471      1.0  0.08302  0.06290  0.49237  1.0000
  H   H373      1.0  0.08222  0.06157  0.58120  1.0000
  C   C472      1.0  0.29503  0.08520  0.54619  1.0000
  H   H374      1.0  0.11431  0.99158  0.61851  1.0000
  C   C473      1.0  0.46697  0.40670  0.69517  1.0000
  H   H375      1.0  0.25094  0.20679  0.53950  1.0000
  H   H376      1.0  0.18174  0.02732  0.55465  1.0000
  H   H377      1.0  0.33018  0.08181  0.63571  1.0000
  H   H378      1.0  0.37760  0.41906  0.69012  1.0000
  H   H379      1.0  0.35544  0.02397  0.51027  1.0000
  C   C474      1.0  0.45550  0.48734  0.63841  1.0000
  H   H380      1.0  0.36132  0.05529  0.64251  1.0000
  H   H381      1.0  0.39133  0.45779  0.69516  1.0000
  C   C475      1.0  0.17946  0.19100  0.51532  1.0000
  C   C476      1.0  0.99307  0.40261  0.61076  1.0000
  C   C477      1.0  0.13114  0.10563  0.72876  1.0000
  C   C478      1.0  0.46866  0.18783  0.68894  1.0000
  H   H382      1.0  0.36085  0.00959  0.54808  1.0000
  H   H383      1.0  0.36020  0.01731  0.62586  1.0000
  C   C479      1.0  0.46751  0.29035  0.65874  1.0000
  H   H384      1.0  0.15181  0.04760  0.53447  1.0000
  H   H385      1.0  0.16363  0.01158  0.68791  1.0000
  C   C480      1.0  0.48734  0.05638  0.61966  1.0000
  H   H386      1.0  0.19398  0.12836  0.59616  1.0000
  C   C481      1.0  0.19455  0.05557  0.49742  1.0000
  H   H387      1.0  0.44220  0.46352  0.53907  1.0000
  C   C482      1.0  0.36904  0.41494  0.72484  1.0000
  C   C483      1.0  0.44666  0.47739  0.54982  1.0000
  H   H388      1.0  0.22790  0.04184  0.50168  1.0000
  C   C484      1.0  0.33369  0.29711  0.68942  1.0000
  C   C485      1.0  0.40434  0.42373  0.59662  1.0000
  C   C486      1.0  0.03223  0.06211  0.53973  1.0000
  H   H389      1.0  0.27631  0.22512  0.56630  1.0000
  H   H390      1.0  0.34054  0.28067  0.68616  1.0000
  C   C487      1.0  0.44849  0.17733  0.59817  1.0000
  H   H391      1.0  0.33459  0.46675  0.71415  1.0000
  C   C488      1.0  0.17291  0.05639  0.50654  1.0000
  H   H392      1.0  0.46077  0.24094  0.54685  1.0000
  C   C489      1.0  0.30725  0.00946  0.54968  1.0000
  H   H393      1.0  0.45278  0.18933  0.69747  1.0000
  H   H394      1.0  0.43162  0.23728  0.61571  1.0000
  C   C490      1.0  0.34733  0.05031  0.63212  1.0000
  H   H395      1.0  0.31433  0.34232  0.66082  1.0000
  C   C491      1.0  0.37708  0.42689  0.70649  1.0000
  C   C492      1.0  0.13184  0.13360  0.51146  1.0000
  H   H396      1.0  0.30916  0.14136  0.49538  1.0000
  C   C493      1.0  0.38333  0.20378  0.69101  1.0000
  C   C494      1.0  0.22670  0.00626  0.60565  1.0000
  C   C495      1.0  0.43821  0.19163  0.58288  1.0000
  C   C496      1.0  0.27397  0.08708  0.53629  1.0000
  C   C497      1.0  0.44561  0.28329  0.65497  1.0000
  C   C498      1.0  0.43255  0.21330  0.58928  1.0000
  C   C499      1.0  0.41938  0.29703  0.73150  1.0000
  H   H397      1.0  0.24809  0.00378  0.57696  1.0000
  C   C500      1.0  0.44776  0.20663  0.62639  1.0000
  H   H398      1.0  0.21965  0.02437  0.53814  1.0000
  C   C501      1.0  0.26311  0.02421  0.60283  1.0000
  C   C502      1.0  0.07244  0.11829  0.51922  1.0000
  H   H399      1.0  0.07732  0.11016  0.53458  1.0000
  C   C503      1.0  0.29624  0.00650  0.57023  1.0000
  C   C504      1.0  0.25984  0.03341  0.62423  1.0000
  H   H400      1.0  0.21751  0.15674  0.57802  1.0000
  H   H401      1.0  0.43355  0.44947  0.71184  1.0000
  C   C505      1.0  0.31176  0.05900  0.61487  1.0000
  H   H402      1.0  0.44194  0.26838  0.57171  1.0000
  H   H403      1.0  0.43980  0.40247  0.63563  1.0000
  H   H404      1.0  0.32855  0.00610  0.60202  1.0000
  C   C506      1.0  0.25707  0.07212  0.54214  1.0000
  C   C507      1.0  0.20912  0.20617  0.49239  1.0000
  H   H405      1.0  0.01809  0.06207  0.52848  1.0000
  H   H406      1.0  0.42373  0.22408  0.57769  1.0000
  C   C508      1.0  0.44071  0.26052  0.65405  1.0000
  P   P17       1.0  0.45079  0.21509  0.65527  1.0000
  H   H407      1.0  0.30800  0.09709  0.54209  1.0000
  C   C509      1.0  0.29942  0.06810  0.56150  1.0000
  C   C510      1.0  0.46742  0.47760  0.56053  1.0000
  H   H408      1.0  0.11736  0.01821  0.50147  1.0000
  H   H409      1.0  0.27067  0.10047  0.52457  1.0000
  H   H410      1.0  0.18896  0.16675  0.53973  1.0000
  C   C511      1.0  0.38478  0.44869  0.70936  1.0000
  H   H411      1.0  0.17726  0.08387  0.71966  1.0000
  C   C512      1.0  0.00726  0.38617  0.60212  1.0000
  H   H412      1.0  0.41246  0.18561  0.64573  1.0000
  H   H413      1.0  0.31126  0.02600  0.54370  1.0000
  H   H414      1.0  0.14676  0.11455  0.73035  1.0000
  H   H415      1.0  0.48380  0.06462  0.65463  1.0000
  C   C513      1.0  0.44883  0.44666  0.67922  1.0000
  C   C514      1.0  0.44434  0.43963  0.70112  1.0000
  H   H416      1.0  0.08341  0.03591  0.51661  1.0000
  C   C515      1.0  0.32697  0.31029  0.67131  1.0000
  H   H417      1.0  0.38904  0.41942  0.58794  1.0000
  C   C516      1.0  0.32403  0.21470  0.72606  1.0000
  H   H418      1.0  0.18132  0.09976  0.50507  1.0000
  C   C517      1.0  0.27821  0.14801  0.51265  1.0000
  H   H419      1.0  0.39334  0.10796  0.50654  1.0000
  C   C518      1.0  0.18530  0.03502  0.53862  1.0000
  C   C519      1.0  0.42437  0.21055  0.66923  1.0000
  H   H420      1.0  0.16182  0.18994  0.51949  1.0000
  H   H421      1.0  0.37655  0.17994  0.66488  1.0000
  C   C520      1.0  0.07155  0.06784  0.54738  1.0000
  H   H422      1.0  0.26185  0.47727  0.54004  1.0000
  H   H423      1.0  0.45220  0.16029  0.59335  1.0000
  C   C521      1.0  0.31116  0.03782  0.60492  1.0000
  C   C522      1.0  0.33234  0.30541  0.71135  1.0000
  C   C523      1.0  0.20670  0.03349  0.52933  1.0000
  H   H424      1.0  0.48228  0.16594  0.71419  1.0000
  C   C524      1.0  0.36356  0.02715  0.54474  1.0000
  C   C525      1.0  0.05362  0.06823  0.53221  1.0000
  H   H425      1.0  0.28191  0.47948  0.57636  1.0000
  H   H426      1.0  0.44925  0.41376  0.72575  1.0000
  C   C526      1.0  0.47967  0.25176  0.66071  1.0000
  C   C527      1.0  0.99862  0.36932  0.58848  1.0000
  H   H427      1.0  0.01389  0.09631  0.49862  1.0000
  C   C528      1.0  0.39870  0.21904  0.69967  1.0000
  C   C529      1.0  0.45768  0.24451  0.65670  1.0000
  H   H428      1.0  0.43100  0.23416  0.69579  1.0000
  H   H429      1.0  0.07446  0.07543  0.72288  1.0000
  C   C530      1.0  0.38850  0.19171  0.67167  1.0000
  C   C531      1.0  0.31900  0.33193  0.67493  1.0000
  C   C532      1.0  0.43395  0.45001  0.60468  1.0000
  C   C533      1.0  0.32867  0.02269  0.60914  1.0000
  H   H430      1.0  0.28853  0.16229  0.59869  1.0000
  C   C534      1.0  0.13125  0.99844  0.69639  1.0000
  H   H431      1.0  0.43235  0.29548  0.65276  1.0000
  C   C535      1.0  0.21774  0.17828  0.52072  1.0000
  C   C536      1.0  0.22469  0.19277  0.50360  1.0000
  P   P18       1.0  0.23775  0.15955  0.53358  1.0000
  C   C537      1.0  0.25521  0.17375  0.55370  1.0000
  C   C538      1.0  0.22245  0.13763  0.54756  1.0000
  C   C539      1.0  0.21741  0.11753  0.53659  1.0000
  C   C540      1.0  0.20371  0.10168  0.54694  1.0000
  C   C541      1.0  0.19499  0.10576  0.56818  1.0000
  H   H432      1.0  0.42360  0.25540  0.65128  1.0000
  C   C542      1.0  0.21394  0.14138  0.56916  1.0000
  C   C543      1.0  0.25891  0.19685  0.55232  1.0000
  C   C544      1.0  0.27327  0.20734  0.56752  1.0000
  C   C545      1.0  0.28393  0.19489  0.58420  1.0000
  C   C546      1.0  0.28019  0.17195  0.58576  1.0000
  C   C547      1.0  0.26603  0.16138  0.57049  1.0000
  C   C548      1.0  0.25477  0.14849  0.51113  1.0000
  C   C549      1.0  0.48452  0.27460  0.66169  1.0000
  C   C550      1.0  0.07673  0.14112  0.51697  1.0000
  C   C551      1.0  0.38425  0.45866  0.73055  1.0000
  C   C552      1.0  0.48684  0.34504  0.61560  1.0000
  H   H433      1.0  0.46982  0.05930  0.61597  1.0000
  H   H434      1.0  0.08821  0.07236  0.54201  1.0000
  C   C553      1.0  0.04686  0.05568  0.57704  1.0000
  H   H435      1.0  0.20833  0.01221  0.63610  1.0000
  H   H436      1.0  0.13724  0.01967  0.73862  1.0000
  H   H437      1.0  0.27202  0.04450  0.63157  1.0000
  C   C554      1.0  0.29104  0.14127  0.49424  1.0000
  H   H438      1.0  0.32487  0.33469  0.73136  1.0000
  C   C555      1.0  0.15459  0.99859  0.69673  1.0000
  C   C556      1.0  0.33545  0.25987  0.73085  1.0000
  H   H439      1.0  0.28464  0.04028  0.51265  1.0000
  H   H440      1.0  0.31963  0.19726  0.72412  1.0000
  C   C557      1.0  0.29671  0.03990  0.49913  1.0000
  H   H441      1.0  0.47128  0.30804  0.65944  1.0000
  H   H442      1.0  0.46932  0.34536  0.61115  1.0000
  H   H443      1.0  0.23752  0.03667  0.65240  1.0000
  C   C558      1.0  0.43285  0.41439  0.62386  1.0000
  H   H444      1.0  0.37734  0.26798  0.70696  1.0000
  H   H445      1.0  0.43758  0.03666  0.49605  1.0000
  H   H446      1.0  0.36734  0.20135  0.69916  1.0000
  H   H447      1.0  0.39939  0.47676  0.65245  1.0000
  C   C559      1.0  0.38545  0.27925  0.71855  1.0000
  C   C560      1.0  0.11069  0.03306  0.49354  1.0000
  C   C561      1.0  0.06280  0.10629  0.50149  1.0000
  H   H448      1.0  0.39471  0.22836  0.71468  1.0000
  H   H449      1.0  0.31256  0.35756  0.69939  1.0000
  C   C562      1.0  0.33520  0.48481  0.71508  1.0000
  P   P19       1.0  0.05832  0.07647  0.50342  1.0000
  C   C563      1.0  0.09150  0.04332  0.50222  1.0000
  C   C564      1.0  0.40865  0.28185  0.71740  1.0000
  C   C565      1.0  0.46261  0.43381  0.66510  1.0000
  H   H450      1.0  0.43729  0.29947  0.73023  1.0000
  H   H451      1.0  0.40609  0.06121  0.50504  1.0000
  P   P20       1.0  0.34273  0.28886  0.73440  1.0000
  C   C566      1.0  0.47147  0.41367  0.67330  1.0000
  C   C567      1.0  0.07147  0.15215  0.49707  1.0000
  H   H452      1.0  0.47339  0.39077  0.70099  1.0000
  H   H453      1.0  0.48139  0.40286  0.66273  1.0000
  H   H454      1.0  0.30523  0.26638  0.71193  1.0000
  H   H455      1.0  0.24212  0.19344  0.49865  1.0000
  C   C568      1.0  0.18317  0.07501  0.73435  1.0000
  H   H456      1.0  0.29568  0.22661  0.70727  1.0000
  C   C569      1.0  0.47310  0.47203  0.63532  1.0000
  C   C570      1.0  0.24452  0.14184  0.49110  1.0000
  H   H457      1.0  0.47905  0.46388  0.55811  1.0000
  C   C571      1.0  0.37278  0.29185  0.73382  1.0000
  C   C572      1.0  0.34305  0.22068  0.73824  1.0000
  H   H458      1.0  0.17433  0.21523  0.48923  1.0000
  H   H459      1.0  0.12276  0.10712  0.48905  1.0000
  Fe  Fe37      1.0  0.14445  0.32706  0.90630  1.0000
  S   S73       1.0  0.14630  0.29945  0.93194  1.0000
  S   S74       1.0  0.17708  0.33318  0.88694  1.0000
  Fe  Fe38      1.0  0.09411  0.33433  0.91417  1.0000
  S   S75       1.0  0.09376  0.30774  0.94054  1.0000
  S   S76       1.0  0.05940  0.35062  0.91124  1.0000
  Fe  Fe39      1.0  0.12563  0.32245  0.95352  1.0000
  C   C573      1.0  0.21285  0.37547  0.98670  1.0000
  Fe  Fe40      1.0  0.11419  0.28685  0.91682  1.0000
  S   S77       1.0  0.10117  0.25077  0.91516  1.0000
  S   S78       1.0  0.12520  0.35058  0.92872  1.0000
  S   S79       1.0  0.11324  0.31295  0.88973  1.0000
  Fe  Fe41      1.0  0.33628  0.42886  0.87163  1.0000
  S   S80       1.0  0.35520  0.39638  0.87510  1.0000
  S   S81       1.0  0.36041  0.45754  0.86321  1.0000
  Fe  Fe42      1.0  0.29060  0.40422  0.87813  1.0000
  S   S82       1.0  0.30711  0.37079  0.88109  1.0000
  S   S83       1.0  0.25297  0.40875  0.88441  1.0000
  Fe  Fe43      1.0  0.33186  0.38800  0.90374  1.0000
  S   S84       1.0  0.33977  0.38207  0.94099  1.0000
  Fe  Fe44      1.0  0.32885  0.38236  0.85207  1.0000
  S   S85       1.0  0.33302  0.36155  0.82005  1.0000
  S   S86       1.0  0.31471  0.42145  0.90149  1.0000
  S   S87       1.0  0.31061  0.41494  0.84777  1.0000
  Fe  Fe45      1.0  0.07590  0.10583  0.80382  1.0000
  S   S88       1.0  0.10583  0.10684  0.82665  1.0000
  S   S89       1.0  0.07470  0.09535  0.76672  1.0000
  Fe  Fe46      1.0  0.04339  0.12006  0.84216  1.0000
  S   S90       1.0  0.07132  0.12160  0.86734  1.0000
  S   S91       1.0  0.00958  0.13668  0.84959  1.0000
  Fe  Fe47      1.0  0.09107  0.13888  0.84056  1.0000
  S   S92       1.0  0.11131  0.17112  0.84423  1.0000
  Fe  Fe48      1.0  0.08367  0.08932  0.85166  1.0000
  S   S93       1.0  0.09592  0.06159  0.87528  1.0000
  S   S94       1.0  0.06273  0.13893  0.81590  1.0000
  S   S95       1.0  0.05416  0.08664  0.82827  1.0000
  C   C574      1.0  0.03329  0.29423  0.85372  1.0000
  C   C575      1.0  0.07227  0.20360  0.81639  1.0000
  H   H460      1.0  0.43143  0.40538  0.83061  1.0000
  C   C576      1.0  0.24939  0.40991  0.94514  1.0000
  C   C577      1.0  0.15202  0.26003  0.82684  1.0000
  H   H461      1.0  0.09168  0.26814  0.86411  1.0000
  H   H462      1.0  0.03249  0.29960  0.88938  1.0000
  C   C578      1.0  0.41405  0.43765  0.78704  1.0000
  P   P21       1.0  0.08513  0.27068  0.81535  1.0000
  H   H463      1.0  0.99125  0.43173  0.80658  1.0000
  H   H464      1.0  0.00447  0.40096  0.91986  1.0000
  C   C579      1.0  0.05901  0.09990  0.96116  1.0000
  C   C580      1.0  0.00569  0.21672  0.84278  1.0000
  C   C581      1.0  0.10359  0.02726  0.84502  1.0000
  C   C582      1.0  0.10548  0.03459  0.86709  1.0000
  C   C583      1.0  0.05256  0.29754  0.76131  1.0000
  H   H465      1.0  0.09562  0.03794  0.83284  1.0000
  H   H466      1.0  0.17548  0.28152  0.84378  1.0000
  C   C584      1.0  0.38343  0.36893  0.76172  1.0000
  C   C585      1.0  0.38921  0.37558  0.78354  1.0000
  C   C586      1.0  0.37368  0.37424  0.80130  1.0000
  C   C587      1.0  0.35214  0.36607  0.79755  1.0000
  C   C588      1.0  0.34624  0.35962  0.77565  1.0000
  C   C589      1.0  0.36166  0.36139  0.75777  1.0000
  H   H467      1.0  0.40599  0.38138  0.78682  1.0000
  H   H468      1.0  0.37862  0.37862  0.81810  1.0000
  H   H469      1.0  0.32971  0.35303  0.77257  1.0000
  C   C590      1.0  0.33000  0.29703  0.76064  1.0000
  C   C591      1.0  0.34609  0.33726  0.95331  1.0000
  C   C592      1.0  0.34310  0.35941  0.96017  1.0000
  H   H470      1.0  0.36695  0.43423  0.81917  1.0000
  H   H471      1.0  0.34602  0.33327  0.93566  1.0000
  C   C593      1.0  0.36838  0.42485  0.74602  1.0000
  C   C594      1.0  0.10441  0.22895  0.89511  1.0000
  C   C595      1.0  0.11777  0.23114  0.87599  1.0000
  C   C596      1.0  0.11962  0.21329  0.86065  1.0000
  C   C597      1.0  0.10810  0.19311  0.86407  1.0000
  C   C598      1.0  0.09476  0.19092  0.88320  1.0000
  C   C599      1.0  0.09303  0.20870  0.89863  1.0000
  H   H472      1.0  0.12690  0.24645  0.87316  1.0000
  H   H473      1.0  0.13021  0.21503  0.84608  1.0000
  H   H474      1.0  0.08612  0.17537  0.88629  1.0000
  H   H475      1.0  0.08301  0.20666  0.91355  1.0000
  H   H476      1.0  0.99406  0.09345  0.86712  1.0000
  C   C600      1.0  0.01666  0.35236  0.89396  1.0000
  C   C601      1.0  0.03955  0.34971  0.88900  1.0000
  C   C602      1.0  0.04598  0.34736  0.86660  1.0000
  C   C603      1.0  0.02973  0.34774  0.84944  1.0000
  H   H477      1.0  0.06933  0.28183  0.89585  1.0000
  H   H478      1.0  0.01147  0.35439  0.91119  1.0000
  H   H479      1.0  0.06350  0.34544  0.86245  1.0000
  C   C604      1.0  0.19838  0.35405  0.88832  1.0000
  C   C605      1.0  0.19433  0.37562  0.89648  1.0000
  C   C606      1.0  0.21130  0.39201  0.89554  1.0000
  C   C607      1.0  0.23265  0.38703  0.88682  1.0000
  C   C608      1.0  0.23691  0.36526  0.87941  1.0000
  C   C609      1.0  0.21983  0.34902  0.87994  1.0000
  H   H480      1.0  0.17796  0.37983  0.90292  1.0000
  H   H481      1.0  0.20776  0.40877  0.90129  1.0000
  H   H482      1.0  0.25316  0.36112  0.87259  1.0000
  H   H483      1.0  0.22321  0.33246  0.87353  1.0000
  C   C610      1.0  0.15845  0.27955  0.83788  1.0000
  C   C611      1.0  0.07947  0.36046  0.97677  1.0000
  C   C612      1.0  0.08055  0.24211  0.80699  1.0000
  H   H484      1.0  0.34969  0.44372  0.94427  1.0000
  C   C613      1.0  0.34872  0.24318  0.74069  1.0000
  H   H485      1.0  0.01455  0.04098  0.87438  1.0000
  H   H486      1.0  0.19516  0.00913  0.75687  1.0000
  C   C614      1.0  0.02964  0.07750  0.97773  1.0000
  C   C615      1.0  0.08308  0.21309  0.77858  1.0000
  C   C616      1.0  0.19833  0.05249  0.77238  1.0000
  C   C617      1.0  0.09394  0.40424  0.94685  1.0000
  H   H487      1.0  0.02689  0.16407  0.88589  1.0000
  H   H488      1.0  0.37422  0.31844  0.75834  1.0000
  C   C618      1.0  0.11638  0.40650  0.95353  1.0000
  C   C619      1.0  0.13354  0.40692  0.93758  1.0000
  C   C620      1.0  0.12848  0.40487  0.91484  1.0000
  C   C621      1.0  0.10630  0.40212  0.90808  1.0000
  C   C622      1.0  0.08910  0.40179  0.92397  1.0000
  H   H489      1.0  0.45816  0.47799  0.93581  1.0000
  C   C623      1.0  0.99246  0.27666  0.79666  1.0000
  C   C624      1.0  0.11406  0.27433  0.82344  1.0000
  C   C625      1.0  0.32780  0.45240  0.77493  1.0000
  H   H490      1.0  0.22998  0.06841  0.76593  1.0000
  H   H491      1.0  0.03802  0.29355  0.75127  1.0000
  H   H492      1.0  0.35334  0.20786  0.74586  1.0000
  H   H493      1.0  0.35702  0.35631  0.74107  1.0000
  C   C626      1.0  0.12422  0.02606  0.74948  1.0000
  C   C627      1.0  0.00879  0.15587  0.78946  1.0000
  H   H494      1.0  0.00772  0.13803  0.79243  1.0000
  C   C628      1.0  0.40683  0.31007  0.74629  1.0000
  H   H495      1.0  0.41084  0.44723  0.86396  1.0000
  H   H496      1.0  0.15080  0.40852  0.94285  1.0000
  H   H497      1.0  0.14179  0.40483  0.90250  1.0000
  H   H498      1.0  0.10240  0.39987  0.89051  1.0000
  H   H499      1.0  0.07216  0.39940  0.91821  1.0000
  H   H500      1.0  0.09538  0.36227  0.96837  1.0000
  H   H501      1.0  0.29221  0.44668  0.77444  1.0000
  C   C629      1.0  0.18561  0.99669  0.76579  1.0000
  H   H502      1.0  0.01987  0.25523  0.88220  1.0000
  C   C630      1.0  0.11193  0.00615  0.83873  1.0000
  C   C631      1.0  0.00681  0.35003  0.85441  1.0000
  H   H503      1.0  0.01238  0.07211  0.97839  1.0000
  H   H504      1.0  0.07734  0.04959  0.78773  1.0000
  H   H505      1.0  0.05022  0.22792  0.88889  1.0000
  H   H506      1.0  0.01711  0.30184  0.85086  1.0000
  C   C632      1.0  0.09534  0.09469  0.74499  1.0000
  C   C633      1.0  0.26480  0.39829  0.95848  1.0000
  C   C634      1.0  0.27036  0.34898  0.95737  1.0000
  C   C635      1.0  0.28601  0.35225  0.94018  1.0000
  C   C636      1.0  0.29574  0.33388  0.92947  1.0000
  C   C637      1.0  0.28994  0.31220  0.93578  1.0000
  C   C638      1.0  0.06449  0.37842  0.97824  1.0000
  H   H507      1.0  0.11067  0.00113  0.82150  1.0000
  C   C639      1.0  0.45040  0.48645  0.87475  1.0000
  C   C640      1.0  0.12069  0.29387  0.83459  1.0000
  H   H508      1.0  0.08704  0.20793  0.76165  1.0000
  C   C641      1.0  0.29153  0.42833  0.95341  1.0000
  C   C642      1.0  0.28601  0.40753  0.96237  1.0000
  C   C643      1.0  0.42746  0.48353  0.95431  1.0000
  C   C644      1.0  0.06488  0.31678  0.75672  1.0000
  C   C645      1.0  0.39847  0.41949  0.82717  1.0000
  H   H509      1.0  0.36245  0.41515  0.76015  1.0000
  H   H510      1.0  0.09111  0.24742  0.77266  1.0000
  H   H511      1.0  0.36338  0.24759  0.75036  1.0000
  H   H512      1.0  0.33010  0.44545  0.75840  1.0000
  H   H513      1.0  0.38950  0.45440  0.94295  1.0000
  H   H514      1.0  0.06476  0.11187  0.94885  1.0000
  C   C646      1.0  0.07660  0.19717  0.79434  1.0000
  H   H515      1.0  0.23082  0.48475  0.78081  1.0000
  H   H516      1.0  0.29080  0.36886  0.93494  1.0000
  H   H517      1.0  0.30800  0.33648  0.91639  1.0000
  H   H518      1.0  0.29765  0.29805  0.92748  1.0000
  H   H519      1.0  0.04754  0.09484  0.90790  1.0000
  H   H520      1.0  0.03189  0.15252  0.76201  1.0000
  H   H521      1.0  0.04698  0.06633  0.87824  1.0000
  H   H522      1.0  0.28094  0.31768  0.78145  1.0000
  C   C647      1.0  0.25500  0.43070  0.93616  1.0000
  C   C648      1.0  0.07439  0.22595  0.82280  1.0000
  C   C649      1.0  0.02249  0.16406  0.77242  1.0000
  H   H523      1.0  0.05249  0.23148  0.93789  1.0000
  H   H524      1.0  0.16521  0.28153  0.98511  1.0000
  H   H525      1.0  0.13081  0.98795  0.88914  1.0000
  C   C650      1.0  0.02559  0.13297  0.93351  1.0000
  H   H526      1.0  0.22905  0.35211  0.93712  1.0000
  H   H527      1.0  0.26955  0.29202  0.95745  1.0000
  H   H528      1.0  0.06825  0.19096  0.82870  1.0000
  C   C651      1.0  0.31045  0.31124  0.80096  1.0000
  H   H529      1.0  0.45072  0.42689  0.93699  1.0000
  C   C652      1.0  0.34603  0.46040  0.78737  1.0000
  C   C653      1.0  0.01491  0.08619  0.92118  1.0000
  C   C654      1.0  0.16652  0.00262  0.77819  1.0000
  C   C655      1.0  0.03309  0.08406  0.90640  1.0000
  C   C656      1.0  0.02252  0.13890  0.91102  1.0000
  C   C657      1.0  0.18108  0.36094  0.96617  1.0000
  H   H530      1.0  0.98966  0.29467  0.89560  1.0000
  C   C658      1.0  0.16853  0.06133  0.74635  1.0000
  C   C659      1.0  0.43923  0.46932  0.86354  1.0000
  H   H531      1.0  0.39640  0.46084  0.89969  1.0000
  C   C660      1.0  0.01102  0.28113  0.93313  1.0000
  C   C661      1.0  0.99900  0.19380  0.80030  1.0000
  H   H532      1.0  0.07195  0.23042  0.84019  1.0000
  C   C662      1.0  0.30261  0.46199  0.80531  1.0000
  C   C663      1.0  0.27601  0.43994  0.94032  1.0000
  H   H533      1.0  0.10453  0.31241  0.79705  1.0000
  C   C664      1.0  0.30761  0.30417  0.76116  1.0000
  H   H534      1.0  0.03932  0.28906  0.81896  1.0000
  C   C665      1.0  0.34216  0.46981  0.80851  1.0000
  H   H535      1.0  0.11656  0.02555  0.90022  1.0000
  H   H536      1.0  0.99235  0.24897  0.85228  1.0000
  C   C666      1.0  0.03837  0.17534  0.91823  1.0000
  C   C667      1.0  0.06743  0.27779  0.83891  1.0000
  H   H537      1.0  0.03613  0.14475  0.96608  1.0000
  C   C668      1.0  0.03346  0.28492  0.93846  1.0000
  H   H538      1.0  0.09316  0.33690  0.76614  1.0000
  H   H539      1.0  0.30808  0.43504  0.95605  1.0000
  C   C669      1.0  0.33775  0.47681  0.93647  1.0000
  C   C670      1.0  0.17611  0.04970  0.76534  1.0000
  C   C671      1.0  0.14283  0.29650  0.84163  1.0000
  P   P22       1.0  0.15795  0.03145  0.78110  1.0000
  C   C672      1.0  0.12945  0.03315  0.77123  1.0000
  C   C673      1.0  0.99703  0.17063  0.80327  1.0000
  C   C674      1.0  0.22743  0.36796  0.96984  1.0000
  H   H540      1.0  0.44528  0.41727  0.97672  1.0000
  H   H541      1.0  0.16326  0.35783  0.96497  1.0000
  C   C675      1.0  0.02435  0.18709  0.76912  1.0000
  C   C676      1.0  0.99728  0.25525  0.80475  1.0000
  C   C677      1.0  0.11231  0.04142  0.78502  1.0000
  C   C678      1.0  0.09036  0.04262  0.77717  1.0000
  C   C679      1.0  0.12325  0.99877  0.87677  1.0000
  H   H542      1.0  0.19013  0.31252  0.97436  1.0000
  C   C680      1.0  0.09116  0.44375  0.98565  1.0000
  C   C681      1.0  0.15941  0.04085  0.80985  1.0000
  C   C682      1.0  0.16394  0.02600  0.82749  1.0000
  C   C683      1.0  0.16380  0.03357  0.84963  1.0000
  C   C684      1.0  0.15927  0.05596  0.85435  1.0000
  C   C685      1.0  0.15540  0.07096  0.83688  1.0000
  C   C686      1.0  0.15559  0.06350  0.81470  1.0000
  C   C687      1.0  0.08525  0.23545  0.78490  1.0000
  H   H543      1.0  0.07558  0.17972  0.78966  1.0000
  C   C688      1.0  0.43153  0.41512  0.96521  1.0000
  H   H544      1.0  0.10867  0.30697  0.83814  1.0000
  C   C689      1.0  0.03996  0.43913  0.95847  1.0000
  C   C690      1.0  0.36135  0.48723  0.86526  1.0000
  H   H545      1.0  0.24333  0.43921  0.92520  1.0000
  H   H546      1.0  0.44521  0.46351  0.84742  1.0000
  H   H547      1.0  0.42027  0.44449  0.77145  1.0000
  C   C691      1.0  0.38361  0.30766  0.74729  1.0000
  H   H548      1.0  0.11576  0.04733  0.80170  1.0000
  C   C692      1.0  0.03627  0.09427  0.96272  1.0000
  C   C693      1.0  0.34360  0.36418  0.98324  1.0000
  H   H549      1.0  0.37767  0.39726  0.96222  1.0000
  H   H550      1.0  0.41997  0.42139  0.90968  1.0000
  C   C694      1.0  0.40506  0.33119  0.98662  1.0000
  H   H551      1.0  0.16651  0.02187  0.86320  1.0000
  H   H552      1.0  0.15832  0.06161  0.87156  1.0000
  H   H553      1.0  0.15176  0.08830  0.84060  1.0000
  H   H554      1.0  0.15204  0.07526  0.80137  1.0000
  H   H555      1.0  0.28596  0.46209  0.81249  1.0000
  H   H556      1.0  0.41497  0.32265  0.75646  1.0000
  C   C695      1.0  0.04190  0.29291  0.87540  1.0000
  C   C696      1.0  0.01274  0.20194  0.78306  1.0000
  H   H557      1.0  0.12009  0.11408  0.76231  1.0000
  H   H558      1.0  0.39691  0.36139  0.96961  1.0000
  C   C697      1.0  0.04604  0.28689  0.83554  1.0000
  C   C698      1.0  0.03432  0.14876  0.94850  1.0000
  C   C699      1.0  0.06273  0.28305  0.87902  1.0000
  P   P23       1.0  0.37427  0.45923  0.77662  1.0000
  H   H559      1.0  0.35597  0.47631  0.81821  1.0000
  H   H560      1.0  0.35886  0.28909  0.78116  1.0000
  C   C700      1.0  0.00498  0.23643  0.85547  1.0000
  H   H561      1.0  0.24288  0.48365  0.74105  1.0000
  C   C701      1.0  0.38409  0.43216  0.81378  1.0000
  H   H562      1.0  0.02292  0.18501  0.83848  1.0000
  C   C702      1.0  0.03755  0.22456  0.87636  1.0000
  H   H563      1.0  0.28045  0.45573  0.93272  1.0000
  C   C703      1.0  0.39684  0.40919  0.93440  1.0000
  C   C704      1.0  0.07540  0.27535  0.86090  1.0000
  H   H564      1.0  0.29767  0.30445  0.74603  1.0000
  C   C705      1.0  0.20530  0.07750  0.74132  1.0000
  H   H565      1.0  0.16714  0.00850  0.82452  1.0000
  H   H566      1.0  0.08584  0.32618  0.98570  1.0000
  C   C706      1.0  0.34952  0.32021  0.96934  1.0000
  H   H567      1.0  0.04951  0.45009  0.96912  1.0000
  H   H568      1.0  0.01311  0.22434  0.92921  1.0000
  H   H569      1.0  0.35188  0.30318  0.96380  1.0000
  C   C707      1.0  0.27419  0.30883  0.95272  1.0000
  H   H570      1.0  0.30331  0.31768  0.81637  1.0000
  H   H571      1.0  0.09149  0.45009  0.96866  1.0000
  C   C708      1.0  0.03808  0.20468  0.86417  1.0000
  C   C709      1.0  0.02209  0.20061  0.84761  1.0000
  C   C710      1.0  0.03289  0.06784  0.88960  1.0000
  H   H572      1.0  0.05108  0.19245  0.86727  1.0000
  C   C711      1.0  0.34198  0.29560  0.78081  1.0000
  H   H573      1.0  0.12534  0.24197  0.81141  1.0000
  H   H574      1.0  0.29842  0.39849  0.97203  1.0000
  H   H575      1.0  0.01436  0.25105  0.80916  1.0000
  C   C712      1.0  0.12994  0.25742  0.81957  1.0000
  C   C713      1.0  0.33235  0.30309  0.80080  1.0000
  C   C714      1.0  0.11601  0.10542  0.74697  1.0000
  P   P24       1.0  0.01621  0.10627  0.94366  1.0000
  H   H576      1.0  0.34201  0.30312  0.81614  1.0000
  H   H577      1.0  0.16407  0.24675  0.82422  1.0000
  C   C715      1.0  0.30617  0.45323  0.78391  1.0000
  C   C716      1.0  0.04831  0.26697  0.94009  1.0000
  C   C717      1.0  0.39189  0.44164  0.79375  1.0000
  H   H578      1.0  0.03828  0.38599  0.93797  1.0000
  H   H579      1.0  0.23321  0.40288  0.94123  1.0000
  C   C718      1.0  0.07764  0.28865  0.79214  1.0000
  C   C719      1.0  0.42293  0.48502  0.90481  1.0000
  C   C720      1.0  0.05891  0.28351  0.77890  1.0000
  C   C721      1.0  0.02071  0.24018  0.87230  1.0000
  C   C722      1.0  0.11515  0.02012  0.88301  1.0000
  C   C723      1.0  0.02059  0.44747  0.94827  1.0000
  H   H580      1.0  0.03497  0.34593  0.83220  1.0000
  C   C724      1.0  0.04078  0.24527  0.93651  1.0000
  H   H581      1.0  0.12071  0.40802  0.97105  1.0000
  P   P25       1.0  0.25740  0.37225  0.97158  1.0000
  H   H582      1.0  0.14789  0.31153  0.85042  1.0000
  H   H583      1.0  0.04805  0.18180  0.95233  1.0000
  H   H584      1.0  0.00563  0.28890  0.79480  1.0000
  C   C725      1.0  0.39359  0.40396  0.95696  1.0000
  C   C726      1.0  0.02906  0.15993  0.90340  1.0000
  C   C727      1.0  0.08361  0.32196  0.76968  1.0000
  C   C728      1.0  0.01837  0.24140  0.93118  1.0000
  C   C729      1.0  0.37685  0.46692  0.93982  1.0000
  C   C730      1.0  0.21840  0.35740  0.95085  1.0000
  C   C731      1.0  0.42053  0.41568  0.82045  1.0000
  C   C732      1.0  0.99669  0.05518  0.90240  1.0000
  H   H585      1.0  0.44525  0.42136  0.79484  1.0000
  C   C733      1.0  0.04661  0.41691  0.95487  1.0000
  H   H586      1.0  0.25209  0.32436  0.97642  1.0000
  H   H587      1.0  0.06570  0.26972  0.94426  1.0000
  H   H588      1.0  0.38337  0.40659  0.92251  1.0000
  H   H589      1.0  0.03941  0.30180  0.94127  1.0000
  C   C734      1.0  0.01467  0.05346  0.88752  1.0000
  H   H590      1.0  0.20439  0.04395  0.78719  1.0000
  C   C735      1.0  0.32062  0.47029  0.81760  1.0000
  C   C736      1.0  0.43472  0.42057  0.94263  1.0000
  C   C737      1.0  0.41743  0.41750  0.92721  1.0000
  C   C738      1.0  0.08999  0.30797  0.78731  1.0000
  C   C739      1.0  0.26439  0.32715  0.96344  1.0000
  C   C740      1.0  0.00036  0.35230  0.87683  1.0000
  H   H591      1.0  0.04365  0.19153  0.91224  1.0000
  C   C741      1.0  0.04090  0.16981  0.94081  1.0000
  H   H592      1.0  0.08689  0.99342  0.78801  1.0000
  P   P26       1.0  0.07172  0.40561  0.96747  1.0000
  H   H593      1.0  0.39222  0.41226  0.84257  1.0000
  C   C742      1.0  0.42829  0.42469  0.80032  1.0000
  H   H594      1.0  0.09226  0.09385  0.97364  1.0000
  H   H595      1.0  0.32029  0.47211  0.93669  1.0000
  C   C743      1.0  0.00333  0.25936  0.92889  1.0000
  C   C744      1.0  0.10235  0.02804  0.74138  1.0000
  H   H596      1.0  0.18862  0.34505  0.93477  1.0000
  C   C745      1.0  0.99685  0.07137  0.91929  1.0000
  C   C746      1.0  0.41090  0.40669  0.97255  1.0000
  H   H597      1.0  0.06855  0.03817  0.74896  1.0000
  C   C747      1.0  0.03351  0.40320  0.94102  1.0000
  C   C748      1.0  0.07472  0.08956  0.97507  1.0000
  H   H598      1.0  0.39977  0.32075  0.97280  1.0000
  H   H599      1.0  0.01516  0.12732  0.89926  1.0000
  C   C749      1.0  0.01426  0.41161  0.93076  1.0000
  C   C750      1.0  0.40345  0.35441  0.98494  1.0000
  C   C751      1.0  0.08540  0.03615  0.75529  1.0000
  C   C752      1.0  0.19539  0.35364  0.94923  1.0000
  H   H600      1.0  0.15137  0.06026  0.74079  1.0000
  H   H601      1.0  0.04906  0.26874  0.78233  1.0000
  C   C753      1.0  0.21287  0.06631  0.76039  1.0000
  C   C754      1.0  0.37546  0.44700  0.74896  1.0000
  C   C755      1.0  0.41179  0.46786  0.89337  1.0000
  H   H602      1.0  0.99969  0.29525  0.93251  1.0000
  C   C756      1.0  0.29797  0.31146  0.78122  1.0000
  H   H603      1.0  0.31804  0.47682  0.83434  1.0000
  C   C757      1.0  0.35430  0.46088  0.94077  1.0000
  H   H604      1.0  0.01488  0.21966  0.78056  1.0000
  C   C758      1.0  0.42000  0.46000  0.87291  1.0000
  C   C759      1.0  0.98935  0.11163  0.95643  1.0000
  H   H605      1.0  0.40562  0.48198  0.80719  1.0000
  S   S96       1.0  0.40422  0.36984  0.74031  1.0000
  C   C760      1.0  0.18976  0.37208  0.98473  1.0000
  C   C761      1.0  0.00778  0.43374  0.93439  1.0000
  H   H606      1.0  0.03514  0.19339  0.75601  1.0000
  H   H607      1.0  0.01552  0.46463  0.95104  1.0000
  C   C762      1.0  0.41719  0.48173  0.97540  1.0000
  C   C763      1.0  0.07405  0.33990  0.98644  1.0000
  C   C764      1.0  0.44973  0.47648  0.95175  1.0000
  H   H608      1.0  0.99134  0.21521  0.89793  1.0000
  H   H609      1.0  0.12855  0.37222  0.98838  1.0000
  C   C765      1.0  0.12190  0.99172  0.85446  1.0000
  H   H610      1.0  0.47864  0.46221  0.96790  1.0000
  C   C766      1.0  0.46142  0.46752  0.96995  1.0000
  H   H611      1.0  0.13924  0.98991  0.79823  1.0000
  H   H612      1.0  0.37511  0.43380  0.98796  1.0000
  H   H613      1.0  0.31259  0.48682  0.74287  1.0000
  H   H614      1.0  0.05991  0.32772  0.74315  1.0000
  H   H615      1.0  0.99287  0.44024  0.92637  1.0000
  H   H616      1.0  0.34110  0.38116  0.98876  1.0000
  Fe  Fe49      1.0  0.08689  0.83079  0.08716  1.0000
  S   S97       1.0  0.08050  0.80319  0.06258  1.0000
  S   S98       1.0  0.05704  0.85354  0.09621  1.0000
  Fe  Fe50      1.0  0.13754  0.81996  0.08838  1.0000
  S   S99       1.0  0.13332  0.79142  0.06410  1.0000
  S   S100      1.0  0.17388  0.82170  0.10079  1.0000
  Fe  Fe51      1.0  0.11139  0.81518  0.04459  1.0000
  S   S101      1.0  0.11413  0.81521  0.00618  1.0000
  Fe  Fe52      1.0  0.10304  0.78199  0.08430  1.0000
  S   S102      1.0  0.08928  0.74784  0.09540  1.0000
  S   S103      1.0  0.11696  0.84412  0.06789  1.0000
  S   S104      1.0  0.10808  0.80925  0.10975  1.0000
  Fe  Fe53      1.0  0.08408  0.57827  0.16047  1.0000
  S   S105      1.0  0.05209  0.58451  0.17959  1.0000
  S   S106      1.0  0.09051  0.54067  0.15602  1.0000
  Fe  Fe54      1.0  0.09284  0.62911  0.15654  1.0000
  S   S107      1.0  0.06223  0.63783  0.17655  1.0000
  S   S108      1.0  0.11702  0.65590  0.14346  1.0000
  Fe  Fe55      1.0  0.07252  0.60926  0.19928  1.0000
  H   H617      1.0  0.21881  0.67215  0.20465  1.0000
  Fe  Fe56      1.0  0.04471  0.61217  0.15515  1.0000
  S   S109      1.0  0.01398  0.62253  0.13430  1.0000
  S   S110      1.0  0.10438  0.60232  0.18090  1.0000
  S   S111      1.0  0.07532  0.60421  0.13441  1.0000
  Fe  Fe57      1.0  0.28302  0.89770  0.12605  1.0000
  S   S112      1.0  0.30556  0.86879  0.13432  1.0000
  S   S113      1.0  0.24520  0.89860  0.11991  1.0000
  Fe  Fe58      1.0  0.32198  0.93207  0.12959  1.0000
  S   S114      1.0  0.34726  0.90528  0.13722  1.0000
  S   S115      1.0  0.32549  0.97016  0.13231  1.0000
  Fe  Fe59      1.0  0.32963  0.88525  0.11020  1.0000
  S   S116      1.0  0.34832  0.86241  0.08579  1.0000
  Fe  Fe60      1.0  0.32150  0.89082  0.16057  1.0000
  S   S117      1.0  0.32460  0.88402  0.19828  1.0000
  S   S118      1.0  0.30629  0.91316  0.10080  1.0000
  S   S119      1.0  0.29693  0.91854  0.15403  1.0000
  H   H618      1.0  0.24158  0.82293  0.03645  1.0000
  C   C767      1.0  0.10164  0.50285  0.09719  1.0000
  H   H619      1.0  0.15126  0.79521  0.13542  1.0000
  H   H620      1.0  0.37415  0.96449  0.12687  1.0000
  H   H621      1.0  0.18978  0.69905  0.22425  1.0000
  C   C768      1.0  0.34772  0.85800  0.00853  1.0000
  C   C769      1.0  0.35680  0.84080  0.02151  1.0000
  C   C770      1.0  0.35637  0.84223  0.04511  1.0000
  C   C771      1.0  0.34651  0.86061  0.05606  1.0000
  C   C772      1.0  0.33658  0.87737  0.04309  1.0000
  C   C773      1.0  0.33733  0.87611  0.01949  1.0000
  H   H622      1.0  0.36504  0.82689  0.01339  1.0000
  H   H623      1.0  0.36412  0.82919  0.05495  1.0000
  H   H624      1.0  0.32899  0.89163  0.05121  1.0000
  H   H625      1.0  0.33040  0.88956  0.00960  1.0000
  C   C774      1.0  0.36664  0.86651  0.20918  1.0000
  C   C775      1.0  0.34568  0.87375  0.21673  1.0000
  C   C776      1.0  0.41296  0.92604  0.12035  1.0000
  H   H626      1.0  0.37034  0.86668  0.19146  1.0000
  C   C777      1.0  0.12274  0.52621  0.22665  1.0000
  H   H627      1.0  0.01767  0.82430  0.16285  1.0000
  H   H628      1.0  0.05938  0.51037  0.13619  1.0000
  C   C778      1.0  0.14028  0.85222  0.14163  1.0000
  C   C779      1.0  0.36147  0.93841  0.07343  1.0000
  H   H629      1.0  0.03386  0.53270  0.19411  1.0000
  C   C780      1.0  0.19277  0.80765  0.16421  1.0000
  H   H630      1.0  0.11546  0.86427  0.00816  1.0000
  C   C781      1.0  0.40343  0.90654  0.05177  1.0000
  C   C782      1.0  0.09775  0.72228  0.10836  1.0000
  C   C783      1.0  0.12016  0.71564  0.11022  1.0000
  C   C784      1.0  0.12575  0.69527  0.12086  1.0000
  C   C785      1.0  0.10908  0.68119  0.12968  1.0000
  C   C786      1.0  0.08670  0.68768  0.12752  1.0000
  C   C787      1.0  0.08112  0.70801  0.11689  1.0000
  H   H631      1.0  0.13314  0.72593  0.10306  1.0000
  H   H632      1.0  0.14308  0.69021  0.12193  1.0000
  H   H633      1.0  0.07368  0.67691  0.13388  1.0000
  H   H634      1.0  0.06376  0.71269  0.11510  1.0000
  C   C788      1.0  0.19386  0.84351  0.10372  1.0000
  C   C789      1.0  0.21648  0.83792  0.10719  1.0000
  C   C790      1.0  0.23266  0.85457  0.11128  1.0000
  C   C791      1.0  0.22626  0.87702  0.11238  1.0000
  C   C792      1.0  0.20380  0.88266  0.10812  1.0000
  C   C793      1.0  0.18775  0.86606  0.10357  1.0000
  H   H635      1.0  0.22148  0.82056  0.10708  1.0000
  H   H636      1.0  0.24991  0.84998  0.11422  1.0000
  H   H637      1.0  0.19873  0.89999  0.10862  1.0000
  H   H638      1.0  0.17058  0.87071  0.10044  1.0000
  C   C794      1.0  0.03322  0.84825  0.11350  1.0000
  C   C795      1.0  0.03463  0.83520  0.13287  1.0000
  C   C796      1.0  0.01614  0.83365  0.14752  1.0000
  H   H639      1.0  0.41993  0.95835  0.04000  1.0000
  C   C797      1.0  0.01282  0.85913  0.10877  1.0000
  H   H640      1.0  0.05008  0.82668  0.13681  1.0000
  H   H641      1.0  0.01153  0.86947  0.09398  1.0000
  H   H642      1.0  0.23039  0.80369  0.99452  1.0000
  C   C798      1.0  0.11386  0.52250  0.15239  1.0000
  C   C799      1.0  0.13588  0.53019  0.15077  1.0000
  C   C800      1.0  0.12558  0.65488  0.20961  1.0000
  H   H643      1.0  0.13921  0.54786  0.15208  1.0000
  C   C801      1.0  0.01304  0.80610  0.07715  1.0000
  C   C802      1.0  0.02227  0.79309  0.06008  1.0000
  C   C803      1.0  0.02596  0.77031  0.06354  1.0000
  C   C804      1.0  0.02020  0.76049  0.08397  1.0000
  C   C805      1.0  0.01039  0.77337  0.10107  1.0000
  H   H644      1.0  0.99129  0.94274  0.22531  1.0000
  P   P27       1.0  0.00575  0.76154  0.12852  1.0000
  C   C806      1.0  0.02577  0.53601  0.08707  1.0000
  C   C807      1.0  0.00633  0.73151  0.12656  1.0000
  C   C808      1.0  0.02242  0.69555  0.13629  1.0000
  C   C809      1.0  0.02197  0.71877  0.13861  1.0000
  C   C810      1.0  0.11959  0.76038  0.18002  1.0000
  C   C811      1.0  0.02870  0.77124  0.14556  1.0000
  C   C812      1.0  0.02543  0.77982  0.16720  1.0000
  C   C813      1.0  0.04368  0.78734  0.17976  1.0000
  C   C814      1.0  0.06524  0.78653  0.17073  1.0000
  C   C815      1.0  0.06856  0.77814  0.14918  1.0000
  C   C816      1.0  0.05040  0.77052  0.13670  1.0000
  C   C817      1.0  0.40642  0.91357  0.10156  1.0000
  H   H645      1.0  0.02724  0.80079  0.04445  1.0000
  H   H646      1.0  0.03398  0.76039  0.05064  1.0000
  H   H647      1.0  0.29180  0.89896  0.22797  1.0000
  H   H648      1.0  0.25256  0.90938  0.22027  1.0000
  H   H649      1.0  0.03471  0.68569  0.14528  1.0000
  H   H650      1.0  0.03408  0.72662  0.14949  1.0000
  H   H651      1.0  0.11031  0.75070  0.19220  1.0000
  H   H652      1.0  0.00887  0.78154  0.17422  1.0000
  H   H653      1.0  0.04097  0.79422  0.19631  1.0000
  H   H654      1.0  0.07931  0.79257  0.18030  1.0000
  H   H655      1.0  0.08513  0.77763  0.14188  1.0000
  H   H656      1.0  0.05326  0.76421  0.11997  1.0000
  C   C818      1.0  0.19558  0.64967  0.22088  1.0000
  C   C819      1.0  0.13573  0.84698  0.21309  1.0000
  C   C820      1.0  0.39012  0.91151  0.03304  1.0000
  C   C821      1.0  0.04783  0.50535  0.10226  1.0000
  H   H657      1.0  0.45141  0.92281  0.09441  1.0000
  H   H658      1.0  0.16761  0.79976  0.21539  1.0000
  H   H659      1.0  0.22113  0.88234  0.99429  1.0000
  H   H660      1.0  0.09299  0.49320  0.15190  1.0000
  C   C822      1.0  0.17316  0.68655  0.19464  1.0000
  H   H661      1.0  0.36600  0.95050  0.16505  1.0000
  H   H662      1.0  0.24107  0.93318  0.08144  1.0000
  H   H663      1.0  0.12794  0.85843  0.20144  1.0000
  C   C823      1.0  0.22462  0.83245  0.16160  1.0000
  C   C824      1.0  0.17884  0.82580  0.16958  1.0000
  H   H664      1.0  0.17054  0.52105  0.14566  1.0000
  H   H665      1.0  0.06823  0.51182  0.20234  1.0000
  H   H666      1.0  0.17774  0.86148  0.17535  1.0000
  C   C825      1.0  0.03510  0.55227  0.22432  1.0000
  C   C826      1.0  0.26325  0.81037  0.06218  1.0000
  H   H667      1.0  0.22617  0.79708  0.15555  1.0000
  C   C827      1.0  0.16095  0.78696  0.00083  1.0000
  H   H668      1.0  0.19228  0.63158  0.12867  1.0000
  C   C828      1.0  0.18815  0.84725  0.17118  1.0000
  H   H669      1.0  0.41715  0.97078  0.21099  1.0000
  C   C829      1.0  0.13368  0.76482  0.14233  1.0000
  C   C830      1.0  0.12603  0.86514  0.12834  1.0000
  C   C831      1.0  0.28190  0.85314  0.06302  1.0000
  H   H670      1.0  0.39919  0.85385  0.21868  1.0000
  C   C832      1.0  0.26002  0.89683  0.04178  1.0000
  C   C833      1.0  0.38295  0.85920  0.22467  1.0000
  C   C834      1.0  0.10989  0.49942  0.15064  1.0000
  H   H671      1.0  0.25598  0.79384  0.06195  1.0000
  C   C835      1.0  0.28490  0.92868  0.04535  1.0000
  C   C836      1.0  0.10311  0.86556  0.13268  1.0000
  C   C837      1.0  0.12841  0.78122  0.18582  1.0000
  H   H672      1.0  0.11463  0.73643  0.15355  1.0000
  C   C838      1.0  0.29250  0.97387  0.22018  1.0000
  H   H673      1.0  0.27513  0.95355  0.06960  1.0000
  H   H674      1.0  0.23145  0.89727  0.06417  1.0000
  P   P28       1.0  0.25355  0.86993  0.02981  1.0000
  C   C839      1.0  0.99133  0.69745  0.11045  1.0000
  H   H675      1.0  0.30009  0.93724  0.04055  1.0000
  C   C840      1.0  0.21080  0.85905  0.04535  1.0000
  C   C841      1.0  0.29019  0.83648  0.07715  1.0000
  C   C842      1.0  0.32296  0.96367  0.19558  1.0000
  C   C843      1.0  0.14031  0.79382  0.16994  1.0000
  H   H676      1.0  0.18617  0.79093  0.16297  1.0000
  C   C844      1.0  0.15361  0.51493  0.14713  1.0000
  C   C845      1.0  0.99168  0.95462  0.19099  1.0000
  C   C846      1.0  0.21556  0.81102  0.16018  1.0000
  C   C847      1.0  0.43441  0.95479  0.05032  1.0000
  C   C848      1.0  0.14183  0.51375  0.22085  1.0000
  C   C849      1.0  0.11957  0.85909  0.99131  1.0000
  C   C850      1.0  0.27966  0.90812  0.03563  1.0000
  C   C851      1.0  0.25505  0.82694  0.04785  1.0000
  C   C852      1.0  0.02688  0.90801  0.13183  1.0000
  H   H677      1.0  0.30401  0.84013  0.08829  1.0000
  H   H678      1.0  0.25693  0.89985  0.99102  1.0000
  C   C853      1.0  0.04224  0.89597  0.14463  1.0000
  H   H679      1.0  0.15782  0.85149  0.13739  1.0000
  H   H680      1.0  0.35804  0.92066  0.07234  1.0000
  C   C854      1.0  0.07433  0.52834  0.23409  1.0000
  C   C855      1.0  0.00857  0.91832  0.14210  1.0000
  C   C856      1.0  0.03958  0.89456  0.16783  1.0000
  H   H681      1.0  0.13266  0.87438  0.11424  1.0000
  H   H682      1.0  0.38075  0.92694  0.03207  1.0000
  H   H683      1.0  0.17007  0.81471  0.02166  1.0000
  C   C857      1.0  0.14724  0.82797  0.20547  1.0000
  C   C858      1.0  0.26412  0.84855  0.04838  1.0000
  H   H684      1.0  0.10146  0.82994  0.17688  1.0000
  C   C859      1.0  0.38751  0.96917  0.07690  1.0000
  C   C860      1.0  0.04989  0.51724  0.12239  1.0000
  H   H685      1.0  0.12538  0.78757  0.20249  1.0000
  C   C861      1.0  0.00730  0.68496  0.12204  1.0000
  C   C862      1.0  0.10855  0.84003  0.16365  1.0000
  H   H686      1.0  0.39926  0.86464  0.00215  1.0000
  H   H687      1.0  0.29373  0.94350  0.20076  1.0000
  C   C863      1.0  0.02135  0.90498  0.17820  1.0000
  C   C864      1.0  0.16412  0.71465  0.16672  1.0000
  H   H688      1.0  0.17796  0.85071  0.05769  1.0000
  H   H689      1.0  0.32996  0.95229  0.18333  1.0000
  H   H690      1.0  0.13501  0.75895  0.12522  1.0000
  C   C865      1.0  0.16023  0.60288  0.16577  1.0000
  C   C866      1.0  0.17166  0.60777  0.14599  1.0000
  C   C867      1.0  0.18338  0.62781  0.14401  1.0000
  C   C868      1.0  0.18339  0.64313  0.16169  1.0000
  C   C869      1.0  0.17108  0.63877  0.18124  1.0000
  C   C870      1.0  0.16005  0.61826  0.18342  1.0000
  H   H691      1.0  0.40428  0.97557  0.07894  1.0000
  H   H692      1.0  0.27619  0.97032  0.22715  1.0000
  H   H693      1.0  0.01943  0.90370  0.19618  1.0000
  C   C871      1.0  0.41439  0.87156  0.03420  1.0000
  C   C872      1.0  0.44397  0.89779  0.20748  1.0000
  H   H694      1.0  0.40479  0.88704  0.16103  1.0000
  H   H695      1.0  0.28216  0.83481  0.00965  1.0000
  H   H696      1.0  0.03374  0.50634  0.06879  1.0000
  H   H697      1.0  0.99688  0.92751  0.13179  1.0000
  H   H698      1.0  0.06810  0.86109  0.99104  1.0000
  C   C873      1.0  0.15812  0.81414  0.22103  1.0000
  C   C874      1.0  0.04009  0.53832  0.12481  1.0000
  C   C875      1.0  0.22341  0.86744  0.02734  1.0000
  C   C876      1.0  0.15955  0.52388  0.20948  1.0000
  H   H699      1.0  0.10759  0.55915  0.22615  1.0000
  H   H700      1.0  0.02028  0.56190  0.22030  1.0000
  H   H701      1.0  0.15115  0.58732  0.16721  1.0000
  H   H702      1.0  0.17134  0.59606  0.13216  1.0000
  C   C877      1.0  0.45294  0.87697  0.20173  1.0000
  H   H703      1.0  0.17228  0.55447  0.19550  1.0000
  H   H704      1.0  0.15109  0.61432  0.19865  1.0000
  H   H705      1.0  0.21787  0.86727  0.16733  1.0000
  H   H706      1.0  0.24218  0.83516  0.15797  1.0000
  C   C878      1.0  0.99477  0.95658  0.21422  1.0000
  H   H707      1.0  0.00099  0.80684  0.11095  1.0000
  H   H708      1.0  0.02063  0.56421  0.10905  1.0000
  H   H709      1.0  0.41814  0.94327  0.11851  1.0000
  H   H710      1.0  0.28954  0.86949  0.06358  1.0000
  C   C879      1.0  0.39842  0.89178  0.10460  1.0000
  C   C880      1.0  0.17272  0.80646  0.00572  1.0000
  H   H711      1.0  0.19279  0.65844  0.15995  1.0000
  H   H712      1.0  0.21888  0.85374  0.06067  1.0000
  H   H713      1.0  0.17996  0.88082  0.99266  1.0000
  C   C881      1.0  0.21090  0.85058  0.16695  1.0000
  C   C882      1.0  0.02804  0.54774  0.10716  1.0000
  C   C883      1.0  0.38885  0.89649  0.01518  1.0000
  C   C884      1.0  0.12207  0.75227  0.15824  1.0000
  C   C885      1.0  0.27082  0.93790  0.06162  1.0000
  C   C886      1.0  0.13168  0.83976  0.15955  1.0000
  C   C887      1.0  0.30230  0.95879  0.20526  1.0000
  H   H714      1.0  0.02893  0.90885  0.11381  1.0000
  H   H715      1.0  0.28729  0.80233  0.08786  1.0000
  C   C888      1.0  0.03567  0.51494  0.08455  1.0000
  H   H716      1.0  0.05597  0.88748  0.13642  1.0000
  H   H717      1.0  0.05146  0.88511  0.17769  1.0000
  H   H718      1.0  0.01093  0.82391  0.07475  1.0000
  C   C889      1.0  0.00735  0.79635  0.09763  1.0000
  C   C890      1.0  0.12471  0.50501  0.09399  1.0000
  H   H719      1.0  0.04222  0.54755  0.14028  1.0000
  H   H720      1.0  0.00804  0.66703  0.11998  1.0000
  C   C891      1.0  0.28082  0.81515  0.07682  1.0000
  C   C892      1.0  0.15862  0.54664  0.20443  1.0000
  C   C893      1.0  0.13996  0.55923  0.21076  1.0000
  C   C894      1.0  0.12201  0.54909  0.22170  1.0000
  C   C895      1.0  0.14282  0.78545  0.14816  1.0000
  C   C896      1.0  0.09435  0.85302  0.15033  1.0000
  C   C897      1.0  0.43751  0.90224  0.22967  1.0000
  C   C898      1.0  0.34362  0.95353  0.07413  1.0000
  C   C899      1.0  0.24614  0.90606  0.05835  1.0000
  H   H721      1.0  0.29119  0.90090  0.02365  1.0000
  P   P29       1.0  0.14958  0.82184  0.17599  1.0000
  C   C900      1.0  0.43275  0.93998  0.06845  1.0000
  H   H722      1.0  0.41777  0.92610  0.15610  1.0000
  H   H723      1.0  0.09210  0.87512  0.12191  1.0000
  C   C901      1.0  0.25155  0.92652  0.06819  1.0000
  C   C902      1.0  0.47369  0.96047  0.05829  1.0000
  P   P30       1.0  0.17173  0.65808  0.20441  1.0000
  H   H724      1.0  0.13919  0.57685  0.20703  1.0000
  H   H725      1.0  0.07647  0.85291  0.15323  1.0000
  C   C903      1.0  0.00537  0.91643  0.16534  1.0000
  H   H726      1.0  0.15837  0.86435  0.02381  1.0000
  C   C904      1.0  0.37074  0.98169  0.13125  1.0000
  H   H727      1.0  0.39254  0.90318  0.21159  1.0000
  C   C905      1.0  0.18750  0.85764  0.04391  1.0000
  C   C906      1.0  0.17645  0.86537  0.02486  1.0000
  C   C907      1.0  0.18871  0.87450  0.00721  1.0000
  C   C908      1.0  0.21210  0.87537  0.00829  1.0000
  C   C909      1.0  0.18362  0.72531  0.20052  1.0000
  C   C910      1.0  0.39219  0.92002  0.20512  1.0000
  H   H728      1.0  0.44190  0.91034  0.19461  1.0000
  C   C911      1.0  0.16317  0.69259  0.17425  1.0000
  C   C912      1.0  0.40543  0.89441  0.14447  1.0000
  C   C913      1.0  0.45197  0.93490  0.08097  1.0000
  H   H729      1.0  0.42683  0.88279  0.06593  1.0000
  C   C914      1.0  0.04275  0.53581  0.20959  1.0000
  H   H730      1.0  0.99595  0.97111  0.15904  1.0000
  C   C915      1.0  0.47232  0.94527  0.07599  1.0000
  C   C916      1.0  0.14622  0.65699  0.22053  1.0000
  C   C917      1.0  0.39818  0.88217  0.12594  1.0000
  H   H731      1.0  0.39191  0.88225  0.09068  1.0000
  H   H732      1.0  0.48707  0.94142  0.08579  1.0000
  H   H733      1.0  0.12476  0.65352  0.19154  1.0000
  H   H734      1.0  0.02424  0.74306  0.08656  1.0000
  C   C918      1.0  0.40082  0.87647  0.01582  1.0000
  H   H735      1.0  0.32659  0.94754  0.07362  1.0000
  C   C919      1.0  0.41596  0.88668  0.05198  1.0000
  H   H736      1.0  0.15449  0.68032  0.16416  1.0000
  C   C920      1.0  0.37731  0.94663  0.17867  1.0000
  C   C921      1.0  0.39182  0.96290  0.18698  1.0000
  C   C922      1.0  0.37736  0.92526  0.18792  1.0000
  H   H737      1.0  0.15671  0.71904  0.15077  1.0000
  C   C923      1.0  0.41271  0.91640  0.14169  1.0000
  C   C924      1.0  0.10575  0.65437  0.22200  1.0000
  H   H738      1.0  0.09236  0.51711  0.10339  1.0000
  H   H739      1.0  0.36596  0.91264  0.18175  1.0000
  H   H740      1.0  0.39167  0.86542  0.12810  1.0000
  P   P31       1.0  0.40642  0.92649  0.07424  1.0000
  C   C925      1.0  0.18291  0.70317  0.20800  1.0000
  C   C926      1.0  0.99563  0.84410  0.14259  1.0000
  C   C927      1.0  0.40636  0.93632  0.21409  1.0000
  C   C928      1.0  0.99403  0.85680  0.12299  1.0000
  C   C929      1.0  0.40617  0.95788  0.20480  1.0000
  H   H741      1.0  0.17486  0.74812  0.17394  1.0000
  C   C930      1.0  0.34766  0.97638  0.07623  1.0000
  C   C931      1.0  0.26728  0.86723  0.00287  1.0000
  C   C932      1.0  0.06234  0.52397  0.21436  1.0000
  H   H742      1.0  0.11951  0.60488  0.23368  1.0000
  C   C933      1.0  0.17436  0.73101  0.17980  1.0000
  C   C934      1.0  0.33406  0.98349  0.20100  1.0000
  H   H743      1.0  0.42356  0.85596  0.03469  1.0000
  H   H744      1.0  0.13285  0.52069  0.09785  1.0000
  C   C935      1.0  0.38357  0.94619  0.07445  1.0000
  H   H745      1.0  0.26708  0.78913  0.00606  1.0000
  C   C936      1.0  0.45555  0.86048  0.21809  1.0000
  H   H746      1.0  0.08987  0.65221  0.21365  1.0000
  C   C937      1.0  0.45477  0.96513  0.04539  1.0000
  H   H747      1.0  0.45766  0.87349  0.18458  1.0000
  H   H748      1.0  0.37818  0.90007  0.00093  1.0000
  H   H749      1.0  0.01643  0.54340  0.07340  1.0000
  C   C938      1.0  0.99757  0.97254  0.17705  1.0000
  H   H750      1.0  0.10642  0.49445  0.19595  1.0000
  C   C939      1.0  0.36960  0.98421  0.07753  1.0000
  C   C940      1.0  0.99086  0.72067  0.11267  1.0000
  H   H751      1.0  0.17387  0.51404  0.20431  1.0000
  H   H752      1.0  0.39187  0.97942  0.17956  1.0000
  H   H753      1.0  0.99712  0.66078  0.16285  1.0000
  H   H754      1.0  0.19676  0.83030  0.99415  1.0000
  H   H755      1.0  0.19128  0.73805  0.21081  1.0000
  C   C941      1.0  0.13447  0.85160  0.23601  1.0000
  C   C942      1.0  0.21662  0.65937  0.21727  1.0000
  C   C943      1.0  0.26137  0.91714  0.23408  1.0000
  H   H756      1.0  0.45588  0.97672  0.03150  1.0000
  C   C944      1.0  0.00255  0.97659  0.22341  1.0000
  H   H757      1.0  0.46214  0.84421  0.21367  1.0000
  C   C945      1.0  0.14953  0.49187  0.14501  1.0000
  H   H758      1.0  0.14286  0.49611  0.22472  1.0000
  H   H759      1.0  0.47288  0.93085  0.22462  1.0000
  H   H760      1.0  0.15547  0.48810  0.08574  1.0000
  H   H761      1.0  0.14918  0.78029  0.01291  1.0000
  C   C946      1.0  0.28039  0.84837  0.99786  1.0000
  C   C947      1.0  0.28358  0.91134  0.23835  1.0000
  H   H762      1.0  0.99358  0.63404  0.19400  1.0000
  C   C948      1.0  0.23513  0.65235  0.22977  1.0000
  H   H763      1.0  0.25133  0.65993  0.22699  1.0000
  C   C949      1.0  0.48443  0.96284  0.23555  1.0000
  S   S120      1.0  0.07060  0.60864  0.23769  1.0000
  P   P32       1.0  0.42499  0.92879  0.23672  1.0000
  C   C950      1.0  0.46815  0.94637  0.23261  1.0000
  H   H764      1.0  0.34963  0.98732  0.19267  1.0000
  C   C951      1.0  0.19357  0.63210  0.23633  1.0000
  C   C952      1.0  0.18749  0.81541  0.98998  1.0000
  H   H765      1.0  0.17772  0.62368  0.23871  1.0000
  Fe  Fe61      1.0  0.39870  0.87422  0.34918  1.0000
  S   S121      1.0  0.42616  0.87002  0.32341  1.0000
  S   S122      1.0  0.39628  0.91032  0.36229  1.0000
  Fe  Fe62      1.0  0.38792  0.82393  0.34841  1.0000
  S   S123      1.0  0.41398  0.81766  0.32217  1.0000
  S   S124      1.0  0.36818  0.79236  0.35765  1.0000
  Fe  Fe63      1.0  0.43652  0.83948  0.34290  1.0000
  S   S125      1.0  0.47105  0.82318  0.34808  1.0000
  Fe  Fe64      1.0  0.40129  0.84862  0.30501  1.0000
  S   S126      1.0  0.39986  0.84987  0.26658  1.0000
  S   S127      1.0  0.41071  0.84473  0.36991  1.0000
  S   S128      1.0  0.37343  0.85388  0.32982  1.0000
  Fe  Fe65      1.0  0.14021  0.57456  0.39644  1.0000
  S   S129      1.0  0.16556  0.54718  0.40144  1.0000
  S   S130      1.0  0.11852  0.58372  0.42701  1.0000
  Fe  Fe66      1.0  0.15056  0.57789  0.34592  1.0000
  S   S131      1.0  0.17717  0.55135  0.34887  1.0000
  S   S132      1.0  0.14827  0.59111  0.30969  1.0000
  Fe  Fe67      1.0  0.15221  0.53223  0.36953  1.0000
  H   H766      1.0  0.35979  0.90546  0.28171  1.0000
  Fe  Fe68      1.0  0.18840  0.56858  0.38040  1.0000
  S   S133      1.0  0.22516  0.56982  0.39205  1.0000
  S   S134      1.0  0.12515  0.55809  0.36552  1.0000
  S   S135      1.0  0.16349  0.59666  0.37647  1.0000
  Fe  Fe69      1.0  0.33597  0.64617  0.41363  1.0000
  S   S136      1.0  0.34240  0.66195  0.44724  1.0000
  S   S137      1.0  0.29986  0.64620  0.40032  1.0000
  Fe  Fe70      1.0  0.38718  0.64020  0.40467  1.0000
  S   S138      1.0  0.39637  0.65486  0.43807  1.0000
  S   S139      1.0  0.41150  0.63160  0.37612  1.0000
  Fe  Fe71      1.0  0.36770  0.63446  0.45218  1.0000
  C   C953      1.0  0.26131  0.68491  0.43257  1.0000
  Fe  Fe72      1.0  0.37020  0.68101  0.43003  1.0000
  S   S140      1.0  0.37685  0.71844  0.43452  1.0000
  S   S141      1.0  0.36017  0.61791  0.41891  1.0000
  S   S142      1.0  0.36217  0.66713  0.39636  1.0000
  C   C954      1.0  0.27947  0.62460  0.39809  1.0000
  C   C955      1.0  0.25833  0.62979  0.38909  1.0000
  C   C956      1.0  0.24158  0.61332  0.38691  1.0000
  C   C957      1.0  0.24566  0.59141  0.39401  1.0000
  C   C958      1.0  0.26680  0.58627  0.40310  1.0000
  C   C959      1.0  0.28362  0.60270  0.40505  1.0000
  H   H767      1.0  0.25494  0.64666  0.38368  1.0000
  H   H768      1.0  0.22554  0.61758  0.37972  1.0000
  H   H769      1.0  0.27027  0.56940  0.40852  1.0000
  H   H770      1.0  0.29982  0.59840  0.41187  1.0000
  C   C960      1.0  0.13928  0.61828  0.45043  1.0000
  C   C961      1.0  0.12551  0.59947  0.45143  1.0000
  H   H771      1.0  0.30947  0.78182  0.28664  1.0000
  H   H772      1.0  0.14675  0.62304  0.43464  1.0000
  C   C962      1.0  0.28462  0.93747  0.26944  1.0000
  H   H773      1.0  0.98915  0.69232  0.45448  1.0000
  S   S143      1.0  0.15078  0.49478  0.36107  1.0000
  H   H774      1.0  0.07042  0.50197  0.27837  1.0000
  C   C963      1.0  0.37154  0.97193  0.27833  1.0000
  H   H775      1.0  0.35354  0.86493  0.27299  1.0000
  C   C964      1.0  0.32075  0.66987  0.35014  1.0000
  C   C965      1.0  0.38629  0.91765  0.30266  1.0000
  C   C966      1.0  0.37434  0.77181  0.37844  1.0000
  C   C967      1.0  0.38072  0.77752  0.40025  1.0000
  C   C968      1.0  0.38183  0.76096  0.41710  1.0000
  C   C969      1.0  0.37680  0.73848  0.41236  1.0000
  C   C970      1.0  0.37138  0.73268  0.39034  1.0000
  C   C971      1.0  0.37015  0.74923  0.37359  1.0000
  H   H776      1.0  0.38393  0.79481  0.40435  1.0000
  H   H777      1.0  0.38610  0.76569  0.43402  1.0000
  H   H778      1.0  0.36777  0.71550  0.38625  1.0000
  H   H779      1.0  0.36602  0.74449  0.35670  1.0000
  C   C972      1.0  0.37495  0.93119  0.36392  1.0000
  C   C973      1.0  0.35218  0.92593  0.36484  1.0000
  C   C974      1.0  0.33602  0.94299  0.36762  1.0000
  C   C975      1.0  0.34238  0.96556  0.36946  1.0000
  C   C976      1.0  0.36512  0.97084  0.36805  1.0000
  C   C977      1.0  0.38125  0.95376  0.36545  1.0000
  H   H780      1.0  0.34715  0.90864  0.36432  1.0000
  H   H781      1.0  0.31852  0.93862  0.36874  1.0000
  H   H782      1.0  0.42145  0.73644  0.43577  1.0000
  H   H783      1.0  0.39880  0.95807  0.36492  1.0000
  C   C978      1.0  0.34497  0.69967  0.33761  1.0000
  C   C979      1.0  0.45322  0.62478  0.35733  1.0000
  C   C980      1.0  0.44114  0.62809  0.37734  1.0000
  C   C981      1.0  0.45285  0.62824  0.39760  1.0000
  H   H784      1.0  0.32453  0.59857  0.46591  1.0000
  H   H785      1.0  0.17439  0.58427  0.43417  1.0000
  H   H786      1.0  0.44435  0.62454  0.34157  1.0000
  H   H787      1.0  0.44385  0.63062  0.41313  1.0000
  C   C982      1.0  0.09234  0.60160  0.25700  1.0000
  C   C983      1.0  0.08682  0.59729  0.27952  1.0000
  C   C984      1.0  0.10358  0.59312  0.29570  1.0000
  C   C985      1.0  0.12620  0.59367  0.28966  1.0000
  C   C986      1.0  0.13170  0.59763  0.26706  1.0000
  C   C987      1.0  0.11493  0.60136  0.25081  1.0000
  H   H788      1.0  0.06945  0.59748  0.28458  1.0000
  H   H789      1.0  0.09902  0.59018  0.31298  1.0000
  H   H790      1.0  0.14909  0.59815  0.26215  1.0000
  H   H791      1.0  0.47893  0.69620  0.36070  1.0000
  H   H792      1.0  0.10445  0.57976  0.47302  1.0000
  H   H793      1.0  0.03065  0.49030  0.43567  1.0000
  C   C988      1.0  0.32409  0.69266  0.34575  1.0000
  C   C989      1.0  0.25049  0.93259  0.24785  1.0000
  H   H794      1.0  0.22754  0.69518  0.38291  1.0000
  H   H795      1.0  0.16514  0.80800  0.25587  1.0000
  H   H796      1.0  0.19929  0.60855  0.41189  1.0000
  C   C990      1.0  0.47625  0.62493  0.39780  1.0000
  H   H797      1.0  0.29698  0.87873  0.35649  1.0000
  H   H798      1.0  0.33540  0.63700  0.35071  1.0000
  C   C991      1.0  0.38763  0.91681  0.26221  1.0000
  C   C992      1.0  0.18664  0.59466  0.44250  1.0000
  H   H799      1.0  0.07627  0.54987  0.26328  1.0000
  H   H800      1.0  0.36397  0.96630  0.24351  1.0000
  C   C993      1.0  0.21617  0.62220  0.44064  1.0000
  C   C994      1.0  0.21789  0.62216  0.46407  1.0000
  H   H801      1.0  0.28667  0.53429  0.46270  1.0000
  H   H802      1.0  0.26349  0.71511  0.38247  1.0000
  C   C995      1.0  0.06124  0.64867  0.47342  1.0000
  C   C996      1.0  0.26793  0.60421  0.46500  1.0000
  H   H803      1.0  0.25299  0.95383  0.27657  1.0000
  C   C997      1.0  0.23222  0.68435  0.46932  1.0000
  C   C998      1.0  0.23615  0.70427  0.45771  1.0000
  C   C999      1.0  0.25075  0.70457  0.43941  1.0000
  C   C1000     1.0  0.24291  0.66453  0.46265  1.0000
  H   H804      1.0  0.11094  0.51891  0.33513  1.0000
  H   H805      1.0  0.10329  0.49537  0.37438  1.0000
  H   H806      1.0  0.22708  0.63243  0.43050  1.0000
  H   H807      1.0  0.43667  0.93583  0.28409  1.0000
  H   H808      1.0  0.29074  0.57969  0.45170  1.0000
  H   H809      1.0  0.25354  0.59597  0.45789  1.0000
  C   C1001     1.0  0.44080  0.97022  0.25072  1.0000
  C   C1002     1.0  0.06680  0.54529  0.24854  1.0000
  H   H810      1.0  0.25405  0.72004  0.43062  1.0000
  H   H811      1.0  0.00454  0.97815  0.24137  1.0000
  H   H812      1.0  0.32980  0.75353  0.34912  1.0000
  C   C1003     1.0  0.28512  0.63546  0.48405  1.0000
  H   H813      1.0  0.46907  0.80143  0.39413  1.0000
  H   H814      1.0  0.25312  0.54212  0.43940  1.0000
  C   C1004     1.0  0.44619  0.94995  0.24017  1.0000
  C   C1005     1.0  0.44571  0.72225  0.48511  1.0000
  H   H815      1.0  0.30452  0.77117  0.41110  1.0000
  H   H816      1.0  0.32534  0.95433  0.25066  1.0000
  C   C1006     1.0  0.99431  0.68715  0.47109  1.0000
  C   C1007     1.0  0.12361  0.52229  0.27968  1.0000
  H   H817      1.0  0.43524  0.88836  0.26320  1.0000
  H   H818      1.0  0.28222  0.75106  0.28132  1.0000
  H   H819      1.0  0.34822  0.71708  0.33436  1.0000
  P   P33       1.0  0.46086  0.76058  0.41987  1.0000
  C   C1008     1.0  0.44931  0.78847  0.42164  1.0000
  C   C1009     1.0  0.45671  0.80514  0.40688  1.0000
  C   C1010     1.0  0.44813  0.82678  0.40833  1.0000
  C   C1011     1.0  0.43156  0.83185  0.42403  1.0000
  P   P34       1.0  0.23904  0.63870  0.47791  1.0000
  H   H820      1.0  0.47228  0.67616  0.39623  1.0000
  C   C1012     1.0  0.10883  0.51759  0.31715  1.0000
  C   C1013     1.0  0.29514  0.92130  0.25604  1.0000
  H   H821      1.0  0.45402  0.83950  0.39687  1.0000
  H   H822      1.0  0.42460  0.84856  0.42473  1.0000
  H   H823      1.0  0.07159  0.68188  0.46357  1.0000
  C   C1014     1.0  0.40931  0.92576  0.26247  1.0000
  C   C1015     1.0  0.46640  0.73274  0.48234  1.0000
  H   H824      1.0  0.48504  0.62482  0.41361  1.0000
  C   C1016     1.0  0.31655  0.73954  0.42325  1.0000
  C   C1017     1.0  0.11543  0.59405  0.47206  1.0000
  C   C1018     1.0  0.23355  0.55412  0.46716  1.0000
  C   C1019     1.0  0.06123  0.62603  0.46726  1.0000
  C   C1020     1.0  0.07153  0.61918  0.44739  1.0000
  C   C1021     1.0  0.08197  0.63479  0.43356  1.0000
  C   C1022     1.0  0.08175  0.65738  0.43935  1.0000
  C   C1023     1.0  0.47666  0.62162  0.35754  1.0000
  H   H825      1.0  0.32117  0.63442  0.48620  1.0000
  H   H826      1.0  0.07221  0.60162  0.44300  1.0000
  H   H827      1.0  0.09063  0.62919  0.41859  1.0000
  C   C1024     1.0  0.36220  0.68419  0.33412  1.0000
  H   H828      1.0  0.42599  0.78105  0.44846  1.0000
  C   C1025     1.0  0.18827  0.59442  0.46579  1.0000
  H   H829      1.0  0.21027  0.61185  0.26102  1.0000
  H   H830      1.0  0.32754  0.70616  0.43061  1.0000
  C   C1026     1.0  0.25739  0.66500  0.44408  1.0000
  H   H831      1.0  0.27279  0.68498  0.41848  1.0000
  C   C1027     1.0  0.44039  0.88566  0.24602  1.0000
  C   C1028     1.0  0.35774  0.96564  0.26054  1.0000
  C   C1029     1.0  0.08623  0.50771  0.28503  1.0000
  C   C1030     1.0  0.04718  0.55705  0.24372  1.0000
  C   C1031     1.0  0.43417  0.73545  0.44861  1.0000
  H   H832      1.0  0.29371  0.96813  0.33811  1.0000
  H   H833      1.0  0.04397  0.86630  0.46433  1.0000
  H   H834      1.0  0.05377  0.61349  0.47793  1.0000
  C   C1032     1.0  0.34114  0.87306  0.23987  1.0000
  H   H835      1.0  0.32489  0.87815  0.24592  1.0000
  H   H836      1.0  0.21844  0.66797  0.35300  1.0000
  H   H837      1.0  0.48713  0.75257  0.46081  1.0000
  C   C1033     1.0  0.20052  0.60857  0.42997  1.0000
  C   C1034     1.0  0.14316  0.63123  0.46979  1.0000
  H   H838      1.0  0.42399  0.97326  0.25669  1.0000
  C   C1035     1.0  0.08881  0.50963  0.30823  1.0000
  C   C1036     1.0  0.45498  0.74580  0.44556  1.0000
  C   C1037     1.0  0.23925  0.69236  0.36935  1.0000
  C   C1038     1.0  0.30621  0.62592  0.48055  1.0000
  C   C1039     1.0  0.20402  0.60787  0.47654  1.0000
  C   C1040     1.0  0.42526  0.74605  0.36291  1.0000
  C   C1041     1.0  0.30260  0.74566  0.38570  1.0000
  H   H839      1.0  0.22801  0.71955  0.46307  1.0000
  C   C1042     1.0  0.07132  0.66435  0.45914  1.0000
  H   H840      1.0  0.33318  0.78279  0.32073  1.0000
  S   S144      1.0  0.32144  0.98643  0.37390  1.0000
  C   C1043     1.0  0.44672  0.72239  0.39703  1.0000
  C   C1044     1.0  0.46815  0.76375  0.32439  1.0000
  C   C1045     1.0  0.30773  0.72345  0.38003  1.0000
  H   H841      1.0  0.46319  0.74901  0.29195  1.0000
  C   C1046     1.0  0.47103  0.74453  0.46265  1.0000
  H   H842      1.0  0.31224  0.91623  0.25931  1.0000
  C   C1047     1.0  0.32038  0.71713  0.41812  1.0000
  C   C1048     1.0  0.25973  0.70359  0.36905  1.0000
  C   C1049     1.0  0.12608  0.52419  0.30290  1.0000
  C   C1050     1.0  0.30781  0.76886  0.29919  1.0000
  H   H843      1.0  0.33572  0.96365  0.32163  1.0000
  H   H844      1.0  0.26592  0.65000  0.43849  1.0000
  H   H845      1.0  0.24716  0.62992  0.25535  1.0000
  H   H846      1.0  0.43618  0.77562  0.37946  1.0000
  H   H847      1.0  0.27874  0.72137  0.30962  1.0000
  C   C1051     1.0  0.25284  0.54541  0.45728  1.0000
  C   C1052     1.0  0.42454  0.72275  0.36314  1.0000
  H   H848      1.0  0.45664  0.77750  0.32150  1.0000
  C   C1053     1.0  0.23411  0.67704  0.35249  1.0000
  C   C1054     1.0  0.28631  0.97470  0.30319  1.0000
  C   C1055     1.0  0.31593  0.70906  0.39664  1.0000
  C   C1056     1.0  0.42365  0.81525  0.43840  1.0000
  H   H849      1.0  0.06218  0.83158  0.47780  1.0000
  C   C1057     1.0  0.28906  0.59488  0.46136  1.0000
  C   C1058     1.0  0.04220  0.86129  0.48168  1.0000
  H   H850      1.0  0.41533  0.71388  0.35035  1.0000
  H   H851      1.0  0.28180  0.68053  0.32171  1.0000
  C   C1059     1.0  0.30396  0.73511  0.33169  1.0000
  H   H852      1.0  0.41590  0.92935  0.31922  1.0000
  H   H853      1.0  0.31919  0.69167  0.39300  1.0000
  H   H854      1.0  0.37232  0.64969  0.33673  1.0000
  H   H855      1.0  0.12551  0.86626  0.24181  1.0000
  C   C1060     1.0  0.35736  0.86556  0.25530  1.0000
  C   C1061     1.0  0.15681  0.81880  0.24393  1.0000
  C   C1062     1.0  0.35871  0.66158  0.33863  1.0000
  H   H856      1.0  0.24559  0.66076  0.32247  1.0000
  H   H857      1.0  0.29535  0.75690  0.37353  1.0000
  C   C1063     1.0  0.44726  0.74585  0.39715  1.0000
  H   H858      1.0  0.04181  0.57050  0.25463  1.0000
  H   H859      1.0  0.15900  0.48753  0.27430  1.0000
  C   C1064     1.0  0.42959  0.72367  0.46826  1.0000
  H   H860      1.0  0.45080  0.85196  0.25286  1.0000
  H   H861      1.0  0.43418  0.69284  0.38064  1.0000
  H   H862      1.0  0.14397  0.84112  0.26919  1.0000
  H   H863      1.0  0.33231  0.91578  0.30652  1.0000
  C   C1065     1.0  0.33583  0.95859  0.26472  1.0000
  H   H864      1.0  0.17780  0.51596  0.29765  1.0000
  H   H865      1.0  0.47654  0.77473  0.35759  1.0000
  H   H866      1.0  0.37750  0.91424  0.31814  1.0000
  H   H867      1.0  0.14122  0.53117  0.30996  1.0000
  C   C1066     1.0  0.43523  0.71092  0.38021  1.0000
  C   C1067     1.0  0.30816  0.60566  0.46917  1.0000
  H   H868      1.0  0.37845  0.68977  0.32842  1.0000
  H   H869      1.0  0.30513  0.66399  0.35707  1.0000
  C   C1068     1.0  0.30742  0.75376  0.40712  1.0000
  H   H870      1.0  0.09009  0.66939  0.42869  1.0000
  C   C1069     1.0  0.27529  0.69952  0.35187  1.0000
  C   C1070     1.0  0.33793  0.65442  0.34649  1.0000
  C   C1071     1.0  0.29249  0.75153  0.29623  1.0000
  C   C1072     1.0  0.37849  0.85881  0.24783  1.0000
  H   H871      1.0  0.32098  0.74587  0.43965  1.0000
  C   C1073     1.0  0.32116  0.76943  0.31834  1.0000
  C   C1074     1.0  0.29056  0.73469  0.31238  1.0000
  H   H872      1.0  0.26423  0.90397  0.35231  1.0000
  H   H873      1.0  0.13708  0.52801  0.26905  1.0000
  C   C1075     1.0  0.37622  0.91284  0.28219  1.0000
  C   C1076     1.0  0.27170  0.54107  0.47040  1.0000
  H   H874      1.0  0.21897  0.55738  0.45686  1.0000
  C   C1077     1.0  0.41955  0.93008  0.28321  1.0000
  C   C1078     1.0  0.10372  0.51377  0.27054  1.0000
  C   C1079     1.0  0.43251  0.79364  0.43727  1.0000
  C   C1080     1.0  0.40794  0.92628  0.30320  1.0000
  C   C1081     1.0  0.44933  0.86488  0.24020  1.0000
  C   C1082     1.0  0.43644  0.75758  0.37987  1.0000
  C   C1083     1.0  0.28621  0.97951  0.32617  1.0000
  H   H875      1.0  0.15390  0.64569  0.46870  1.0000
  C   C1084     1.0  0.26991  0.68420  0.33491  1.0000
  H   H876      1.0  0.33076  0.88455  0.33319  1.0000
  P   P35       1.0  0.30241  0.71286  0.35220  1.0000
  C   C1085     1.0  0.24942  0.67298  0.33527  1.0000
  H   H877      1.0  0.41660  0.75531  0.34994  1.0000
  H   H878      1.0  0.45451  0.71293  0.41035  1.0000
  H   H879      1.0  0.26520  0.93482  0.32486  1.0000
  H   H880      1.0  0.12721  0.65950  0.27439  1.0000
  C   C1086     1.0  0.31924  0.75268  0.33448  1.0000
  C   C1087     1.0  0.19196  0.49197  0.32033  1.0000
  C   C1088     1.0  0.48730  0.73043  0.31140  1.0000
  H   H881      1.0  0.07528  0.50502  0.31936  1.0000
  C   C1089     1.0  0.27904  0.90659  0.34221  1.0000
  C   C1090     1.0  0.29743  0.89234  0.34454  1.0000
  C   C1091     1.0  0.31649  0.89562  0.33143  1.0000
  C   C1092     1.0  0.31736  0.91341  0.31633  1.0000
  C   C1093     1.0  0.29909  0.92797  0.31407  1.0000
  C   C1094     1.0  0.27973  0.92417  0.32680  1.0000
  P   P36       1.0  0.29929  0.94945  0.29293  1.0000
  C   C1095     1.0  0.45714  0.98661  0.25374  1.0000
  C   C1096     1.0  0.32773  0.95750  0.28679  1.0000
  C   C1097     1.0  0.12679  0.65858  0.25628  1.0000
  H   H882      1.0  0.41050  0.81907  0.45028  1.0000
  C   C1098     1.0  0.14492  0.83748  0.25143  1.0000
  C   C1099     1.0  0.26196  0.94251  0.26565  1.0000
  H   H883      1.0  0.48563  0.61897  0.34206  1.0000
  C   C1100     1.0  0.47935  0.76218  0.34480  1.0000
  H   H884      1.0  0.02582  0.67445  0.45973  1.0000
  C   C1101     1.0  0.21206  0.62520  0.24887  1.0000
  H   H885      1.0  0.41348  0.71559  0.47027  1.0000
  C   C1102     1.0  0.47196  0.74777  0.30776  1.0000
  C   C1103     1.0  0.34170  0.96399  0.30449  1.0000
  C   C1104     1.0  0.47893  0.98294  0.24611  1.0000
  C   C1105     1.0  0.26575  0.62455  0.47652  1.0000
  H   H886      1.0  0.37947  0.91229  0.24680  1.0000
  C   C1106     1.0  0.23282  0.63538  0.24568  1.0000
  S   S145      1.0  0.36797  0.60904  0.48109  1.0000
  H   H887      1.0  0.23309  0.93668  0.24485  1.0000
  C   C1107     1.0  0.10635  0.65602  0.24530  1.0000
  H   H888      1.0  0.38846  0.97743  0.27521  1.0000
  C   C1108     1.0  0.36351  0.97114  0.30027  1.0000
  H   H889      1.0  0.19933  0.50454  0.33109  1.0000
  C   C1109     1.0  0.01518  0.67699  0.47417  1.0000
  P   P37       1.0  0.09951  0.51289  0.24054  1.0000
  C   C1110     1.0  0.17962  0.49839  0.30157  1.0000
  H   H890      1.0  0.48351  0.86219  0.37542  1.0000
  H   H891      1.0  0.17715  0.58391  0.47548  1.0000
  H   H892      1.0  0.16223  0.66183  0.25276  1.0000
  H   H893      1.0  0.09097  0.65474  0.25485  1.0000
  H   H894      1.0  0.37416  0.97603  0.31413  1.0000
  H   H895      1.0  0.22106  0.68461  0.48354  1.0000
  C   C1111     1.0  0.14664  0.65944  0.24393  1.0000
  Fe  Fe73      1.0  0.07622  0.85758  0.69401  1.0000
  S   S146      1.0  0.10548  0.86172  0.67061  1.0000
  H   H896      1.0  0.48438  0.53609  0.63520  1.0000
  Fe  Fe74      1.0  0.04358  0.84580  0.65480  1.0000
  S   S147      1.0  0.07100  0.85007  0.62923  1.0000
  S   S148      1.0  0.00997  0.82893  0.64622  1.0000
  Fe  Fe75      1.0  0.09247  0.83066  0.65316  1.0000
  S   S149      1.0  0.11618  0.80293  0.64130  1.0000
  Fe  Fe76      1.0  0.08166  0.88083  0.64866  1.0000
  S   S150      1.0  0.08778  0.91477  0.63139  1.0000
  S   S151      1.0  0.06500  0.82522  0.67825  1.0000
  S   S152      1.0  0.05249  0.87775  0.67250  1.0000
  Fe  Fe77      1.0  0.11285  0.67614  0.58924  1.0000
  S   S153      1.0  0.11753  0.64951  0.61553  1.0000
  S   S154      1.0  0.09326  0.70866  0.59625  1.0000
  Fe  Fe78      1.0  0.12726  0.64319  0.55087  1.0000
  S   S155      1.0  0.13188  0.61468  0.57491  1.0000
  S   S156      1.0  0.13856  0.64314  0.51408  1.0000
  Fe  Fe79      1.0  0.09973  0.62682  0.59138  1.0000
  S   S157      1.0  0.07090  0.60305  0.60010  1.0000
  Fe  Fe80      1.0  0.14928  0.63970  0.59689  1.0000
  S   S158      1.0  0.18451  0.63682  0.61221  1.0000
  S   S159      1.0  0.09416  0.65348  0.56562  1.0000
  S   S160      1.0  0.14561  0.66817  0.57234  1.0000
  Fe  Fe81      1.0  0.29764  0.56497  0.63011  1.0000
  S   S161      1.0  0.31356  0.59820  0.63617  1.0000
  S   S162      1.0  0.26046  0.56109  0.62105  1.0000
  Fe  Fe82      1.0  0.34253  0.53957  0.63615  1.0000
  S   S163      1.0  0.36100  0.57208  0.64136  1.0000
  H   H897      1.0  0.33750  0.53129  0.54993  1.0000
  Fe  Fe83      1.0  0.33278  0.58143  0.66419  1.0000
  S   S164      1.0  0.33592  0.59772  0.69895  1.0000
  Fe  Fe84      1.0  0.34054  0.58587  0.61276  1.0000
  S   S165      1.0  0.35381  0.61125  0.58719  1.0000
  S   S166      1.0  0.31467  0.54876  0.65992  1.0000
  S   S167      1.0  0.32414  0.55288  0.60569  1.0000
  C   C1112     1.0  0.35699  0.59672  0.72013  1.0000
  C   C1113     1.0  0.37612  0.58330  0.71832  1.0000
  H   H898      1.0  0.29196  0.54511  0.70663  1.0000
  H   H899      1.0  0.37860  0.57325  0.70349  1.0000
  H   H900      1.0  0.44212  0.71303  0.50029  1.0000
  C   C1114     1.0  0.36154  0.61064  0.51018  1.0000
  C   C1115     1.0  0.35594  0.59092  0.52174  1.0000
  C   C1116     1.0  0.35250  0.59101  0.54515  1.0000
  C   C1117     1.0  0.35542  0.61066  0.55741  1.0000
  C   C1118     1.0  0.36055  0.63045  0.54579  1.0000
  C   C1119     1.0  0.36331  0.63054  0.52230  1.0000
  H   H901      1.0  0.35446  0.57544  0.51256  1.0000
  H   H902      1.0  0.34793  0.57589  0.55382  1.0000
  H   H903      1.0  0.36275  0.64579  0.55509  1.0000
  H   H904      1.0  0.36005  0.52908  0.68955  1.0000
  S   S168      1.0  0.07552  0.86637  0.73156  1.0000
  H   H905      1.0  0.21778  0.56501  0.49739  1.0000
  C   C1120     1.0  0.02951  0.69421  0.59761  1.0000
  C   C1121     1.0  0.38977  0.52350  0.57148  1.0000
  H   H906      1.0  0.11157  0.60246  0.50716  1.0000
  C   C1122     1.0  0.04507  0.60901  0.61392  1.0000
  C   C1123     1.0  0.02919  0.59187  0.61656  1.0000
  C   C1124     1.0  0.09078  0.67687  0.50893  1.0000
  C   C1125     1.0  0.01929  0.63424  0.63303  1.0000
  C   C1126     1.0  0.03998  0.63023  0.62230  1.0000
  H   H907      1.0  0.03297  0.57534  0.61030  1.0000
  H   H908      1.0  0.47888  0.73168  0.49543  1.0000
  H   H909      1.0  0.05204  0.64352  0.62053  1.0000
  C   C1127     1.0  0.20548  0.61548  0.61367  1.0000
  C   C1128     1.0  0.22685  0.62103  0.62188  1.0000
  C   C1129     1.0  0.24383  0.60472  0.62412  1.0000
  C   C1130     1.0  0.23968  0.58247  0.61831  1.0000
  C   C1131     1.0  0.21839  0.57694  0.60987  1.0000
  C   C1132     1.0  0.20143  0.59331  0.60751  1.0000
  H   H910      1.0  0.23025  0.63807  0.62676  1.0000
  H   H911      1.0  0.26006  0.60933  0.63061  1.0000
  H   H912      1.0  0.21494  0.55985  0.60523  1.0000
  H   H913      1.0  0.18511  0.58867  0.60133  1.0000
  C   C1133     1.0  0.26523  0.59177  0.56323  1.0000
  H   H914      1.0  0.28873  0.51640  0.59396  1.0000
  C   C1134     1.0  0.10926  0.77650  0.62952  1.0000
  C   C1135     1.0  0.08714  0.76987  0.62582  1.0000
  C   C1136     1.0  0.08257  0.74899  0.61583  1.0000
  C   C1137     1.0  0.10001  0.73441  0.60955  1.0000
  C   C1138     1.0  0.12207  0.74088  0.61359  1.0000
  C   C1139     1.0  0.12664  0.76181  0.62343  1.0000
  H   H915      1.0  0.07360  0.78103  0.63027  1.0000
  H   H916      1.0  0.06540  0.74421  0.61283  1.0000
  H   H917      1.0  0.13564  0.72991  0.60881  1.0000
  H   H918      1.0  0.14379  0.76677  0.62616  1.0000
  C   C1140     1.0  0.10730  0.93709  0.63512  1.0000
  C   C1141     1.0  0.10281  0.95786  0.62495  1.0000
  H   H919      1.0  0.27538  0.50570  0.72856  1.0000
  C   C1142     1.0  0.13810  0.97332  0.63834  1.0000
  C   C1143     1.0  0.14247  0.95263  0.64877  1.0000
  C   C1144     1.0  0.12719  0.93468  0.64726  1.0000
  H   H920      1.0  0.08753  0.96001  0.61552  1.0000
  H   H921      1.0  0.27100  0.61329  0.71197  1.0000
  H   H922      1.0  0.36773  0.64581  0.51373  1.0000
  H   H923      1.0  0.13098  0.91888  0.65517  1.0000
  H   H924      1.0  0.44594  0.52185  0.64107  1.0000
  C   C1145     1.0  0.05173  0.92222  0.71751  1.0000
  C   C1146     1.0  0.13322  0.62573  0.49043  1.0000
  C   C1147     1.0  0.27968  0.60826  0.57117  1.0000
  H   H925      1.0  0.27634  0.55065  0.57551  1.0000
  C   C1148     1.0  0.41136  0.59270  0.53420  1.0000
  C   C1149     1.0  0.02692  0.62308  0.52263  1.0000
  C   C1150     1.0  0.42660  0.56444  0.50959  1.0000
  H   H926      1.0  0.01669  0.80888  0.58901  1.0000
  C   C1151     1.0  0.22301  0.56448  0.54234  1.0000
  H   H927      1.0  0.10144  0.94680  0.68407  1.0000
  C   C1152     1.0  0.34972  0.51991  0.70131  1.0000
  C   C1153     1.0  0.03900  0.75535  0.65914  1.0000
  C   C1154     1.0  0.00331  0.81319  0.57754  1.0000
  H   H928      1.0  0.16392  0.95146  0.72678  1.0000
  C   C1155     1.0  0.21383  0.64980  0.55034  1.0000
  C   C1156     1.0  0.23617  0.64403  0.54658  1.0000
  H   H929      1.0  0.99666  0.58240  0.62952  1.0000
  C   C1157     1.0  0.04075  0.67696  0.58661  1.0000
  C   C1158     1.0  0.24414  0.64112  0.52471  1.0000
  H   H930      1.0  0.01013  0.59728  0.54138  1.0000
  C   C1159     1.0  0.45821  0.51322  0.57748  1.0000
  H   H931      1.0  0.35825  0.48784  0.68752  1.0000
  H   H932      1.0  0.20759  0.65156  0.56733  1.0000
  H   H933      1.0  0.24721  0.64149  0.56073  1.0000
  C   C1160     1.0  0.18796  0.55217  0.55875  1.0000
  H   H934      1.0  0.04499  0.58298  0.55890  1.0000
  C   C1161     1.0  0.04900  0.92838  0.69513  1.0000
  C   C1162     1.0  0.12705  0.77241  0.71552  1.0000
  C   C1163     1.0  0.02973  0.87443  0.49647  1.0000
  C   C1164     1.0  0.00703  0.82793  0.55965  1.0000
  H   H935      1.0  0.04207  0.69306  0.53385  1.0000
  P   P38       1.0  0.03439  0.84011  0.55561  1.0000
  C   C1165     1.0  0.03723  0.86445  0.57323  1.0000
  C   C1166     1.0  0.05557  0.81977  0.56291  1.0000
  C   C1167     1.0  0.07501  0.82629  0.57433  1.0000
  C   C1168     1.0  0.09131  0.81047  0.57993  1.0000
  C   C1169     1.0  0.08854  0.78815  0.57383  1.0000
  C   C1170     1.0  0.06924  0.78148  0.56253  1.0000
  C   C1171     1.0  0.05278  0.79721  0.55707  1.0000
  C   C1172     1.0  0.05125  0.88210  0.56671  1.0000
  C   C1173     1.0  0.05362  0.90086  0.58042  1.0000
  C   C1174     1.0  0.04223  0.90205  0.60079  1.0000
  C   C1175     1.0  0.02887  0.88429  0.60772  1.0000
  C   C1176     1.0  0.02633  0.86553  0.59402  1.0000
  C   C1177     1.0  0.03763  0.84828  0.52663  1.0000
  C   C1178     1.0  0.02748  0.86800  0.51886  1.0000
  S   S169      1.0  0.36648  0.50969  0.64139  1.0000
  C   C1179     1.0  0.28040  0.51535  0.57787  1.0000
  H   H936      1.0  0.18434  0.60654  0.54275  1.0000
  C   C1180     1.0  0.05018  0.83520  0.51165  1.0000
  C   C1181     1.0  0.26828  0.58250  0.54184  1.0000
  H   H937      1.0  0.28843  0.58394  0.51163  1.0000
  H   H938      1.0  0.27776  0.61461  0.58806  1.0000
  C   C1182     1.0  0.14114  0.69628  0.71059  1.0000
  P   P39       1.0  0.04926  0.65750  0.49982  1.0000
  H   H939      1.0  0.07763  0.84349  0.57917  1.0000
  H   H940      1.0  0.10600  0.81545  0.58935  1.0000
  H   H941      1.0  0.10123  0.77596  0.57827  1.0000
  H   H942      1.0  0.06706  0.76406  0.55820  1.0000
  H   H943      1.0  0.03793  0.79182  0.54827  1.0000
  H   H944      1.0  0.06074  0.88122  0.55130  1.0000
  H   H945      1.0  0.06487  0.91423  0.57573  1.0000
  H   H946      1.0  0.04446  0.91637  0.61166  1.0000
  C   C1183     1.0  0.13250  0.90182  0.71214  1.0000
  C   C1184     1.0  0.02206  0.67025  0.49562  1.0000
  H   H947      1.0  0.01773  0.87835  0.53011  1.0000
  C   C1185     1.0  0.07220  0.92569  0.72821  1.0000
  C   C1186     1.0  0.11797  0.97587  0.62666  1.0000
  C   C1187     1.0  0.08760  0.94041  0.69377  1.0000
  H   H948      1.0  0.05834  0.82003  0.51711  1.0000
  H   H949      1.0  0.12312  0.69042  0.51693  1.0000
  C   C1188     1.0  0.43165  0.49508  0.55292  1.0000
  H   H950      1.0  0.40498  0.60946  0.53676  1.0000
  H   H951      1.0  0.19578  0.65242  0.49653  1.0000
  H   H952      1.0  0.41796  0.59787  0.49915  1.0000
  C   C1189     1.0  0.37232  0.53306  0.55900  1.0000
  P   P40       1.0  0.41747  0.53558  0.57121  1.0000
  C   C1190     1.0  0.42348  0.55003  0.59709  1.0000
  H   H953      1.0  0.40440  0.58261  0.56787  1.0000
  C   C1191     1.0  0.41109  0.54569  0.61654  1.0000
  C   C1192     1.0  0.41589  0.55697  0.63646  1.0000
  C   C1193     1.0  0.43287  0.57291  0.63705  1.0000
  C   C1194     1.0  0.44528  0.57740  0.61774  1.0000
  C   C1195     1.0  0.44065  0.56599  0.59784  1.0000
  C   C1196     1.0  0.41911  0.55552  0.54858  1.0000
  C   C1197     1.0  0.42684  0.54914  0.52730  1.0000
  C   C1198     1.0  0.25206  0.55463  0.50344  1.0000
  C   C1199     1.0  0.41124  0.57742  0.55186  1.0000
  C   C1200     1.0  0.48125  0.51827  0.63508  1.0000
  C   C1201     1.0  0.34867  0.49665  0.70012  1.0000
  C   C1202     1.0  0.11933  0.60699  0.49147  1.0000
  H   H954      1.0  0.41566  0.49470  0.54440  1.0000
  C   C1203     1.0  0.21364  0.58573  0.53901  1.0000
  H   H955      1.0  0.28610  0.54223  0.50331  1.0000
  H   H956      1.0  0.37503  0.54788  0.54907  1.0000
  C   C1204     1.0  0.43728  0.51312  0.56684  1.0000
  H   H957      1.0  0.39751  0.53390  0.61640  1.0000
  H   H958      1.0  0.40610  0.55357  0.65137  1.0000
  H   H959      1.0  0.43614  0.58201  0.65239  1.0000
  H   H960      1.0  0.45821  0.59004  0.61810  1.0000
  C   C1205     1.0  0.22978  0.64418  0.50634  1.0000
  C   C1206     1.0  0.47320  0.49552  0.57432  1.0000
  H   H961      1.0  0.18207  0.65726  0.53507  1.0000
  C   C1207     1.0  0.06716  0.62429  0.52685  1.0000
  C   C1208     1.0  0.11012  0.78324  0.70362  1.0000
  H   H962      1.0  0.43267  0.53234  0.52416  1.0000
  H   H963      1.0  0.28454  0.98204  0.59423  1.0000
  H   H964      1.0  0.33794  0.54950  0.71785  1.0000
  H   H965      1.0  0.30847  0.62854  0.56391  1.0000
  C   C1209     1.0  0.00758  0.67376  0.51386  1.0000
  H   H966      1.0  0.24851  0.51160  0.52150  1.0000
  H   H967      1.0  0.03320  0.92548  0.68679  1.0000
  C   C1210     1.0  0.17868  0.57329  0.55510  1.0000
  H   H968      1.0  0.22343  0.59889  0.53149  1.0000
  C   C1211     1.0  0.27643  0.49460  0.56801  1.0000
  C   C1212     1.0  0.00548  0.65969  0.57747  1.0000
  P   P41       1.0  0.12786  0.71004  0.68714  1.0000
  C   C1213     1.0  0.10309  0.69472  0.67905  1.0000
  C   C1214     1.0  0.12030  0.73838  0.69433  1.0000
  C   C1215     1.0  0.10348  0.74947  0.68231  1.0000
  H   H969      1.0  0.46306  0.52688  0.58823  1.0000
  C   C1216     1.0  0.27135  0.54571  0.49336  1.0000
  C   C1217     1.0  0.19153  0.59009  0.54529  1.0000
  C   C1218     1.0  0.09014  0.93537  0.71657  1.0000
  C   C1219     1.0  0.09523  0.69583  0.65696  1.0000
  C   C1220     1.0  0.07633  0.68379  0.65045  1.0000
  C   C1221     1.0  0.06502  0.67057  0.66601  1.0000
  C   C1222     1.0  0.07255  0.66951  0.68811  1.0000
  C   C1223     1.0  0.09148  0.68154  0.69465  1.0000
  C   C1224     1.0  0.14728  0.71127  0.66395  1.0000
  C   C1225     1.0  0.14996  0.69277  0.64975  1.0000
  C   C1226     1.0  0.16513  0.69356  0.63197  1.0000
  C   C1227     1.0  0.17794  0.71266  0.62833  1.0000
  C   C1228     1.0  0.17550  0.73111  0.64244  1.0000
  C   C1229     1.0  0.16022  0.73046  0.66018  1.0000
  C   C1230     1.0  0.11950  0.98149  0.70734  1.0000
  C   C1231     1.0  0.28930  0.55974  0.71693  1.0000
  H   H970      1.0  0.06782  0.71795  0.55355  1.0000
  C   C1232     1.0  0.02343  0.72044  0.64612  1.0000
  H   H971      1.0  0.16555  0.67823  0.69058  1.0000
  H   H972      1.0  0.09472  0.74125  0.66879  1.0000
  H   H973      1.0  0.10638  0.80069  0.70685  1.0000
  H   H974      1.0  0.00135  0.76352  0.54549  1.0000
  C   C1233     1.0  0.13105  0.96406  0.71808  1.0000
  H   H975      1.0  0.17807  0.53929  0.56672  1.0000
  H   H976      1.0  0.10392  0.70579  0.64465  1.0000
  H   H977      1.0  0.07070  0.68447  0.63322  1.0000
  H   H978      1.0  0.05061  0.66094  0.66090  1.0000
  H   H979      1.0  0.06386  0.65909  0.70010  1.0000
  H   H980      1.0  0.09705  0.68027  0.71179  1.0000
  H   H981      1.0  0.14044  0.67765  0.65246  1.0000
  H   H982      1.0  0.16702  0.67929  0.62101  1.0000
  H   H983      1.0  0.18970  0.71313  0.61452  1.0000
  H   H984      1.0  0.18527  0.74603  0.63949  1.0000
  H   H985      1.0  0.15850  0.74505  0.67072  1.0000
  C   C1234     1.0  0.02565  0.76697  0.64390  1.0000
  H   H986      1.0  0.08333  0.63127  0.52263  1.0000
  H   H987      1.0  0.25217  0.58564  0.57413  1.0000
  C   C1235     1.0  0.26173  0.53387  0.54681  1.0000
  C   C1236     1.0  0.01117  0.75540  0.62969  1.0000
  H   H988      1.0  0.03777  0.64594  0.56875  1.0000
  H   H989      1.0  0.02121  0.88478  0.62414  1.0000
  H   H990      1.0  0.03932  0.70763  0.60470  1.0000
  H   H991      1.0  0.06515  0.94127  0.66562  1.0000
  C   C1237     1.0  0.99675  0.74360  0.57519  1.0000
  C   C1238     1.0  0.00856  0.59582  0.62748  1.0000
  H   H992      1.0  0.13638  0.78149  0.72810  1.0000
  C   C1239     1.0  0.04561  0.59670  0.54705  1.0000
  C   C1240     1.0  0.14675  0.88327  0.71114  1.0000
  C   C1241     1.0  0.30910  0.96941  0.54445  1.0000
  H   H993      1.0  0.15790  0.95041  0.65793  1.0000
  C   C1242     1.0  0.06620  0.60613  0.54148  1.0000
  H   H994      1.0  0.01239  0.66859  0.53052  1.0000
  H   H995      1.0  0.28401  0.65167  0.49201  1.0000
  C   C1243     1.0  0.13231  0.75013  0.71077  1.0000
  H   H996      1.0  0.31394  0.95508  0.53444  1.0000
  C   C1244     1.0  0.29693  0.61612  0.55757  1.0000
  C   C1245     1.0  0.02883  0.65959  0.57672  1.0000
  H   H997      1.0  0.18432  0.98176  0.70792  1.0000
  C   C1246     1.0  0.27714  0.59820  0.71986  1.0000
  H   H998      1.0  0.09784  0.66483  0.49737  1.0000
  H   H999      1.0  0.12072  0.90460  0.69865  1.0000
  C   C1247     1.0  0.02600  0.60496  0.53739  1.0000
  C   C1248     1.0  0.00345  0.61708  0.63577  1.0000
  P   P42       1.0  0.99136  0.71669  0.61267  1.0000
  H   H1000     1.0  0.45027  0.56982  0.58296  1.0000
  H   H1001     1.0  0.40699  0.57276  0.73398  1.0000
  C   C1249     1.0  0.09696  0.70629  0.53602  1.0000
  C   C1250     1.0  0.28555  0.59064  0.52817  1.0000
  P   P43       1.0  0.25137  0.55896  0.53345  1.0000
  C   C1251     1.0  0.33706  0.53142  0.71727  1.0000
  C   C1252     1.0  0.15453  0.96450  0.71851  1.0000
  H   H1002     1.0  0.26131  0.63602  0.52242  1.0000
  C   C1253     1.0  0.19948  0.65301  0.53219  1.0000
  H   H1003     1.0  0.05003  0.76447  0.67019  1.0000
  C   C1254     1.0  0.25766  0.51290  0.53708  1.0000
  H   H1004     1.0  0.05881  0.67701  0.58603  1.0000
  C   C1255     1.0  0.41876  0.58617  0.51301  1.0000
  H   H1005     1.0  0.16161  0.57672  0.56015  1.0000
  C   C1256     1.0  0.10528  0.69137  0.52009  1.0000
  H   H1006     1.0  0.31321  0.61353  0.52562  1.0000
  C   C1257     1.0  0.21004  0.54773  0.55238  1.0000
  H   H1007     1.0  0.14580  0.87190  0.69710  1.0000
  C   C1258     1.0  0.06769  0.67736  0.51336  1.0000
  H   H1008     1.0  0.00291  0.90570  0.56752  1.0000
  C   C1259     1.0  0.00607  0.69400  0.59921  1.0000
  H   H1009     1.0  0.08143  0.59959  0.54889  1.0000
  C   C1260     1.0  0.35100  0.52352  0.55922  1.0000
  C   C1261     1.0  0.13345  0.91648  0.73044  1.0000
  P   P44       1.0  0.11603  0.94120  0.73101  1.0000
  C   C1262     1.0  0.06700  0.93725  0.68321  1.0000
  H   H1010     1.0  0.01453  0.74226  0.57845  1.0000
  C   C1263     1.0  0.29866  0.96630  0.56517  1.0000
  C   C1264     1.0  0.28053  0.57900  0.70703  1.0000
  H   H1011     1.0  0.04837  0.72310  0.67204  1.0000
  H   H1012     1.0  0.29548  0.94955  0.57125  1.0000
  C   C1265     1.0  0.20738  0.65029  0.51032  1.0000
  C   C1266     1.0  0.04747  0.63349  0.51802  1.0000
  H   H1013     1.0  0.10832  0.71690  0.54531  1.0000
  H   H1014     1.0  0.21691  0.53130  0.55549  1.0000
  C   C1267     1.0  0.03796  0.73209  0.66022  1.0000
  C   C1268     1.0  0.07409  0.70688  0.54064  1.0000
  C   C1269     1.0  0.01018  0.73201  0.63052  1.0000
  C   C1270     1.0  0.05950  0.69251  0.52940  1.0000
  H   H1015     1.0  0.01557  0.65076  0.63930  1.0000
  H   H1016     1.0  0.27695  0.57924  0.68923  1.0000
  H   H1017     1.0  0.02260  0.70241  0.64729  1.0000
  C   C1271     1.0  0.15903  0.68141  0.70718  1.0000
  H   H1018     1.0  0.01633  0.85175  0.60002  1.0000
  H   H1019     1.0  0.08610  0.78054  0.67708  1.0000
  C   C1272     1.0  0.29966  0.60751  0.53600  1.0000
  C   C1273     1.0  0.09844  0.77179  0.68699  1.0000
  C   C1274     1.0  0.27318  0.53490  0.56731  1.0000
  H   H1020     1.0  0.02644  0.78503  0.64324  1.0000
  H   H1021     1.0  0.14607  0.74234  0.71957  1.0000
  H   H1022     1.0  0.01162  0.62880  0.51490  1.0000
  H   H1023     1.0  0.20520  0.60706  0.49455  1.0000
  H   H1024     1.0  0.00065  0.76482  0.61839  1.0000
  H   H1025     1.0  0.11988  0.84529  0.73664  1.0000
  C   C1275     1.0  0.45960  0.51028  0.63837  1.0000
  H   H1026     1.0  0.03816  0.91427  0.72647  1.0000
  C   C1276     1.0  0.23308  0.55865  0.49015  1.0000
  C   C1277     1.0  0.26511  0.49338  0.54759  1.0000
  H   H1027     1.0  0.17260  0.86455  0.72782  1.0000
  H   H1028     1.0  0.43214  0.55942  0.49305  1.0000
  H   H1029     1.0  0.33044  0.49696  0.57207  1.0000
  C   C1278     1.0  0.29235  0.98476  0.57808  1.0000
  H   H1030     1.0  0.99629  0.64635  0.56955  1.0000
  C   C1279     1.0  0.16198  0.87920  0.72839  1.0000
  C   C1280     1.0  0.99409  0.67689  0.58858  1.0000
  H   H1031     1.0  0.39862  0.49669  0.59417  1.0000
  C   C1281     1.0  0.32259  0.49627  0.73115  1.0000
  C   C1282     1.0  0.39220  0.58306  0.73569  1.0000
  C   C1283     1.0  0.38559  0.50412  0.58401  1.0000
  C   C1284     1.0  0.34701  0.50419  0.57167  1.0000
  H   H1032     1.0  0.10141  0.98187  0.70707  1.0000
  C   C1285     1.0  0.32307  0.51970  0.73201  1.0000
  H   H1033     1.0  0.18259  0.65889  0.72254  1.0000
  C   C1286     1.0  0.16877  0.67031  0.72533  1.0000
  C   C1287     1.0  0.13286  0.69946  0.73239  1.0000
  H   H1034     1.0  0.11875  0.71046  0.73537  1.0000
  C   C1288     1.0  0.16622  0.98172  0.70791  1.0000
  C   C1289     1.0  0.98937  0.75550  0.55643  1.0000
  H   H1035     1.0  0.99105  0.84552  0.53214  1.0000
  H   H1036     1.0  0.02181  0.88963  0.49059  1.0000
  C   C1290     1.0  0.36436  0.49440  0.58387  1.0000
  C   C1291     1.0  0.98898  0.83392  0.54580  1.0000
  H   H1037     1.0  0.98859  0.93190  0.53867  1.0000
  C   C1292     1.0  0.05243  0.84171  0.48927  1.0000
  Fe  Fe85      1.0  0.14805  0.88383  0.84476  1.0000
  S   S170      1.0  0.17057  0.91338  0.84004  1.0000
  S   S171      1.0  0.14433  0.86114  0.81390  1.0000
  Fe  Fe86      1.0  0.14223  0.89414  0.89525  1.0000
  S   S172      1.0  0.16398  0.92480  0.89269  1.0000
  S   S173      1.0  0.12860  0.89010  0.93110  1.0000
  Fe  Fe87      1.0  0.14554  0.93269  0.86080  1.0000
  S   S174      1.0  0.13230  0.96533  0.84506  1.0000
  Fe  Fe88      1.0  0.18690  0.90281  0.87233  1.0000
  S   S175      1.0  0.22474  0.90427  0.87782  1.0000
  S   S176      1.0  0.12222  0.90333  0.86421  1.0000
  S   S177      1.0  0.16608  0.87195  0.87613  1.0000
  Fe  Fe89      1.0  0.37788  0.83239  0.90233  1.0000
  S   S178      1.0  0.38808  0.81728  0.93519  1.0000
  S   S179      1.0  0.40132  0.84588  0.87518  1.0000
  Fe  Fe90      1.0  0.32767  0.82262  0.91063  1.0000
  S   S180      1.0  0.33523  0.80541  0.94322  1.0000
  S   S181      1.0  0.29076  0.82333  0.90054  1.0000
  Fe  Fe91      1.0  0.35768  0.83464  0.95009  1.0000
  C   C1293     1.0  0.31241  0.76238  0.88649  1.0000
  Fe  Fe92      1.0  0.36447  0.78937  0.92522  1.0000
  S   S182      1.0  0.37457  0.75239  0.92802  1.0000
  S   S183      1.0  0.34943  0.85207  0.91755  1.0000
  S   S184      1.0  0.35511  0.80422  0.89224  1.0000
  Fe  Fe93      1.0  0.39150  0.58972  0.85810  1.0000
  S   S185      1.0  0.42332  0.58228  0.83942  1.0000
  S   S186      1.0  0.36826  0.56363  0.87416  1.0000
  Fe  Fe94      1.0  0.39535  0.64083  0.84938  1.0000
  S   S187      1.0  0.42666  0.63585  0.82883  1.0000
  S   S188      1.0  0.38127  0.67666  0.85178  1.0000
  Fe  Fe95      1.0  0.40918  0.60614  0.81343  1.0000
  S   S189      1.0  0.41040  0.59520  0.77648  1.0000
  Fe  Fe96      1.0  0.43801  0.61279  0.85649  1.0000
  S   S190      1.0  0.47010  0.62070  0.87669  1.0000
  S   S191      1.0  0.37712  0.61266  0.83183  1.0000
  S   S192      1.0  0.40685  0.61850  0.87729  1.0000
  H   H1038     1.0  0.25754  0.76529  0.90074  1.0000
  H   H1039     1.0  0.36116  0.78467  0.82448  1.0000
  C   C1294     1.0  0.37709  0.73171  0.90646  1.0000
  C   C1295     1.0  0.37116  0.73602  0.88421  1.0000
  C   C1296     1.0  0.37227  0.71885  0.86800  1.0000
  C   C1297     1.0  0.38021  0.69738  0.87339  1.0000
  C   C1298     1.0  0.38664  0.69317  0.89553  1.0000
  C   C1299     1.0  0.38496  0.71018  0.91193  1.0000
  H   H1040     1.0  0.36552  0.75250  0.87947  1.0000
  H   H1041     1.0  0.36688  0.72218  0.85108  1.0000
  H   H1042     1.0  0.39263  0.67673  0.90008  1.0000
  H   H1043     1.0  0.38966  0.70656  0.92903  1.0000
  C   C1300     1.0  0.38182  0.52200  0.85789  1.0000
  C   C1301     1.0  0.36558  0.53437  0.86938  1.0000
  C   C1302     1.0  0.34690  0.52306  0.87816  1.0000
  H   H1044     1.0  0.39623  0.53040  0.85093  1.0000
  H   H1045     1.0  0.37767  0.53838  0.75317  1.0000
  C   C1303     1.0  0.12585  0.83000  0.96403  1.0000
  C   C1304     1.0  0.32476  0.82600  0.84680  1.0000
  C   C1305     1.0  0.06158  0.88662  0.96639  1.0000
  H   H1046     1.0  0.27945  0.61292  0.75265  1.0000
  C   C1306     1.0  0.37648  0.50381  0.76328  1.0000
  C   C1307     1.0  0.24271  0.88158  0.88468  1.0000
  C   C1308     1.0  0.26542  0.88580  0.88916  1.0000
  C   C1309     1.0  0.28032  0.86825  0.89435  1.0000
  C   C1310     1.0  0.27270  0.84621  0.89482  1.0000
  C   C1311     1.0  0.25002  0.84198  0.89029  1.0000
  C   C1312     1.0  0.23505  0.85956  0.88546  1.0000
  H   H1047     1.0  0.27152  0.90277  0.88858  1.0000
  H   H1048     1.0  0.29773  0.87176  0.89773  1.0000
  H   H1049     1.0  0.24400  0.82499  0.89027  1.0000
  H   H1050     1.0  0.21771  0.85610  0.88187  1.0000
  H   H1051     1.0  0.29353  0.74996  0.91445  1.0000
  H   H1052     1.0  0.36419  0.49954  0.75080  1.0000
  C   C1313     1.0  0.27181  0.77956  0.87086  1.0000
  H   H1053     1.0  0.10167  0.92730  0.81160  1.0000
  H   H1054     1.0  0.34551  0.51860  0.82358  1.0000
  C   C1314     1.0  0.46676  0.83604  0.89238  1.0000
  C   C1315     1.0  0.44318  0.83605  0.89281  1.0000
  C   C1316     1.0  0.43096  0.84315  0.87464  1.0000
  C   C1317     1.0  0.44256  0.84848  0.85531  1.0000
  C   C1318     1.0  0.46610  0.84821  0.85443  1.0000
  H   H1055     1.0  0.43439  0.83087  0.90780  1.0000
  H   H1056     1.0  0.43315  0.85332  0.84060  1.0000
  H   H1057     1.0  0.25599  0.78642  0.86548  1.0000
  C   C1319     1.0  0.09541  0.86528  0.75384  1.0000
  C   C1320     1.0  0.09024  0.87590  0.77426  1.0000
  C   C1321     1.0  0.10520  0.87528  0.79257  1.0000
  C   C1322     1.0  0.12544  0.86363  0.79087  1.0000
  C   C1323     1.0  0.13046  0.85269  0.77058  1.0000
  C   C1324     1.0  0.11570  0.85369  0.75212  1.0000
  H   H1058     1.0  0.07454  0.88477  0.77590  1.0000
  H   H1059     1.0  0.10093  0.88356  0.80809  1.0000
  H   H1060     1.0  0.14595  0.84346  0.76909  1.0000
  C   C1325     1.0  0.27256  0.76756  0.89095  1.0000
  C   C1326     1.0  0.38936  0.59602  0.75520  1.0000
  C   C1327     1.0  0.12707  0.86888  0.95204  1.0000
  C   C1328     1.0  0.12918  0.84613  0.94709  1.0000
  H   H1061     1.0  0.39254  0.48927  0.84728  1.0000
  H   H1062     1.0  0.13283  0.84092  0.93015  1.0000
  H   H1063     1.0  0.41834  0.52099  0.80965  1.0000
  C   C1329     1.0  0.47573  0.87692  0.77881  1.0000
  C   C1330     1.0  0.16140  0.96364  0.78823  1.0000
  C   C1331     1.0  0.02470  0.85339  0.88573  1.0000
  C   C1332     1.0  0.03138  0.87502  0.89175  1.0000
  C   C1333     1.0  0.01509  0.89166  0.89485  1.0000
  P   P45       1.0  0.06028  0.88073  0.89799  1.0000
  C   C1334     1.0  0.06701  0.90912  0.89033  1.0000
  C   C1335     1.0  0.06335  0.87474  0.92750  1.0000
  C   C1336     1.0  0.06741  0.85277  0.93471  1.0000
  C   C1337     1.0  0.18081  0.95796  0.77650  1.0000
  C   C1338     1.0  0.38400  0.52584  0.76464  1.0000
  H   H1064     1.0  0.33624  0.57281  0.76153  1.0000
  H   H1065     1.0  0.46441  0.89085  0.80996  1.0000
  C   C1339     1.0  0.05783  0.91846  0.87079  1.0000
  C   C1340     1.0  0.06389  0.93995  0.86399  1.0000
  C   C1341     1.0  0.07935  0.95217  0.87647  1.0000
  C   C1342     1.0  0.08888  0.94286  0.89567  1.0000
  C   C1343     1.0  0.08281  0.92138  0.90254  1.0000
  C   C1344     1.0  0.07825  0.86373  0.88062  1.0000
  C   C1345     1.0  0.07296  0.86033  0.85797  1.0000
  C   C1346     1.0  0.08730  0.84794  0.84421  1.0000
  C   C1347     1.0  0.10707  0.83902  0.85292  1.0000
  C   C1348     1.0  0.11260  0.84261  0.87534  1.0000
  C   C1349     1.0  0.09837  0.85511  0.88908  1.0000
  C   C1350     1.0  0.99253  0.88699  0.89092  1.0000
  H   H1066     1.0  0.45108  0.50773  0.90363  1.0000
  H   H1067     1.0  0.27120  0.77359  0.75536  1.0000
  H   H1068     1.0  0.03690  0.84008  0.88418  1.0000
  H   H1069     1.0  0.01981  0.90821  0.90041  1.0000
  H   H1070     1.0  0.06940  0.83935  0.92275  1.0000
  C   C1351     1.0  0.06914  0.84793  0.95754  1.0000
  H   H1071     1.0  0.33095  0.51103  0.92756  1.0000
  C   C1352     1.0  0.10025  0.97068  0.76343  1.0000
  C   C1353     1.0  0.26638  0.88484  0.98734  1.0000
  H   H1072     1.0  0.04627  0.90902  0.86059  1.0000
  H   H1073     1.0  0.05693  0.94704  0.84884  1.0000
  C   C1354     1.0  0.32886  0.52552  0.79227  1.0000
  H   H1074     1.0  0.10143  0.95207  0.90491  1.0000
  H   H1075     1.0  0.09095  0.91422  0.91701  1.0000
  H   H1076     1.0  0.05797  0.86753  0.85081  1.0000
  H   H1077     1.0  0.08341  0.84565  0.82664  1.0000
  H   H1078     1.0  0.11839  0.82986  0.84209  1.0000
  H   H1079     1.0  0.12820  0.83619  0.88196  1.0000
  H   H1080     1.0  0.10335  0.85844  0.90613  1.0000
  H   H1081     1.0  0.18667  0.94083  0.77647  1.0000
  C   C1355     1.0  0.42377  0.53672  0.95061  1.0000
  C   C1356     1.0  0.21097  0.84530  0.94895  1.0000
  H   H1082     1.0  0.33415  0.53247  0.88692  1.0000
  C   C1357     1.0  0.32526  0.54120  0.77518  1.0000
  C   C1358     1.0  0.46540  0.76793  0.84515  1.0000
  H   H1083     1.0  0.33034  0.49125  0.88301  1.0000
  H   H1084     1.0  0.48248  0.64362  0.83231  1.0000
  H   H1085     1.0  0.11309  0.91624  0.77356  1.0000
  H   H1086     1.0  0.27799  0.89735  0.95550  1.0000
  C   C1359     1.0  0.06632  0.86486  0.97337  1.0000
  C   C1360     1.0  0.25204  0.49366  0.75304  1.0000
  C   C1361     1.0  0.16063  0.67381  0.74699  1.0000
  C   C1362     1.0  0.39928  0.53192  0.78119  1.0000
  H   H1087     1.0  0.28336  0.53098  0.79574  1.0000
  H   H1088     1.0  0.15072  0.92389  0.76137  1.0000
  C   C1363     1.0  0.29147  0.78327  0.85850  1.0000
  C   C1364     1.0  0.29720  0.75608  0.81223  1.0000
  C   C1365     1.0  0.44225  0.71662  0.88670  1.0000
  C   C1366     1.0  0.44541  0.72710  0.86587  1.0000
  C   C1367     1.0  0.44834  0.71384  0.84671  1.0000
  P   P46       1.0  0.44380  0.75717  0.86335  1.0000
  C   C1368     1.0  0.44746  0.76914  0.89081  1.0000
  H   H1089     1.0  0.41262  0.57035  0.89622  1.0000
  C   C1369     1.0  0.20860  0.89135  0.94057  1.0000
  H   H1090     1.0  0.47599  0.66414  0.79680  1.0000
  C   C1370     1.0  0.09344  0.96100  0.80218  1.0000
  H   H1091     1.0  0.45025  0.72143  0.83038  1.0000
  C   C1371     1.0  0.45346  0.78387  0.93499  1.0000
  C   C1372     1.0  0.43225  0.77763  0.92755  1.0000
  C   C1373     1.0  0.42921  0.77045  0.90553  1.0000
  C   C1374     1.0  0.41703  0.76531  0.85178  1.0000
  C   C1375     1.0  0.40537  0.75111  0.83717  1.0000
  C   C1376     1.0  0.38535  0.75813  0.82727  1.0000
  C   C1377     1.0  0.37677  0.77932  0.83191  1.0000
  C   C1378     1.0  0.38831  0.79355  0.84631  1.0000
  C   C1379     1.0  0.40824  0.78658  0.85631  1.0000
  H   H1092     1.0  0.43949  0.68532  0.90430  1.0000
  C   C1380     1.0  0.27942  0.78405  0.78889  1.0000
  H   H1093     1.0  0.42639  0.58977  0.93005  1.0000
  H   H1094     1.0  0.46274  0.96545  0.83460  1.0000
  H   H1095     1.0  0.18049  0.77693  0.94851  1.0000
  C   C1381     1.0  0.46297  0.78916  0.83542  1.0000
  H   H1096     1.0  0.32049  0.50957  0.79188  1.0000
  C   C1382     1.0  0.33761  0.56108  0.77523  1.0000
  C   C1383     1.0  0.10106  0.93935  0.79806  1.0000
  H   H1097     1.0  0.41812  0.77795  0.93894  1.0000
  H   H1098     1.0  0.41271  0.76526  0.90020  1.0000
  H   H1099     1.0  0.41131  0.73446  0.83355  1.0000
  H   H1100     1.0  0.37635  0.74691  0.81629  1.0000
  H   H1101     1.0  0.38180  0.81002  0.84990  1.0000
  H   H1102     1.0  0.41684  0.79791  0.86747  1.0000
  C   C1384     1.0  0.46323  0.94892  0.84196  1.0000
  C   C1385     1.0  0.44617  0.94212  0.85641  1.0000
  C   C1386     1.0  0.44678  0.92079  0.86583  1.0000
  C   C1387     1.0  0.46447  0.90630  0.86091  1.0000
  C   C1388     1.0  0.28059  0.78878  0.97266  1.0000
  C   C1389     1.0  0.36632  0.50470  0.92983  1.0000
  H   H1103     1.0  0.45571  0.78944  0.95209  1.0000
  H   H1104     1.0  0.43245  0.95333  0.86027  1.0000
  H   H1105     1.0  0.43348  0.91538  0.87692  1.0000
  H   H1106     1.0  0.46441  0.88999  0.86848  1.0000
  C   C1390     1.0  0.28676  0.74707  0.77411  1.0000
  H   H1107     1.0  0.27314  0.80084  0.78631  1.0000
  C   C1391     1.0  0.26649  0.81629  0.83112  1.0000
  C   C1392     1.0  0.24521  0.80754  0.82639  1.0000
  C   C1393     1.0  0.22648  0.82159  0.82554  1.0000
  C   C1394     1.0  0.22886  0.84449  0.82925  1.0000
  C   C1395     1.0  0.24995  0.85334  0.83380  1.0000
  C   C1396     1.0  0.26866  0.83933  0.83497  1.0000
  C   C1397     1.0  0.31580  0.81434  0.82854  1.0000
  C   C1398     1.0  0.34399  0.83898  0.84428  1.0000
  C   C1399     1.0  0.35453  0.84036  0.82347  1.0000
  C   C1400     1.0  0.34573  0.82889  0.80512  1.0000
  C   C1401     1.0  0.32639  0.81597  0.80759  1.0000
  H   H1108     1.0  0.21007  0.81481  0.82206  1.0000
  H   H1109     1.0  0.21434  0.85540  0.82889  1.0000
  H   H1110     1.0  0.25167  0.87106  0.83716  1.0000
  H   H1111     1.0  0.28461  0.84662  0.83923  1.0000
  H   H1112     1.0  0.30470  0.75081  0.82783  1.0000
  H   H1113     1.0  0.35086  0.84782  0.85856  1.0000
  H   H1114     1.0  0.36959  0.85025  0.82171  1.0000
  H   H1115     1.0  0.35390  0.83002  0.78898  1.0000
  H   H1116     1.0  0.31985  0.80735  0.79313  1.0000
  C   C1402     1.0  0.17855  0.78540  0.96435  1.0000
  C   C1403     1.0  0.39975  0.49388  0.79490  1.0000
  C   C1404     1.0  0.26386  0.79261  0.98856  1.0000
  H   H1117     1.0  0.43334  0.56836  0.96497  1.0000
  H   H1118     1.0  0.99707  0.83207  0.87703  1.0000
  P   P47       1.0  0.41232  0.49567  0.93112  1.0000
  C   C1405     1.0  0.48089  0.93439  0.83691  1.0000
  C   C1406     1.0  0.25663  0.50775  0.79072  1.0000
  H   H1119     1.0  0.33947  0.62013  0.74125  1.0000
  C   C1407     1.0  0.48178  0.91299  0.84648  1.0000
  H   H1120     1.0  0.17478  0.89053  0.76009  1.0000
  C   C1408     1.0  0.24302  0.80095  0.98189  1.0000
  H   H1121     1.0  0.48443  0.68649  0.92199  1.0000
  H   H1122     1.0  0.45924  0.87718  0.77133  1.0000
  C   C1409     1.0  0.27834  0.88356  0.96723  1.0000
  C   C1410     1.0  0.16324  0.89386  0.74651  1.0000
  H   H1123     1.0  0.08822  0.96568  0.81892  1.0000
  P   P48       1.0  0.29062  0.79795  0.83202  1.0000
  C   C1411     1.0  0.31176  0.77436  0.86639  1.0000
  H   H1124     1.0  0.46515  0.49393  0.86736  1.0000
  H   H1125     1.0  0.13625  0.69094  0.76729  1.0000
  H   H1126     1.0  0.19641  0.78345  0.86132  1.0000
  C   C1412     1.0  0.47174  0.78264  0.92044  1.0000
  H   H1127     1.0  0.24308  0.78983  0.82354  1.0000
  C   C1413     1.0  0.29064  0.57869  0.75274  1.0000
  H   H1128     1.0  0.05580  0.90840  0.93851  1.0000
  P   P49       1.0  0.21159  0.81520  0.95006  1.0000
  C   C1414     1.0  0.34376  0.49875  0.93129  1.0000
  H   H1129     1.0  0.15416  0.76170  0.97625  1.0000
  C   C1415     1.0  0.19902  0.78938  0.87825  1.0000
  H   H1130     1.0  0.07305  0.83112  0.96305  1.0000
  H   H1131     1.0  0.31680  0.82521  0.86300  1.0000
  H   H1132     1.0  0.36122  0.58146  0.79327  1.0000
  C   C1416     1.0  0.28873  0.77782  0.80956  1.0000
  C   C1417     1.0  0.29111  0.86463  0.96233  1.0000
  H   H1133     1.0  0.32811  0.75588  0.89279  1.0000
  C   C1418     1.0  0.05985  0.89152  0.94355  1.0000
  C   C1419     1.0  0.14266  0.68836  0.75051  1.0000
  H   H1134     1.0  0.21383  0.75863  0.88968  1.0000
  H   H1135     1.0  0.40614  0.52983  0.89680  1.0000
  H   H1136     1.0  0.08430  0.96868  0.87103  1.0000
  C   C1420     1.0  0.19582  0.81874  0.90596  1.0000
  H   H1137     1.0  0.20753  0.90894  0.93639  1.0000
  H   H1138     1.0  0.32713  0.77675  0.85712  1.0000
  C   C1421     1.0  0.29285  0.75901  0.89876  1.0000
  C   C1422     1.0  0.19053  0.85673  0.95092  1.0000
  C   C1423     1.0  0.20887  0.77544  0.89421  1.0000
  C   C1424     1.0  0.46880  0.77529  0.89840  1.0000
  C   C1425     1.0  0.28263  0.51894  0.76150  1.0000
  C   C1426     1.0  0.37018  0.60936  0.75701  1.0000
  H   H1139     1.0  0.36777  0.61959  0.77174  1.0000
  C   C1427     1.0  0.19245  0.81098  0.88414  1.0000
  H   H1140     1.0  0.18486  0.82186  0.87177  1.0000
  C   C1428     1.0  0.27511  0.52023  0.78376  1.0000
  C   C1429     1.0  0.44238  0.69334  0.88831  1.0000
  H   H1141     1.0  0.19066  0.83559  0.90997  1.0000
  C   C1430     1.0  0.21240  0.78319  0.91602  1.0000
  H   H1142     1.0  0.22013  0.77222  0.92820  1.0000
  C   C1431     1.0  0.38305  0.48880  0.93412  1.0000
  H   H1143     1.0  0.17530  0.84783  0.95486  1.0000
  C   C1432     1.0  0.34468  0.49968  0.87598  1.0000
  H   H1144     1.0  0.44443  0.66229  0.87034  1.0000
  H   H1145     1.0  0.44889  0.68048  0.83341  1.0000
  C   C1433     1.0  0.41217  0.53795  0.91179  1.0000
  C   C1434     1.0  0.25584  0.80204  0.94347  1.0000
  H   H1146     1.0  0.47306  0.82992  0.90817  1.0000
  H   H1147     1.0  0.28948  0.79081  0.93775  1.0000
  C   C1435     1.0  0.20609  0.80499  0.92204  1.0000
  H   H1148     1.0  0.30059  0.86368  0.94686  1.0000
  H   H1149     1.0  0.30278  0.72405  0.79674  1.0000
  C   C1436     1.0  0.44507  0.68033  0.86914  1.0000
  H   H1150     1.0  0.25326  0.80594  0.92598  1.0000
  C   C1437     1.0  0.37972  0.49862  0.85594  1.0000
  C   C1438     1.0  0.23876  0.80551  0.95920  1.0000
  C   C1439     1.0  0.27839  0.76869  0.77127  1.0000
  C   C1440     1.0  0.18939  0.87967  0.94669  1.0000
  H   H1151     1.0  0.16819  0.66515  0.76101  1.0000
  H   H1152     1.0  0.36556  0.55479  0.82440  1.0000
  H   H1153     1.0  0.43914  0.72618  0.90173  1.0000
  C   C1441     1.0  0.48133  0.84383  0.87360  1.0000
  C   C1442     1.0  0.12070  0.83633  0.98618  1.0000
  C   C1443     1.0  0.41585  0.56096  0.91139  1.0000
  C   C1444     1.0  0.27653  0.79351  0.95014  1.0000
  C   C1445     1.0  0.34316  0.53048  0.81011  1.0000
  H   H1154     1.0  0.47168  0.85317  0.83800  1.0000
  H   H1155     1.0  0.25106  0.50864  0.80797  1.0000
  H   H1156     1.0  0.40481  0.54907  0.78248  1.0000
  C   C1446     1.0  0.22904  0.88018  0.93903  1.0000
  C   C1447     1.0  0.40697  0.51602  0.79646  1.0000
  H   H1157     1.0  0.44850  0.79943  0.83903  1.0000
  C   C1448     1.0  0.10802  0.93327  0.77656  1.0000
  H   H1158     1.0  0.28605  0.73519  0.76043  1.0000
  C   C1449     1.0  0.35192  0.56598  0.79306  1.0000
  C   C1450     1.0  0.23030  0.85724  0.94320  1.0000
  P   P50       1.0  0.30660  0.53479  0.75232  1.0000
  H   H1159     1.0  0.17348  0.88832  0.94758  1.0000
  C   C1451     1.0  0.35449  0.55082  0.81061  1.0000
  H   H1160     1.0  0.29422  0.57881  0.77050  1.0000
  C   C1452     1.0  0.29217  0.84711  0.97766  1.0000
  H   H1161     1.0  0.09942  0.98286  0.75017  1.0000
  C   C1453     1.0  0.10814  0.94903  0.75916  1.0000
  S   S193      1.0  0.35149  0.85932  0.97894  1.0000
  C   C1454     1.0  0.19060  0.80491  0.96919  1.0000
  H   H1162     1.0  0.12688  0.81245  0.95988  1.0000
  H   H1163     1.0  0.24373  0.88915  0.93349  1.0000
  C   C1455     1.0  0.41622  0.52559  0.93134  1.0000
  C   C1456     1.0  0.00212  0.84876  0.88182  1.0000
  C   C1457     1.0  0.29617  0.74079  0.79456  1.0000
  C   C1458     1.0  0.44783  0.69059  0.84835  1.0000
  H   H1164     1.0  0.37049  0.52158  0.92492  1.0000
  H   H1165     1.0  0.24617  0.84879  0.94090  1.0000
  H   H1166     1.0  0.42698  0.52772  0.96596  1.0000
  C   C1459     1.0  0.12254  0.87521  0.97430  1.0000
  H   H1167     1.0  0.12079  0.89273  0.97835  1.0000
  C   C1460     1.0  0.47875  0.88477  0.80067  1.0000
  H   H1168     1.0  0.15218  0.95102  0.79742  1.0000
  C   C1461     1.0  0.09289  0.97663  0.78483  1.0000
  C   C1462     1.0  0.47933  0.79747  0.82094  1.0000
  H   H1169     1.0  0.47727  0.81384  0.81350  1.0000
  C   C1463     1.0  0.42352  0.57190  0.93052  1.0000
  C   C1464     1.0  0.42742  0.55980  0.95015  1.0000
  C   C1465     1.0  0.44234  0.49425  0.89531  1.0000
  H   H1170     1.0  0.05943  0.89972  0.97871  1.0000
  H   H1171     1.0  0.29679  0.78241  0.97777  1.0000
  C   C1466     1.0  0.14930  0.91260  0.74736  1.0000
  C   C1467     1.0  0.19272  0.97442  0.76501  1.0000
  C   C1468     1.0  0.16371  0.77655  0.98010  1.0000
  C   C1469     1.0  0.28201  0.59800  0.74275  1.0000
  H   H1172     1.0  0.07405  0.92041  0.74543  1.0000
  C   C1470     1.0  0.24519  0.49435  0.77541  1.0000
  C   C1471     1.0  0.48489  0.75551  0.84079  1.0000
  C   C1472     1.0  0.15411  0.98580  0.78877  1.0000
  H   H1173     1.0  0.48320  0.77411  0.88747  1.0000
  C   C1473     1.0  0.27055  0.50608  0.74605  1.0000
  H   H1174     1.0  0.30277  0.83285  0.97414  1.0000
  H   H1175     1.0  0.48757  0.73942  0.84860  1.0000
  H   H1176     1.0  0.20767  0.96997  0.75576  1.0000
  C   C1474     1.0  0.29496  0.55963  0.73974  1.0000
  C   C1475     1.0  0.48760  0.67071  0.80907  1.0000
  C   C1476     1.0  0.35417  0.60969  0.73961  1.0000
  H   H1177     1.0  0.48820  0.78721  0.92636  1.0000
  H   H1178     1.0  0.40020  0.48756  0.97791  1.0000
  C   C1477     1.0  0.38480  0.48748  0.77793  1.0000
  Fe  Fe97      1.0  0.54135  0.34824  0.16649  1.0000
  S   S194      1.0  0.56550  0.34333  0.13806  1.0000
  H   H1179     1.0  0.83960  0.11767  0.23423  1.0000
  Fe  Fe98      1.0  0.57992  0.36146  0.19971  1.0000
  S   S195      1.0  0.60615  0.35695  0.17302  1.0000
  C   C1478     1.0  0.50151  0.11094  0.12526  1.0000
  Fe  Fe99      1.0  0.58203  0.37519  0.15049  1.0000
  S   S196      1.0  0.58923  0.40491  0.12740  1.0000
  Fe  Fe100     1.0  0.58732  0.32553  0.16322  1.0000
  S   S197      1.0  0.60271  0.29027  0.16133  1.0000
  S   S198      1.0  0.55642  0.38093  0.17739  1.0000
  S   S199      1.0  0.56241  0.32922  0.19149  1.0000
  Fe  Fe101     1.0  0.83296  0.03255  0.13763  1.0000
  S   S200      1.0  0.85966  0.05893  0.13960  1.0000
  H   H1180     1.0  0.52373  0.48508  0.22800  1.0000
  Fe  Fe102     1.0  0.79712  0.06770  0.12214  1.0000
  S   S201      1.0  0.82195  0.09580  0.12401  1.0000
  S   S202      1.0  0.76183  0.07116  0.10681  1.0000
  Fe  Fe103     1.0  0.84568  0.07205  0.10679  1.0000
  S   S203      1.0  0.86902  0.08059  0.07729  1.0000
  Fe  Fe104     1.0  0.83362  0.08007  0.15663  1.0000
  S   S204      1.0  0.83745  0.09964  0.18959  1.0000
  S   S205      1.0  0.82064  0.04418  0.10385  1.0000
  S   S206      1.0  0.80706  0.05352  0.15566  1.0000
  Fe  Fe105     1.0  0.63092  0.14166  0.05053  1.0000
  S   S207      1.0  0.62621  0.11764  0.07914  1.0000
  S   S208      1.0  0.64957  0.12627  0.02066  1.0000
  Fe  Fe106     1.0  0.61894  0.18226  0.08143  1.0000
  S   S209      1.0  0.61468  0.16047  0.11172  1.0000
  S   S210      1.0  0.61280  0.22006  0.08080  1.0000
  Fe  Fe107     1.0  0.64587  0.14236  0.09933  1.0000
  S   S211      1.0  0.67639  0.13461  0.12126  1.0000
  Fe  Fe108     1.0  0.59550  0.13788  0.08850  1.0000
  S   S212      1.0  0.56042  0.12277  0.09284  1.0000
  S   S213      1.0  0.65120  0.16600  0.07077  1.0000
  S   S214      1.0  0.59890  0.16017  0.05823  1.0000
  C   C1479     1.0  0.53924  0.12261  0.11395  1.0000
  C   C1480     1.0  0.51850  0.11274  0.10894  1.0000
  C   C1481     1.0  0.58100  0.10379  0.03365  1.0000
  C   C1482     1.0  0.52568  0.12906  0.15197  1.0000
  C   C1483     1.0  0.54261  0.13111  0.13553  1.0000
  H   H1181     1.0  0.51565  0.10607  0.09236  1.0000
  C   C1484     1.0  0.67259  0.07177  0.03081  1.0000
  H   H1182     1.0  0.55843  0.13874  0.13972  1.0000
  C   C1485     1.0  0.73916  0.09046  0.10988  1.0000
  C   C1486     1.0  0.73906  0.10739  0.12604  1.0000
  C   C1487     1.0  0.71995  0.12108  0.12889  1.0000
  C   C1488     1.0  0.70080  0.11830  0.11545  1.0000
  C   C1489     1.0  0.70119  0.10189  0.09876  1.0000
  C   C1490     1.0  0.72020  0.08805  0.09608  1.0000
  H   H1183     1.0  0.75343  0.10949  0.13682  1.0000
  H   H1184     1.0  0.71985  0.13361  0.14191  1.0000
  H   H1185     1.0  0.68663  0.09943  0.08835  1.0000
  H   H1186     1.0  0.72006  0.07508  0.08349  1.0000
  C   C1491     1.0  0.87371  0.07888  0.21067  1.0000
  C   C1492     1.0  0.85605  0.09416  0.21237  1.0000
  C   C1493     1.0  0.64381  0.12017  0.99206  1.0000
  H   H1187     1.0  0.87609  0.06964  0.19528  1.0000
  C   C1494     1.0  0.51975  0.27940  0.14345  1.0000
  C   C1495     1.0  0.85382  0.11767  0.01091  1.0000
  C   C1496     1.0  0.87515  0.10898  0.01516  1.0000
  C   C1497     1.0  0.87950  0.09756  0.03546  1.0000
  C   C1498     1.0  0.86266  0.09471  0.05176  1.0000
  C   C1499     1.0  0.84129  0.10300  0.04727  1.0000
  C   C1500     1.0  0.83693  0.11412  0.02694  1.0000
  H   H1188     1.0  0.79589  0.99736  0.02993  1.0000
  H   H1189     1.0  0.89610  0.09111  0.03869  1.0000
  H   H1190     1.0  0.82808  0.10090  0.05948  1.0000
  H   H1191     1.0  0.82029  0.12007  0.02379  1.0000
  C   C1501     1.0  0.60510  0.27094  0.13871  1.0000
  C   C1502     1.0  0.60186  0.27730  0.11644  1.0000
  C   C1503     1.0  0.60446  0.26156  0.09901  1.0000
  C   C1504     1.0  0.61007  0.23918  0.10356  1.0000
  C   C1505     1.0  0.61307  0.23271  0.12586  1.0000
  C   C1506     1.0  0.61083  0.24854  0.14328  1.0000
  H   H1192     1.0  0.59783  0.29447  0.11265  1.0000
  H   H1193     1.0  0.60225  0.26681  0.08185  1.0000
  H   H1194     1.0  0.61741  0.21559  0.12960  1.0000
  H   H1195     1.0  0.61357  0.24345  0.16042  1.0000
  C   C1507     1.0  0.63153  0.46760  0.14289  1.0000
  C   C1508     1.0  0.61564  0.46782  0.12572  1.0000
  C   C1509     1.0  0.60272  0.44859  0.12132  1.0000
  C   C1510     1.0  0.60515  0.42909  0.13431  1.0000
  C   C1511     1.0  0.62079  0.42905  0.15171  1.0000
  C   C1512     1.0  0.63405  0.44808  0.15577  1.0000
  H   H1196     1.0  0.51632  0.29608  0.17525  1.0000
  H   H1197     1.0  0.59078  0.44878  0.10774  1.0000
  H   H1198     1.0  0.62309  0.41412  0.16165  1.0000
  H   H1199     1.0  0.64644  0.44760  0.16894  1.0000
  C   C1513     1.0  0.68457  0.48319  0.20158  1.0000
  H   H1200     1.0  0.60666  0.09324  0.19940  1.0000
  C   C1514     1.0  0.63777  0.13196  0.22534  1.0000
  C   C1515     1.0  0.81134  0.02618  0.04477  1.0000
  C   C1516     1.0  0.64451  0.11379  0.21206  1.0000
  C   C1517     1.0  0.69011  0.07376  0.14944  1.0000
  H   H1201     1.0  0.50672  0.29241  0.07007  1.0000
  C   C1518     1.0  0.70981  0.07602  0.16175  1.0000
  C   C1519     1.0  0.68640  0.17356  0.01201  1.0000
  C   C1520     1.0  0.80573  0.01222  0.02690  1.0000
  C   C1521     1.0  0.58708  0.99962  0.05634  1.0000
  H   H1202     1.0  0.77678  0.05517  0.02103  1.0000
  H   H1203     1.0  0.67304  0.47246  0.05958  1.0000
  H   H1204     1.0  0.68993  0.20510  0.02881  1.0000
  C   C1522     1.0  0.50037  0.20187  0.16350  1.0000
  C   C1523     1.0  0.69144  0.10281  0.18600  1.0000
  H   H1205     1.0  0.54193  0.21313  0.20092  1.0000
  H   H1206     1.0  0.65622  0.08417  0.14523  1.0000
  C   C1524     1.0  0.63093  0.18112  0.16648  1.0000
  C   C1525     1.0  0.54712  0.19981  0.16783  1.0000
  C   C1526     1.0  0.71048  0.09055  0.18002  1.0000
  C   C1527     1.0  0.59918  0.10147  0.13551  1.0000
  C   C1528     1.0  0.82377  0.04551  0.04091  1.0000
  C   C1529     1.0  0.57232  0.01486  0.04650  1.0000
  C   C1530     1.0  0.66997  0.15581  0.17157  1.0000
  H   H1207     1.0  0.63412  0.14802  0.21791  1.0000
  H   H1208     1.0  0.67802  0.08357  0.04345  1.0000
  H   H1209     1.0  0.81866  0.05878  0.21346  1.0000
  H   H1210     1.0  0.72474  0.06699  0.15669  1.0000
  C   C1531     1.0  0.67105  0.08603  0.15532  1.0000
  C   C1532     1.0  0.60968  0.99970  0.05036  1.0000
  H   H1211     1.0  0.63156  0.11689  0.13581  1.0000
  C   C1533     1.0  0.68178  0.47904  0.07400  1.0000
  C   C1534     1.0  0.76788  0.19979  0.99778  1.0000
  H   H1212     1.0  0.68742  0.18583  0.16233  1.0000
  C   C1535     1.0  0.59751  0.07633  0.00855  1.0000
  C   C1536     1.0  0.65178  0.19100  0.16300  1.0000
  C   C1537     1.0  0.51368  0.19375  0.14588  1.0000
  C   C1538     1.0  0.54290  0.27196  0.17586  1.0000
  C   C1539     1.0  0.67127  0.17835  0.16558  1.0000
  C   C1540     1.0  0.69183  0.47574  0.11313  1.0000
  C   C1541     1.0  0.83074  0.05083  0.01922  1.0000
  H   H1213     1.0  0.90248  0.06433  0.22698  1.0000
  H   H1214     1.0  0.61582  0.19087  0.16421  1.0000
  C   C1542     1.0  0.50506  0.11881  0.14701  1.0000
  C   C1543     1.0  0.70831  0.20423  0.99768  1.0000
  C   C1544     1.0  0.49039  0.34942  0.12134  1.0000
  C   C1545     1.0  0.58521  0.08850  0.17118  1.0000
  C   C1546     1.0  0.53089  0.44997  0.22692  1.0000
  H   H1215     1.0  0.95241  0.27722  0.99782  1.0000
  P   P51       1.0  0.64696  0.11641  0.18203  1.0000
  C   C1547     1.0  0.82890  0.02454  0.20931  1.0000
  C   C1548     1.0  0.53693  0.19276  0.14805  1.0000
  H   H1216     1.0  0.82802  0.05644  0.05473  1.0000
  C   C1549     1.0  0.65255  0.43033  0.23685  1.0000
  H   H1217     1.0  0.77279  0.12312  0.99925  1.0000
  S   S215      1.0  0.58791  0.37926  0.23292  1.0000
  H   H1218     1.0  0.55479  0.01481  0.05111  1.0000
  H   H1219     1.0  0.59684  0.10380  0.11770  1.0000
  S   S216      1.0  0.84021  0.99829  0.15373  1.0000
  H   H1220     1.0  0.57812  0.10993  0.05046  1.0000
  H   H1221     1.0  0.56693  0.08628  0.14012  1.0000
  S   S217      1.0  0.50367  0.34021  0.16530  1.0000
  H   H1222     1.0  0.60612  0.45625  0.19968  1.0000
  H   H1223     1.0  0.87315  0.04296  0.00579  1.0000
  C   C1550     1.0  0.68109  0.46726  0.09421  1.0000
  H   H1224     1.0  0.57198  0.08096  0.18098  1.0000
  H   H1225     1.0  0.54751  0.25341  0.05776  1.0000
  H   H1226     1.0  0.82292  0.02345  0.19223  1.0000
  H   H1227     1.0  0.54547  0.30306  0.11021  1.0000
  C   C1551     1.0  0.52524  0.28344  0.16584  1.0000
  H   H1228     1.0  0.61359  0.48264  0.11558  1.0000
  H   H1229     1.0  0.49976  0.18269  0.08202  1.0000
  C   C1552     1.0  0.61887  0.44911  0.21040  1.0000
  C   C1553     1.0  0.51074  0.20863  0.18346  1.0000
  H   H1230     1.0  0.54777  0.27582  0.19288  1.0000
  C   C1554     1.0  0.69137  0.48206  0.22408  1.0000
  C   C1555     1.0  0.62955  0.15855  0.17229  1.0000
  H   H1231     1.0  0.88836  0.11140  0.00304  1.0000
  H   H1232     1.0  0.54703  0.18623  0.13445  1.0000
  C   C1556     1.0  0.83695  0.15928  0.06943  1.0000
  C   C1557     1.0  0.83373  0.15426  0.09202  1.0000
  C   C1558     1.0  0.81252  0.14832  0.09972  1.0000
  C   C1559     1.0  0.79464  0.14684  0.08475  1.0000
  C   C1560     1.0  0.79764  0.15193  0.06195  1.0000
  C   C1561     1.0  0.81900  0.15828  0.05447  1.0000
  P   P52       1.0  0.77481  0.14792  0.04241  1.0000
  C   C1562     1.0  0.77465  0.11856  0.03526  1.0000
  C   C1563     1.0  0.74910  0.15481  0.05669  1.0000
  C   C1564     1.0  0.72970  0.14214  0.05319  1.0000
  C   C1565     1.0  0.71012  0.14720  0.06499  1.0000
  C   C1566     1.0  0.70987  0.16479  0.08037  1.0000
  C   C1567     1.0  0.72894  0.17778  0.08350  1.0000
  C   C1568     1.0  0.74846  0.17294  0.07159  1.0000
  C   C1569     1.0  0.77402  0.11136  0.01289  1.0000
  C   C1570     1.0  0.77505  0.08857  0.00785  1.0000
  C   C1571     1.0  0.77601  0.07279  0.02499  1.0000
  C   C1572     1.0  0.77603  0.07976  0.04726  1.0000
  C   C1573     1.0  0.77531  0.10249  0.05241  1.0000
  C   C1574     1.0  0.77799  0.16614  0.01832  1.0000
  C   C1575     1.0  0.79467  0.16191  0.00231  1.0000
  P   P53       1.0  0.61291  0.05055  0.00456  1.0000
  C   C1576     1.0  0.60295  0.03074  0.02503  1.0000
  C   C1577     1.0  0.64980  0.06970  0.02604  1.0000
  C   C1578     1.0  0.76445  0.18520  0.01577  1.0000
  H   H1233     1.0  0.85351  0.16338  0.06334  1.0000
  H   H1234     1.0  0.84775  0.15458  0.10351  1.0000
  H   H1235     1.0  0.81007  0.14422  0.11722  1.0000
  H   H1236     1.0  0.77857  0.14133  0.09105  1.0000
  H   H1237     1.0  0.82223  0.16182  0.03706  1.0000
  H   H1238     1.0  0.72968  0.12819  0.04169  1.0000
  H   H1239     1.0  0.69524  0.13716  0.06264  1.0000
  H   H1240     1.0  0.69500  0.16818  0.09016  1.0000
  H   H1241     1.0  0.72862  0.19139  0.09545  1.0000
  H   H1242     1.0  0.76316  0.18311  0.07430  1.0000
  C   C1579     1.0  0.63677  0.41663  0.22641  1.0000
  H   H1243     1.0  0.54309  0.41595  0.22657  1.0000
  H   H1244     1.0  0.65281  0.20836  0.15795  1.0000
  H   H1245     1.0  0.77678  0.06755  0.06065  1.0000
  H   H1246     1.0  0.77532  0.10735  0.06986  1.0000
  H   H1247     1.0  0.80532  0.14745  0.00369  1.0000
  C   C1580     1.0  0.69455  0.19524  0.01429  1.0000
  H   H1248     1.0  0.68986  0.06300  0.13486  1.0000
  H   H1249     1.0  0.80592  0.02210  0.06160  1.0000
  H   H1250     1.0  0.75134  0.18904  0.02765  1.0000
  H   H1251     1.0  0.60816  0.41527  0.20458  1.0000
  C   C1581     1.0  0.49754  0.26883  0.09613  1.0000
  H   H1252     1.0  0.59979  0.07545  0.04478  1.0000
  C   C1582     1.0  0.63440  0.46289  0.22107  1.0000
  C   C1583     1.0  0.60496  0.09554  0.18154  1.0000
  C   C1584     1.0  0.61881  0.10878  0.14581  1.0000
  H   H1253     1.0  0.69067  0.46695  0.12895  1.0000
  H   H1254     1.0  0.50077  0.21440  0.19748  1.0000
  H   H1255     1.0  0.65394  0.07886  0.21233  1.0000
  H   H1256     1.0  0.70586  0.06040  0.02310  1.0000
  H   H1257     1.0  0.56516  0.19907  0.16942  1.0000
  C   C1585     1.0  0.61760  0.01512  0.03468  1.0000
  H   H1258     1.0  0.71431  0.22119  0.99931  1.0000
  C   C1586     1.0  0.62011  0.42599  0.21299  1.0000
  C   C1587     1.0  0.64908  0.14565  0.17477  1.0000
  C   C1588     1.0  0.53403  0.20775  0.18554  1.0000
  H   H1259     1.0  0.61322  0.15113  0.17459  1.0000
  H   H1260     1.0  0.56850  0.04188  0.02320  1.0000
  H   H1261     1.0  0.52866  0.13524  0.16871  1.0000
  C   C1589     1.0  0.81290  0.01738  0.00521  1.0000
  C   C1590     1.0  0.58234  0.09145  0.14816  1.0000
  C   C1591     1.0  0.59342  0.08429  0.03031  1.0000
  C   C1592     1.0  0.68825  0.05893  0.01916  1.0000
  H   H1262     1.0  0.67174  0.45182  0.09544  1.0000
  H   H1263     1.0  0.63342  0.48074  0.21867  1.0000
  H   H1264     1.0  0.84150  0.99108  0.20926  1.0000
  H   H1265     1.0  0.50667  0.28936  0.13585  1.0000
  H   H1266     1.0  0.72820  0.09003  0.00439  1.0000
  H   H1267     1.0  0.84000  0.06610  0.01646  1.0000
  H   H1268     1.0  0.53814  0.16702  0.07999  1.0000
  H   H1269     1.0  0.72591  0.09254  0.18928  1.0000
  P   P54       1.0  0.52564  0.25915  0.10160  1.0000
  C   C1593     1.0  0.53171  0.26339  0.13098  1.0000
  C   C1594     1.0  0.52925  0.23000  0.09410  1.0000
  C   C1595     1.0  0.55086  0.22100  0.09223  1.0000
  C   C1596     1.0  0.55402  0.19843  0.08721  1.0000
  C   C1597     1.0  0.53561  0.18459  0.08371  1.0000
  C   C1598     1.0  0.51401  0.19345  0.08488  1.0000
  C   C1599     1.0  0.51080  0.21606  0.09001  1.0000
  C   C1600     1.0  0.54946  0.25193  0.14126  1.0000
  C   C1601     1.0  0.55498  0.25624  0.16357  1.0000
  C   C1602     1.0  0.64893  0.09314  0.22230  1.0000
  C   C1603     1.0  0.67157  0.10077  0.17362  1.0000
  H   H1270     1.0  0.69229  0.11407  0.20015  1.0000
  C   C1604     1.0  0.54491  0.27620  0.08586  1.0000
  C   C1605     1.0  0.55131  0.29721  0.09407  1.0000
  C   C1606     1.0  0.56545  0.31090  0.08149  1.0000
  C   C1607     1.0  0.57333  0.30374  0.06067  1.0000
  C   C1608     1.0  0.56680  0.28299  0.05224  1.0000
  C   C1609     1.0  0.55251  0.26932  0.06469  1.0000
  H   H1271     1.0  0.56538  0.23147  0.09452  1.0000
  H   H1272     1.0  0.57083  0.19173  0.08603  1.0000
  H   H1273     1.0  0.68526  0.14623  0.17270  1.0000
  H   H1274     1.0  0.50657  0.35714  0.11904  1.0000
  H   H1275     1.0  0.55966  0.24025  0.13203  1.0000
  H   H1276     1.0  0.56931  0.24807  0.17107  1.0000
  H   H1277     1.0  0.50625  0.18765  0.13060  1.0000
  C   C1610     1.0  0.62193  0.10577  0.16890  1.0000
  H   H1278     1.0  0.57058  0.32695  0.08810  1.0000
  H   H1279     1.0  0.58461  0.31422  0.05115  1.0000
  H   H1280     1.0  0.57302  0.27736  0.03616  1.0000
  C   C1611     1.0  0.82602  0.03642  0.00134  1.0000
  H   H1281     1.0  0.49392  0.22242  0.09066  1.0000
  C   C1612     1.0  0.57233  0.11544  0.01537  1.0000
  C   C1613     1.0  0.88866  0.07588  0.22874  1.0000
  C   C1614     1.0  0.83960  0.00620  0.21904  1.0000
  H   H1282     1.0  0.63515  0.01485  0.03023  1.0000
  H   H1283     1.0  0.67547  0.16666  0.02471  1.0000
  C   C1615     1.0  0.82638  0.04438  0.22133  1.0000
  C   C1616     1.0  0.58018  0.03026  0.03078  1.0000
  H   H1284     1.0  0.72499  0.12970  0.99464  1.0000
  C   C1617     1.0  0.64246  0.05490  0.00939  1.0000
  H   H1285     1.0  0.63813  0.07992  0.03530  1.0000
  H   H1286     1.0  0.51456  0.44563  0.22044  1.0000
  C   C1618     1.0  0.89972  0.06080  0.98990  1.0000
  C   C1619     1.0  0.68116  0.04421  0.00248  1.0000
  H   H1287     1.0  0.91089  0.05887  0.00404  1.0000
  H   H1288     1.0  0.56291  0.13068  0.01805  1.0000
  H   H1289     1.0  0.88630  0.00111  0.21307  1.0000
  C   C1620     1.0  0.53616  0.47233  0.23125  1.0000
  C   C1621     1.0  0.65838  0.04214  0.99763  1.0000
  H   H1290     1.0  0.80818  0.00651  0.99155  1.0000
  C   C1622     1.0  0.49334  0.28538  0.07998  1.0000
  C   C1623     1.0  0.71851  0.47032  0.99015  1.0000
  H   H1291     1.0  0.63747  0.39865  0.22854  1.0000
  H   H1292     1.0  0.72960  0.48426  0.04417  1.0000
  C   C1624     1.0  0.72938  0.47082  0.01084  1.0000
  C   C1625     1.0  0.57596  0.10748  0.99369  1.0000
  C   C1626     1.0  0.65166  0.45362  0.23400  1.0000
  C   C1627     1.0  0.69201  0.16083  0.99321  1.0000
  C   C1628     1.0  0.56806  0.43883  0.23837  1.0000
  H   H1293     1.0  0.96492  0.12094  0.00730  1.0000
  H   H1294     1.0  0.66841  0.47717  0.19626  1.0000
  H   H1295     1.0  0.75764  0.21461  0.99609  1.0000
  H   H1296     1.0  0.68516  0.14423  0.99159  1.0000
  C   C1629     1.0  0.54687  0.43324  0.23042  1.0000
  H   H1297     1.0  0.77486  0.08309  0.99065  1.0000
  C   C1630     1.0  0.72110  0.48425  0.02814  1.0000
  C   C1631     1.0  0.87808  0.05204  0.99095  1.0000
  C   C1632     1.0  0.85323  0.10588  0.23267  1.0000
  H   H1298     1.0  0.74420  0.46071  0.01354  1.0000
  H   H1299     1.0  0.61356  0.13943  0.98979  1.0000
  C   C1633     1.0  0.58853  0.08804  0.99025  1.0000
  C   C1634     1.0  0.96649  0.11915  0.98931  1.0000
  H   H1300     1.0  0.69327  0.03427  0.99335  1.0000
  H   H1301     1.0  0.48959  0.24646  0.17121  1.0000
  H   H1302     1.0  0.58100  0.98775  0.06858  1.0000
  H   H1303     1.0  0.62112  0.98784  0.05791  1.0000
  Fe  Fe109     1.0  0.69301  0.38587  0.38337  1.0000
  S   S218      1.0  0.66337  0.36275  0.38459  1.0000
  S   S219      1.0  0.72401  0.36827  0.39801  1.0000
  Fe  Fe110     1.0  0.66242  0.42582  0.36979  1.0000
  S   S220      1.0  0.63132  0.40484  0.37149  1.0000
  S   S221      1.0  0.66217  0.46108  0.35437  1.0000
  Fe  Fe111     1.0  0.64602  0.39011  0.40321  1.0000
  S   S222      1.0  0.62512  0.38445  0.43496  1.0000
  Fe  Fe112     1.0  0.65141  0.37908  0.35273  1.0000
  S   S223      1.0  0.63848  0.35616  0.32470  1.0000
  S   S224      1.0  0.67569  0.41323  0.40298  1.0000
  S   S225      1.0  0.68233  0.40022  0.35002  1.0000
  Fe  Fe113     1.0  0.90202  0.31479  0.41050  1.0000
  S   S226      1.0  0.89265  0.28552  0.43242  1.0000
  S   S227      1.0  0.93989  0.32078  0.40823  1.0000
  Fe  Fe114     1.0  0.85223  0.32659  0.40228  1.0000
  S   S228      1.0  0.84027  0.29811  0.42341  1.0000
  S   S229      1.0  0.82855  0.34955  0.38263  1.0000
  Fe  Fe115     1.0  0.86707  0.30881  0.44789  1.0000
  C   C1635     1.0  0.97865  0.25001  0.47390  1.0000
  Fe  Fe116     1.0  0.86698  0.27759  0.40609  1.0000
  S   S230      1.0  0.85754  0.24511  0.38799  1.0000
  S   S231      1.0  0.87784  0.33848  0.42753  1.0000
  S   S232      1.0  0.87759  0.30569  0.38346  1.0000
  Fe  Fe117     1.0  0.90961  0.11930  0.35171  1.0000
  S   S233      1.0  0.93228  0.12111  0.32155  1.0000
  S   S234      1.0  0.90480  0.15003  0.37451  1.0000
  Fe  Fe118     1.0  0.91151  0.06746  0.35238  1.0000
  S   S235      1.0  0.93507  0.06680  0.32315  1.0000
  S   S236      1.0  0.90414  0.03501  0.37139  1.0000
  Fe  Fe119     1.0  0.95319  0.09536  0.33934  1.0000
  C   C1636     1.0  0.97404  0.14280  0.27263  1.0000
  Fe  Fe120     1.0  0.91205  0.09238  0.30768  1.0000
  S   S237      1.0  0.90644  0.08431  0.27047  1.0000
  S   S238      1.0  0.93145  0.09435  0.36975  1.0000
  S   S239      1.0  0.88763  0.09204  0.33669  1.0000
  C   C1637     1.0  0.85107  0.99826  0.34837  1.0000
  H   H1304     1.0  0.87153  0.35644  0.48518  1.0000
  C   C1638     1.0  0.91019  0.00901  0.30860  1.0000
  H   H1305     1.0  0.63840  0.10702  0.27656  1.0000
  C   C1639     1.0  0.62656  0.44239  0.44587  1.0000
  C   C1640     1.0  0.58536  0.37410  0.35190  1.0000
  H   H1306     1.0  0.66138  0.32111  0.47434  1.0000
  C   C1641     1.0  0.87257  0.21979  0.38334  1.0000
  C   C1642     1.0  0.88957  0.21243  0.39763  1.0000
  C   C1643     1.0  0.89932  0.19114  0.39450  1.0000
  C   C1644     1.0  0.89242  0.17705  0.37694  1.0000
  C   C1645     1.0  0.87600  0.18480  0.36219  1.0000
  C   C1646     1.0  0.86621  0.20601  0.36536  1.0000
  H   H1307     1.0  0.89470  0.22282  0.41151  1.0000
  H   H1308     1.0  0.91208  0.18543  0.40598  1.0000
  H   H1309     1.0  0.87066  0.17448  0.34843  1.0000
  H   H1310     1.0  0.85333  0.21165  0.35398  1.0000
  C   C1647     1.0  0.68626  0.45825  0.28888  1.0000
  C   C1648     1.0  0.88442  0.01329  0.36629  1.0000
  C   C1649     1.0  0.86692  0.01554  0.35089  1.0000
  C   C1650     1.0  0.97641  0.39421  0.38954  1.0000
  H   H1311     1.0  0.86546  0.03067  0.34112  1.0000
  C   C1651     1.0  0.75307  0.36348  0.39322  1.0000
  C   C1652     1.0  0.76428  0.34773  0.40666  1.0000
  C   C1653     1.0  0.78724  0.34316  0.40357  1.0000
  C   C1654     1.0  0.79941  0.35441  0.38706  1.0000
  C   C1655     1.0  0.78819  0.37018  0.37362  1.0000
  C   C1656     1.0  0.76519  0.37473  0.37668  1.0000
  H   H1312     1.0  0.75517  0.33896  0.41958  1.0000
  H   H1313     1.0  0.79556  0.33100  0.41407  1.0000
  H   H1314     1.0  0.79741  0.37902  0.36082  1.0000
  H   H1315     1.0  0.75688  0.38698  0.36629  1.0000
  C   C1657     1.0  0.62957  0.36549  0.45763  1.0000
  C   C1658     1.0  0.64635  0.34916  0.45717  1.0000
  C   C1659     1.0  0.88225  0.99331  0.27432  1.0000
  H   H1316     1.0  0.65736  0.34812  0.44284  1.0000
  C   C1660     1.0  0.55027  0.38357  0.30393  1.0000
  C   C1661     1.0  0.62579  0.36308  0.29855  1.0000
  C   C1662     1.0  0.62028  0.34582  0.28351  1.0000
  C   C1663     1.0  0.60948  0.35042  0.26295  1.0000
  C   C1664     1.0  0.60377  0.37237  0.25730  1.0000
  C   C1665     1.0  0.60979  0.38963  0.27210  1.0000
  C   C1666     1.0  0.62071  0.38508  0.29257  1.0000
  H   H1317     1.0  0.62418  0.32873  0.28788  1.0000
  H   H1318     1.0  0.56487  0.33388  0.28006  1.0000
  H   H1319     1.0  0.60601  0.40667  0.26764  1.0000
  H   H1320     1.0  0.62498  0.39857  0.30382  1.0000
  H   H1321     1.0  0.76379  0.07656  0.33680  1.0000
  H   H1322     1.0  0.69426  0.37706  0.43956  1.0000
  C   C1667     1.0  0.55684  0.35000  0.28198  1.0000
  H   H1323     1.0  0.63148  0.47270  0.39108  1.0000
  H   H1324     1.0  0.95800  0.33621  0.32873  1.0000
  C   C1668     1.0  0.96449  0.33365  0.34542  1.0000
  C   C1669     1.0  0.94956  0.32892  0.36314  1.0000
  C   C1670     1.0  0.95770  0.32580  0.38488  1.0000
  H   H1325     1.0  0.97772  0.22839  0.31233  1.0000
  C   C1671     1.0  0.60335  0.44576  0.34009  1.0000
  H   H1326     1.0  0.93176  0.32796  0.36003  1.0000
  H   H1327     1.0  0.98518  0.05783  0.44531  1.0000
  H   H1328     1.0  0.54265  0.34965  0.24887  1.0000
  C   C1672     1.0  0.93009  0.21872  0.31488  1.0000
  C   C1673     1.0  0.91936  0.20178  0.32697  1.0000
  P   P55       1.0  0.93444  0.24577  0.32746  1.0000
  C   C1674     1.0  0.95868  0.25907  0.31553  1.0000
  C   C1675     1.0  0.90901  0.26119  0.32227  1.0000
  C   C1676     1.0  0.90607  0.27288  0.30210  1.0000
  C   C1677     1.0  0.88617  0.28454  0.29804  1.0000
  C   C1678     1.0  0.86892  0.28420  0.31385  1.0000
  C   C1679     1.0  0.87145  0.27195  0.33357  1.0000
  C   C1680     1.0  0.89133  0.26037  0.33772  1.0000
  C   C1681     1.0  0.95935  0.28235  0.31300  1.0000
  H   H1329     1.0  0.57019  0.35512  0.31466  1.0000
  H   H1330     1.0  0.73339  0.39044  0.43899  1.0000
  H   H1331     1.0  0.89947  0.99144  0.39070  1.0000
  C   C1682     1.0  0.53449  0.37995  0.26657  1.0000
  C   C1683     1.0  0.94026  0.24357  0.35705  1.0000
  C   C1684     1.0  0.95081  0.22448  0.36566  1.0000
  C   C1685     1.0  0.95404  0.22208  0.38871  1.0000
  C   C1686     1.0  0.94743  0.23914  0.40327  1.0000
  C   C1687     1.0  0.93820  0.25880  0.39467  1.0000
  C   C1688     1.0  0.93474  0.26111  0.37165  1.0000
  C   C1689     1.0  0.63150  0.48626  0.37913  1.0000
  H   H1332     1.0  0.91409  0.20462  0.34408  1.0000
  H   H1333     1.0  0.91908  0.27299  0.28950  1.0000
  H   H1334     1.0  0.88408  0.29382  0.28261  1.0000
  H   H1335     1.0  0.85355  0.29332  0.31081  1.0000
  H   H1336     1.0  0.85800  0.27142  0.34577  1.0000
  H   H1337     1.0  0.89281  0.25076  0.35299  1.0000
  H   H1338     1.0  0.94551  0.29272  0.31846  1.0000
  H   H1339     1.0  0.93531  0.19157  0.26490  1.0000
  H   H1340     1.0  0.82038  0.20967  0.41684  1.0000
  H   H1341     1.0  0.95619  0.21130  0.35459  1.0000
  H   H1342     1.0  0.92030  0.01545  0.32222  1.0000
  H   H1343     1.0  0.94957  0.23721  0.42117  1.0000
  H   H1344     1.0  0.93348  0.27224  0.40585  1.0000
  H   H1345     1.0  0.92744  0.27648  0.36538  1.0000
  C   C1690     1.0  0.97918  0.38695  0.47903  1.0000
  C   C1691     1.0  0.88604  0.99339  0.37874  1.0000
  H   H1346     1.0  0.53322  0.38600  0.37185  1.0000
  C   C1692     1.0  0.69905  0.44565  0.30387  1.0000
  H   H1347     1.0  0.59631  0.37707  0.33776  1.0000
  H   H1348     1.0  0.96489  0.12721  0.27142  1.0000
  H   H1349     1.0  0.57314  0.42110  0.28839  1.0000
  C   C1693     1.0  0.55994  0.36229  0.30163  1.0000
  H   H1350     1.0  0.85029  0.02867  0.27041  1.0000
  C   C1694     1.0  0.79142  0.36609  0.48198  1.0000
  H   H1351     1.0  0.95594  0.36062  0.48698  1.0000
  H   H1352     1.0  0.65023  0.07476  0.25327  1.0000
  C   C1695     1.0  0.96665  0.36786  0.47429  1.0000
  C   C1696     1.0  0.89972  0.98830  0.31072  1.0000
  H   H1353     1.0  0.94255  0.16813  0.35532  1.0000
  H   H1354     1.0  0.60360  0.44820  0.28330  1.0000
  H   H1355     1.0  0.58790  0.42732  0.48479  1.0000
  C   C1697     1.0  0.88604  0.08781  0.24890  1.0000
  H   H1356     1.0  0.82384  0.17316  0.43625  1.0000
  H   H1357     1.0  0.61202  0.45238  0.35450  1.0000
  C   C1698     1.0  0.59854  0.44344  0.30001  1.0000
  H   H1358     1.0  0.61041  0.35544  0.36983  1.0000
  C   C1699     1.0  0.93539  0.21508  0.29225  1.0000
  H   H1359     1.0  0.52507  0.38688  0.25275  1.0000
  C   C1700     1.0  0.98387  0.17894  0.25751  1.0000
  H   H1360     1.0  0.54248  0.44558  0.34435  1.0000
  H   H1361     1.0  0.94251  0.22830  0.28218  1.0000
  C   C1701     1.0  0.73789  0.35328  0.48682  1.0000
  H   H1362     1.0  0.80671  0.14880  0.28704  1.0000
  C   C1702     1.0  0.75682  0.10919  0.38292  1.0000
  C   C1703     1.0  0.86800  0.10261  0.25087  1.0000
  H   H1363     1.0  0.66198  0.44361  0.45116  1.0000
  H   H1364     1.0  0.63588  0.47396  0.27732  1.0000
  C   C1704     1.0  0.96236  0.26557  0.46764  1.0000
  C   C1705     1.0  0.60407  0.43128  0.47766  1.0000
  H   H1365     1.0  0.98476  0.09677  0.38717  1.0000
  C   C1706     1.0  0.56352  0.38274  0.35207  1.0000
  C   C1707     1.0  0.64445  0.43371  0.48135  1.0000
  H   H1366     1.0  0.58209  0.42505  0.36001  1.0000
  C   C1708     1.0  0.58639  0.43012  0.34313  1.0000
  H   H1367     1.0  0.74500  0.42129  0.46408  1.0000
  H   H1368     1.0  0.86571  0.11181  0.26624  1.0000
  H   H1369     1.0  0.69628  0.44735  0.32176  1.0000
  C   C1709     1.0  0.78326  0.37899  0.46417  1.0000
  C   C1710     1.0  0.84825  0.00771  0.24084  1.0000
  C   C1711     1.0  0.52733  0.43588  0.34286  1.0000
  C   C1712     1.0  0.68957  0.45606  0.26566  1.0000
  C   C1713     1.0  0.93123  0.19433  0.28235  1.0000
  C   C1714     1.0  0.82128  0.15384  0.40590  1.0000
  H   H1370     1.0  0.73137  0.41712  0.26671  1.0000
  C   C1715     1.0  0.98766  0.33547  0.34922  1.0000
  C   C1716     1.0  0.84462  0.02732  0.25326  1.0000
  C   C1717     1.0  0.98751  0.14690  0.29127  1.0000
  C   C1718     1.0  0.71529  0.43086  0.29591  1.0000
  C   C1719     1.0  0.71879  0.42863  0.27289  1.0000
  H   H1371     1.0  0.98234  0.19136  0.24442  1.0000
  H   H1372     1.0  0.57205  0.48642  0.32364  1.0000
  C   C1720     1.0  0.92145  0.17721  0.29483  1.0000
  H   H1373     1.0  0.60505  0.33693  0.25178  1.0000
  C   C1721     1.0  0.57553  0.42073  0.32459  1.0000
  C   C1722     1.0  0.79532  0.38051  0.44416  1.0000
  C   C1723     1.0  0.96786  0.35814  0.45308  1.0000
  H   H1374     1.0  0.56551  0.47794  0.28388  1.0000
  H   H1375     1.0  0.65723  0.47689  0.48585  1.0000
  H   H1376     1.0  0.72514  0.42116  0.30765  1.0000
  C   C1724     1.0  0.96878  0.15751  0.37738  1.0000
  C   C1725     1.0  0.61564  0.36680  0.47661  1.0000
  H   H1377     1.0  0.83963  0.34758  0.45786  1.0000
  H   H1378     1.0  0.90745  0.16786  0.32670  1.0000
  C   C1726     1.0  0.97753  0.24628  0.30968  1.0000
  C   C1727     1.0  0.60966  0.45225  0.31858  1.0000
  C   C1728     1.0  0.69035  0.41717  0.48003  1.0000
  H   H1379     1.0  0.83226  0.06118  0.25260  1.0000
  C   C1729     1.0  0.54425  0.35886  0.26442  1.0000
  H   H1380     1.0  0.53004  0.40874  0.28748  1.0000
  C   C1730     1.0  0.75184  0.09358  0.36628  1.0000
  H   H1381     1.0  0.96142  0.20690  0.39528  1.0000
  H   H1382     1.0  0.70878  0.43910  0.24000  1.0000
  H   H1383     1.0  0.98240  0.08855  0.47302  1.0000
  H   H1384     1.0  0.58045  0.42585  0.24083  1.0000
  C   C1731     1.0  0.89375  0.01358  0.27183  1.0000
  H   H1385     1.0  0.82312  0.13806  0.41457  1.0000
  C   C1732     1.0  0.98164  0.36743  0.43667  1.0000
  H   H1386     1.0  0.94792  0.26849  0.47825  1.0000
  C   C1733     1.0  0.50691  0.44602  0.34818  1.0000
  H   H1387     1.0  0.66673  0.39430  0.46492  1.0000
  C   C1734     1.0  0.64494  0.48483  0.36001  1.0000
  H   H1388     1.0  0.73586  0.08509  0.36635  1.0000
  H   H1389     1.0  0.49161  0.99563  0.24852  1.0000
  H   H1390     1.0  0.96531  0.39470  0.40384  1.0000
  C   C1735     1.0  0.58004  0.35879  0.38901  1.0000
  C   C1736     1.0  0.96715  0.39162  0.36820  1.0000
  C   C1737     1.0  0.71262  0.42464  0.47952  1.0000
  H   H1391     1.0  0.98748  0.32425  0.40512  1.0000
  H   H1392     1.0  0.95795  0.34348  0.44920  1.0000
  H   H1393     1.0  0.98223  0.35974  0.42034  1.0000
  C   C1738     1.0  0.97814  0.29254  0.30360  1.0000
  C   C1739     1.0  0.63561  0.12949  0.24853  1.0000
  C   C1740     1.0  0.72805  0.41501  0.46481  1.0000
  H   H1394     1.0  0.67393  0.46954  0.29573  1.0000
  H   H1395     1.0  0.59078  0.43872  0.44497  1.0000
  H   H1396     1.0  0.54797  0.36502  0.40413  1.0000
  C   C1741     1.0  0.98088  0.32716  0.38854  1.0000
  C   C1742     1.0  0.52797  0.41350  0.33582  1.0000
  H   H1397     1.0  0.91832  0.16108  0.28719  1.0000
  H   H1398     1.0  0.74466  0.11283  0.39589  1.0000
  C   C1743     1.0  0.55826  0.36733  0.38938  1.0000
  C   C1744     1.0  0.70601  0.44117  0.25782  1.0000
  H   H1399     1.0  0.74812  0.34918  0.47243  1.0000
  H   H1400     1.0  0.76773  0.38801  0.46587  1.0000
  H   H1401     1.0  0.78885  0.39022  0.43027  1.0000
  H   H1402     1.0  0.83743  0.00033  0.33668  1.0000
  C   C1745     1.0  0.53743  0.39226  0.28624  1.0000
  H   H1403     1.0  0.84693  0.14888  0.27695  1.0000
  C   C1746     1.0  0.81574  0.36932  0.44193  1.0000
  C   C1747     1.0  0.64012  0.10891  0.25860  1.0000
  H   H1404     1.0  0.62783  0.44693  0.42835  1.0000
  C   C1748     1.0  0.81196  0.35503  0.47961  1.0000
  C   C1749     1.0  0.97475  0.17057  0.33953  1.0000
  C   C1750     1.0  0.68392  0.39986  0.46554  1.0000
  H   H1405     1.0  0.66534  0.42254  0.24696  1.0000
  C   C1751     1.0  0.98333  0.27386  0.43394  1.0000
  C   C1752     1.0  0.77753  0.12002  0.38296  1.0000
  C   C1753     1.0  0.96035  0.16576  0.35727  1.0000
  C   C1754     1.0  0.64589  0.44035  0.45884  1.0000
  H   H1406     1.0  0.62334  0.46389  0.31649  1.0000
  C   C1755     1.0  0.58131  0.42793  0.30299  1.0000
  S   S240      1.0  0.86023  0.30851  0.48587  1.0000
  H   H1407     1.0  0.78106  0.13193  0.39609  1.0000
  H   H1408     1.0  0.58668  0.35005  0.40347  1.0000
  C   C1756     1.0  0.69946  0.39013  0.45100  1.0000
  C   C1757     1.0  0.98099  0.39136  0.34936  1.0000
  P   P56       1.0  0.67291  0.47163  0.24570  1.0000
  H   H1409     1.0  0.63038  0.14356  0.25868  1.0000
  H   H1410     1.0  0.98730  0.27403  0.35161  1.0000
  C   C1758     1.0  0.55753  0.47802  0.23908  1.0000
  H   H1411     1.0  0.91571  0.03747  0.28720  1.0000
  C   C1759     1.0  0.82158  0.17367  0.41827  1.0000
  C   C1760     1.0  0.81947  0.19422  0.40741  1.0000
  C   C1761     1.0  0.64863  0.33392  0.47511  1.0000
  H   H1412     1.0  0.59021  0.46527  0.24792  1.0000
  C   C1762     1.0  0.96484  0.27763  0.44780  1.0000
  C   C1763     1.0  0.90748  0.02147  0.28900  1.0000
  C   C1764     1.0  0.54997  0.37922  0.37098  1.0000
  H   H1413     1.0  0.94927  0.38949  0.36629  1.0000
  H   H1414     1.0  0.96766  0.17682  0.32409  1.0000
  H   H1415     1.0  0.95238  0.28999  0.44316  1.0000
  C   C1765     1.0  0.82391  0.35641  0.45958  1.0000
  P   P57       1.0  0.55414  0.39999  0.32905  1.0000
  C   C1766     1.0  0.97236  0.15873  0.25565  1.0000
  C   C1767     1.0  0.60567  0.43775  0.45524  1.0000
  H   H1416     1.0  0.95739  0.15317  0.39082  1.0000
  C   C1768     1.0  0.91535  0.18102  0.31708  1.0000
  H   H1417     1.0  0.82515  0.37050  0.42647  1.0000
  C   C1769     1.0  0.66034  0.30150  0.38877  1.0000
  C   C1770     1.0  0.66725  0.30934  0.40967  1.0000
  C   C1771     1.0  0.68949  0.31566  0.41291  1.0000
  C   C1772     1.0  0.70492  0.31375  0.39540  1.0000
  C   C1773     1.0  0.69830  0.30513  0.37460  1.0000
  C   C1774     1.0  0.67574  0.29962  0.37122  1.0000
  P   P58       1.0  0.71780  0.30345  0.35156  1.0000
  C   C1775     1.0  0.74652  0.30125  0.36085  1.0000
  C   C1776     1.0  0.71322  0.27825  0.33572  1.0000
  C   C1777     1.0  0.70489  0.25902  0.34622  1.0000
  C   C1778     1.0  0.70169  0.23942  0.33391  1.0000
  C   C1779     1.0  0.70707  0.23881  0.31114  1.0000
  C   C1780     1.0  0.71585  0.25775  0.30070  1.0000
  C   C1781     1.0  0.71908  0.27736  0.31298  1.0000
  C   C1782     1.0  0.76394  0.31075  0.34826  1.0000
  C   C1783     1.0  0.78614  0.30855  0.35529  1.0000
  C   C1784     1.0  0.79122  0.29632  0.37453  1.0000
  C   C1785     1.0  0.77410  0.28621  0.38676  1.0000
  C   C1786     1.0  0.75184  0.28851  0.37987  1.0000
  C   C1787     1.0  0.71258  0.32775  0.33447  1.0000
  C   C1788     1.0  0.72436  0.34758  0.33824  1.0000
  C   C1789     1.0  0.72036  0.36639  0.32498  1.0000
  C   C1790     1.0  0.70396  0.36575  0.30832  1.0000
  C   C1791     1.0  0.69157  0.34630  0.30499  1.0000
  C   C1792     1.0  0.69573  0.32740  0.31810  1.0000
  H   H1418     1.0  0.64292  0.29740  0.38601  1.0000
  H   H1419     1.0  0.65521  0.31115  0.42314  1.0000
  H   H1420     1.0  0.69467  0.32268  0.42879  1.0000
  H   H1421     1.0  0.72186  0.31952  0.39798  1.0000
  H   H1422     1.0  0.66996  0.29417  0.35493  1.0000
  H   H1423     1.0  0.70094  0.25911  0.36392  1.0000
  H   H1424     1.0  0.69509  0.22468  0.34205  1.0000
  H   H1425     1.0  0.70457  0.22364  0.30160  1.0000
  H   H1426     1.0  0.72019  0.25724  0.28309  1.0000
  H   H1427     1.0  0.72616  0.29181  0.30472  1.0000
  H   H1428     1.0  0.76050  0.31992  0.33306  1.0000
  H   H1429     1.0  0.79947  0.31668  0.34609  1.0000
  H   H1430     1.0  0.80844  0.29499  0.38010  1.0000
  H   H1431     1.0  0.77813  0.27677  0.40169  1.0000
  H   H1432     1.0  0.73881  0.28037  0.38942  1.0000
  H   H1433     1.0  0.73642  0.34861  0.35164  1.0000
  H   H1434     1.0  0.72946  0.38165  0.32819  1.0000
  H   H1435     1.0  0.70025  0.38052  0.29855  1.0000
  H   H1436     1.0  0.67814  0.34612  0.29280  1.0000
  H   H1437     1.0  0.68544  0.31275  0.31574  1.0000
  C   C1793     1.0  0.81918  0.14522  0.29971  1.0000
  C   C1794     1.0  0.84185  0.14535  0.29401  1.0000
  C   C1795     1.0  0.85797  0.14092  0.31033  1.0000
  C   C1796     1.0  0.85143  0.13611  0.33229  1.0000
  C   C1797     1.0  0.82870  0.13516  0.33799  1.0000
  C   C1798     1.0  0.81260  0.14033  0.32166  1.0000
  P   P59       1.0  0.82039  0.12887  0.36640  1.0000
  C   C1799     1.0  0.79341  0.11531  0.36627  1.0000
  C   C1800     1.0  0.84078  0.10990  0.37837  1.0000
  C   C1801     1.0  0.83868  0.08666  0.37582  1.0000
  C   C1802     1.0  0.85502  0.07227  0.38443  1.0000
  C   C1803     1.0  0.87358  0.08092  0.39559  1.0000
  C   C1804     1.0  0.87586  0.10396  0.39813  1.0000
  C   C1805     1.0  0.85958  0.11839  0.38954  1.0000
  H   H1438     1.0  0.60268  0.37941  0.47726  1.0000
  H   H1439     1.0  0.70755  0.34194  0.47100  1.0000
  C   C1806     1.0  0.59346  0.36193  0.37015  1.0000
  C   C1807     1.0  0.76756  0.08879  0.34962  1.0000
  C   C1808     1.0  0.78825  0.09960  0.34959  1.0000
  C   C1809     1.0  0.81924  0.15445  0.38247  1.0000
  C   C1810     1.0  0.81666  0.17516  0.37174  1.0000
  C   C1811     1.0  0.81668  0.19493  0.38422  1.0000
  H   H1440     1.0  0.89176  0.02363  0.25688  1.0000
  H   H1441     1.0  0.50811  0.38411  0.32906  1.0000
  H   H1442     1.0  0.97393  0.38879  0.33286  1.0000
  C   C1812     1.0  0.72150  0.39772  0.45061  1.0000
  H   H1443     1.0  0.87557  0.14103  0.30595  1.0000
  H   H1444     1.0  0.86417  0.13325  0.34482  1.0000
  H   H1445     1.0  0.79498  0.14055  0.32582  1.0000
  H   H1446     1.0  0.82477  0.07946  0.36689  1.0000
  H   H1447     1.0  0.85366  0.05437  0.38202  1.0000
  H   H1448     1.0  0.88646  0.06974  0.40177  1.0000
  H   H1449     1.0  0.89059  0.11074  0.40619  1.0000
  H   H1450     1.0  0.86204  0.13621  0.39118  1.0000
  C   C1813     1.0  0.50793  0.40144  0.33428  1.0000
  H   H1451     1.0  0.50652  0.46328  0.35365  1.0000
  H   H1452     1.0  0.80033  0.09551  0.33667  1.0000
  H   H1453     1.0  0.81516  0.17623  0.35374  1.0000
  H   H1454     1.0  0.81543  0.21096  0.37587  1.0000
  C   C1814     1.0  0.83408  0.04571  0.24337  1.0000
  H   H1455     1.0  0.97853  0.31051  0.30146  1.0000
  C   C1815     1.0  0.71492  0.34891  0.48601  1.0000
  C   C1816     1.0  0.64678  0.09075  0.24549  1.0000
  H   H1456     1.0  0.98493  0.28385  0.41895  1.0000
  H   H1457     1.0  0.96199  0.15541  0.24115  1.0000
  C   C1817     1.0  0.57347  0.46113  0.24245  1.0000
  Fe  Fe121     1.0  0.58740  0.10996  0.69742  1.0000
  S   S241      1.0  0.61096  0.09996  0.66963  1.0000
  C   C1818     1.0  0.50905  0.19147  0.59761  1.0000
  Fe  Fe122     1.0  0.54637  0.11043  0.66558  1.0000
  S   S242      1.0  0.56702  0.09955  0.63617  1.0000
  S   S243      1.0  0.50910  0.11932  0.66672  1.0000
  Fe  Fe123     1.0  0.58430  0.07539  0.65969  1.0000
  S   S244      1.0  0.58903  0.03728  0.65744  1.0000
  Fe  Fe124     1.0  0.59209  0.12514  0.64836  1.0000
  S   S245      1.0  0.60811  0.14853  0.62237  1.0000
  S   S246      1.0  0.56145  0.08460  0.68844  1.0000
  S   S247      1.0  0.57060  0.13690  0.67677  1.0000
  Fe  Fe125     1.0  0.58344  0.32680  0.58366  1.0000
  S   S248      1.0  0.59218  0.29560  0.56433  1.0000
  S   S249      1.0  0.54612  0.33605  0.58268  1.0000
  Fe  Fe126     1.0  0.63313  0.33413  0.59678  1.0000
  S   S250      1.0  0.64405  0.30282  0.57940  1.0000
  S   S251      1.0  0.65753  0.35578  0.61690  1.0000
  Fe  Fe127     1.0  0.62188  0.31509  0.55118  1.0000
  S   S252      1.0  0.63785  0.31509  0.51602  1.0000
  Fe  Fe128     1.0  0.61337  0.28628  0.59409  1.0000
  S   S253      1.0  0.60915  0.25566  0.61717  1.0000
  S   S254      1.0  0.61168  0.34685  0.56840  1.0000
  S   S255      1.0  0.60389  0.31718  0.61358  1.0000
  Fe  Fe129     1.0  0.79336  0.38692  0.61430  1.0000
  S   S256      1.0  0.82194  0.36230  0.61444  1.0000
  S   S257      1.0  0.76155  0.37313  0.59763  1.0000
  Fe  Fe130     1.0  0.82564  0.42576  0.62736  1.0000
  S   S258      1.0  0.85581  0.40330  0.62739  1.0000
  S   S259      1.0  0.82619  0.46311  0.63619  1.0000
  Fe  Fe131     1.0  0.84128  0.38822  0.59559  1.0000
  S   S260      1.0  0.85945  0.38445  0.56177  1.0000
  Fe  Fe132     1.0  0.83363  0.37935  0.64624  1.0000
  S   S261      1.0  0.84235  0.35786  0.67698  1.0000
  S   S262      1.0  0.81263  0.41251  0.59459  1.0000
  S   S263      1.0  0.80363  0.40224  0.64732  1.0000
  C   C1819     1.0  0.85966  0.33009  0.50655  1.0000
  C   C1820     1.0  0.85241  0.32494  0.52839  1.0000
  C   C1821     1.0  0.85161  0.34141  0.54534  1.0000
  C   C1822     1.0  0.85834  0.36329  0.54073  1.0000
  C   C1823     1.0  0.86531  0.36851  0.51883  1.0000
  H   H1458     1.0  0.50463  0.39138  0.58196  1.0000
  H   H1459     1.0  0.84736  0.30806  0.53226  1.0000
  H   H1460     1.0  0.84615  0.33708  0.56204  1.0000
  H   H1461     1.0  0.87045  0.38538  0.51501  1.0000
  H   H1462     1.0  0.56162  0.16513  0.62509  1.0000
  C   C1824     1.0  0.87214  0.38276  0.70315  1.0000
  C   C1825     1.0  0.85920  0.36343  0.70109  1.0000
  C   C1826     1.0  0.85983  0.34765  0.71859  1.0000
  H   H1463     1.0  0.87206  0.39498  0.68982  1.0000
  H   H1464     1.0  0.85005  0.33255  0.71718  1.0000
  H   H1465     1.0  0.88731  0.46437  0.68404  1.0000
  C   C1827     1.0  0.57857  0.01088  0.57630  1.0000
  C   C1828     1.0  0.70145  0.35335  0.50462  1.0000
  H   H1466     1.0  0.87399  0.44391  0.58630  1.0000
  H   H1467     1.0  0.87368  0.45904  0.62405  1.0000
  C   C1829     1.0  0.68643  0.36056  0.61124  1.0000
  C   C1830     1.0  0.69934  0.37257  0.62683  1.0000
  C   C1831     1.0  0.72232  0.37664  0.62308  1.0000
  C   C1832     1.0  0.73267  0.36875  0.60361  1.0000
  C   C1833     1.0  0.71970  0.35691  0.58797  1.0000
  C   C1834     1.0  0.69680  0.35273  0.59174  1.0000
  H   H1468     1.0  0.69151  0.37874  0.64196  1.0000
  H   H1469     1.0  0.73199  0.38588  0.63522  1.0000
  H   H1470     1.0  0.72750  0.35086  0.57285  1.0000
  H   H1471     1.0  0.68720  0.34342  0.57957  1.0000
  C   C1835     1.0  0.65191  0.15651  0.68105  1.0000
  C   C1836     1.0  0.50322  0.34045  0.59915  1.0000
  C   C1837     1.0  0.52617  0.34018  0.60451  1.0000
  C   C1838     1.0  0.53253  0.34444  0.62662  1.0000
  C   C1839     1.0  0.51619  0.34932  0.64299  1.0000
  C   C1840     1.0  0.66076  0.03391  0.71817  1.0000
  H   H1472     1.0  0.49809  0.33728  0.58209  1.0000
  H   H1473     1.0  0.55008  0.34462  0.63099  1.0000
  C   C1841     1.0  0.91801  0.34369  0.52191  1.0000
  C   C1842     1.0  0.68361  0.29791  0.62425  1.0000
  H   H1474     1.0  0.60716  0.35300  0.50908  1.0000
  H   H1475     1.0  0.52137  0.35301  0.65993  1.0000
  H   H1476     1.0  0.64294  0.01684  0.69187  1.0000
  H   H1477     1.0  0.55086  0.27584  0.52658  1.0000
  C   C1843     1.0  0.55365  0.28589  0.63120  1.0000
  C   C1844     1.0  0.60723  0.01745  0.64448  1.0000
  C   C1845     1.0  0.75348  0.10535  0.71181  1.0000
  C   C1846     1.0  0.62168  0.02304  0.62692  1.0000
  C   C1847     1.0  0.87036  0.47621  0.62849  1.0000
  H   H1478     1.0  0.62265  0.04016  0.62131  1.0000
  C   C1848     1.0  0.60785  0.17836  0.62113  1.0000
  C   C1849     1.0  0.60168  0.19158  0.63947  1.0000
  C   C1850     1.0  0.60217  0.21512  0.63785  1.0000
  C   C1851     1.0  0.60860  0.22586  0.61786  1.0000
  C   C1852     1.0  0.61457  0.21265  0.59946  1.0000
  C   C1853     1.0  0.61429  0.18909  0.60115  1.0000
  H   H1479     1.0  0.59671  0.18368  0.65497  1.0000
  H   H1480     1.0  0.59749  0.22512  0.65220  1.0000
  H   H1481     1.0  0.61965  0.22059  0.58403  1.0000
  H   H1482     1.0  0.61915  0.17911  0.58686  1.0000
  C   C1854     1.0  0.52882  0.41165  0.62917  1.0000
  C   C1855     1.0  0.52645  0.39972  0.60923  1.0000
  H   H1483     1.0  0.66527  0.43928  0.54653  1.0000
  C   C1856     1.0  0.60648  0.99507  0.65167  1.0000
  C   C1857     1.0  0.78930  0.32252  0.51860  1.0000
  C   C1858     1.0  0.51123  0.42492  0.63710  1.0000
  H   H1484     1.0  0.91374  0.33405  0.50714  1.0000
  C   C1859     1.0  0.65049  0.03237  0.69722  1.0000
  C   C1860     1.0  0.53548  0.04899  0.53968  1.0000
  C   C1861     1.0  0.69501  0.29184  0.54881  1.0000
  C   C1862     1.0  0.61814  0.35180  0.49471  1.0000
  P   P60       1.0  0.66963  0.43052  0.49771  1.0000
  H   H1485     1.0  0.49727  0.26573  0.61703  1.0000
  S   S264      1.0  0.59621  0.11776  0.73399  1.0000
  C   C1863     1.0  0.71089  0.36221  0.52406  1.0000
  C   C1864     1.0  0.67980  0.45753  0.50672  1.0000
  H   H1486     1.0  0.68377  0.34945  0.50414  1.0000
  H   H1487     1.0  0.64093  0.27344  0.65272  1.0000
  H   H1488     1.0  0.59534  0.99045  0.66516  1.0000
  H   H1489     1.0  0.54414  0.41013  0.63873  1.0000
  H   H1490     1.0  0.53986  0.38896  0.60335  1.0000
  H   H1491     1.0  0.62148  0.14476  0.69635  1.0000
  H   H1492     1.0  0.51314  0.43361  0.65289  1.0000
  C   C1865     1.0  0.79538  0.30515  0.53302  1.0000
  C   C1866     1.0  0.73090  0.31024  0.54675  1.0000
  C   C1867     1.0  0.53098  0.03634  0.55896  1.0000
  C   C1868     1.0  0.66396  0.41284  0.52161  1.0000
  C   C1869     1.0  0.73521  0.30447  0.56902  1.0000
  H   H1493     1.0  0.91961  0.31496  0.54343  1.0000
  H   H1494     1.0  0.57026  0.03883  0.70774  1.0000
  H   H1495     1.0  0.76636  0.11543  0.71954  1.0000
  C   C1870     1.0  0.55451  0.27717  0.65286  1.0000
  C   C1871     1.0  0.51609  0.01831  0.55757  1.0000
  H   H1496     1.0  0.67927  0.28725  0.54105  1.0000
  C   C1872     1.0  0.52508  0.04773  0.60710  1.0000
  C   C1873     1.0  0.54615  0.27271  0.61347  1.0000
  C   C1874     1.0  0.79784  0.30920  0.55593  1.0000
  C   C1875     1.0  0.74371  0.30326  0.62315  1.0000
  C   C1876     1.0  0.57875  0.23120  0.54800  1.0000
  C   C1877     1.0  0.56486  0.22650  0.56623  1.0000
  C   C1878     1.0  0.54550  0.23928  0.57011  1.0000
  H   H1497     1.0  0.71759  0.32111  0.64111  1.0000
  H   H1498     1.0  0.88822  0.40591  0.59256  1.0000
  H   H1499     1.0  0.79835  0.28858  0.52637  1.0000
  H   H1500     1.0  0.59385  0.22149  0.54540  1.0000
  H   H1501     1.0  0.56963  0.21314  0.57736  1.0000
  H   H1502     1.0  0.88989  0.35948  0.58911  1.0000
  C   C1879     1.0  0.62338  0.42930  0.49073  1.0000
  H   H1503     1.0  0.65930  0.41431  0.57865  1.0000
  C   C1880     1.0  0.55270  0.08714  0.57823  1.0000
  C   C1881     1.0  0.58520  0.06554  0.58925  1.0000
  C   C1882     1.0  0.50915  0.16888  0.60371  1.0000
  H   H1504     1.0  0.76995  0.19913  0.60740  1.0000
  C   C1883     1.0  0.48892  0.41444  0.60494  1.0000
  P   P61       1.0  0.72545  0.28330  0.60961  1.0000
  C   C1884     1.0  0.79499  0.43529  0.53766  1.0000
  C   C1885     1.0  0.67086  0.05388  0.72482  1.0000
  C   C1886     1.0  0.78620  0.34423  0.52695  1.0000
  H   H1505     1.0  0.58459  0.25271  0.51969  1.0000
  H   H1506     1.0  0.72851  0.24802  0.57521  1.0000
  C   C1887     1.0  0.52800  0.20482  0.60141  1.0000
  H   H1507     1.0  0.66090  0.01963  0.72928  1.0000
  H   H1508     1.0  0.79559  0.33386  0.58220  1.0000
  H   H1509     1.0  0.74313  0.34736  0.65931  1.0000
  C   C1888     1.0  0.49093  0.11145  0.62444  1.0000
  C   C1889     1.0  0.59039  0.99098  0.57963  1.0000
  H   H1510     1.0  0.62220  0.99427  0.72876  1.0000
  C   C1890     1.0  0.76687  0.30234  0.61914  1.0000
  H   H1511     1.0  0.64165  0.04976  0.66698  1.0000
  C   C1891     1.0  0.78840  0.34808  0.55000  1.0000
  H   H1512     1.0  0.50133  0.02247  0.50269  1.0000
  C   C1892     1.0  0.73967  0.25669  0.60863  1.0000
  H   H1513     1.0  0.79122  0.47033  0.67054  1.0000
  C   C1893     1.0  0.66012  0.07086  0.68963  1.0000
  H   H1514     1.0  0.70762  0.06895  0.68407  1.0000
  C   C1894     1.0  0.71443  0.09456  0.70881  1.0000
  H   H1515     1.0  0.52652  0.26810  0.55880  1.0000
  H   H1516     1.0  0.61571  0.08423  0.59331  1.0000
  H   H1517     1.0  0.70731  0.30861  0.51950  1.0000
  C   C1895     1.0  0.63937  0.14227  0.69460  1.0000
  C   C1896     1.0  0.97023  0.40223  0.60577  1.0000
  C   C1897     1.0  0.67288  0.12113  0.70380  1.0000
  H   H1518     1.0  0.58318  0.02164  0.56249  1.0000
  H   H1519     1.0  0.65268  0.37414  0.57268  1.0000
  H   H1520     1.0  0.63970  0.11318  0.71554  1.0000
  C   C1898     1.0  0.54694  0.19506  0.61136  1.0000
  C   C1899     1.0  0.88470  0.48143  0.68947  1.0000
  C   C1900     1.0  0.73817  0.24293  0.58966  1.0000
  C   C1901     1.0  0.54066  0.25721  0.55568  1.0000
  C   C1902     1.0  0.52810  0.15943  0.61357  1.0000
  P   P62       1.0  0.52811  0.23432  0.59444  1.0000
  H   H1521     1.0  0.59285  0.05015  0.59483  1.0000
  H   H1522     1.0  0.54571  0.27992  0.59685  1.0000
  C   C1903     1.0  0.60769  0.00421  0.73299  1.0000
  H   H1523     1.0  0.71834  0.48063  0.54191  1.0000
  C   C1904     1.0  0.50597  0.17201  0.68783  1.0000
  C   C1905     1.0  0.97578  0.36889  0.58344  1.0000
  H   H1524     1.0  0.65997  0.08484  0.67815  1.0000
  C   C1906     1.0  0.76152  0.21517  0.60775  1.0000
  H   H1525     1.0  0.52405  0.05960  0.66295  1.0000
  H   H1526     1.0  0.80261  0.29579  0.56710  1.0000
  C   C1907     1.0  0.92787  0.45148  0.56962  1.0000
  C   C1908     1.0  0.51790  0.05669  0.64614  1.0000
  C   C1909     1.0  0.71939  0.29235  0.58140  1.0000
  C   C1910     1.0  0.69360  0.26030  0.63527  1.0000
  H   H1527     1.0  0.70500  0.24628  0.63543  1.0000
  C   C1911     1.0  0.57822  0.02926  0.72092  1.0000
  C   C1912     1.0  0.90564  0.45670  0.57475  1.0000
  C   C1913     1.0  0.53279  0.05093  0.62904  1.0000
  H   H1528     1.0  0.64513  0.01071  0.60224  1.0000
  H   H1529     1.0  0.85316  0.47438  0.70497  1.0000
  C   C1914     1.0  0.67055  0.07258  0.71063  1.0000
  C   C1915     1.0  0.50541  0.01336  0.53736  1.0000
  C   C1916     1.0  0.72022  0.07920  0.69200  1.0000
  C   C1917     1.0  0.59708  0.01639  0.71607  1.0000
  C   C1918     1.0  0.56579  0.10645  0.57753  1.0000
  C   C1919     1.0  0.67266  0.25785  0.64545  1.0000
  H   H1530     1.0  0.77644  0.08798  0.69006  1.0000
  C   C1920     1.0  0.79413  0.33063  0.56442  1.0000
  H   H1531     1.0  0.75141  0.40834  0.51332  1.0000
  C   C1921     1.0  0.89951  0.41852  0.58643  1.0000
  C   C1922     1.0  0.93589  0.42973  0.57281  1.0000
  H   H1532     1.0  0.92800  0.33682  0.57744  1.0000
  H   H1533     1.0  0.70333  0.13346  0.68842  1.0000
  H   H1534     1.0  0.54815  0.24856  0.67368  1.0000
  H   H1535     1.0  0.62179  0.42399  0.50798  1.0000
  H   H1536     1.0  0.50151  0.28017  0.66459  1.0000
  C   C1923     1.0  0.49518  0.05939  0.64148  1.0000
  C   C1924     1.0  0.86596  0.35209  0.50184  1.0000
  C   C1925     1.0  0.55449  0.26174  0.53735  1.0000
  C   C1926     1.0  0.91939  0.36694  0.52064  1.0000
  C   C1927     1.0  0.65733  0.27548  0.64524  1.0000
  C   C1928     1.0  0.50223  0.05079  0.60245  1.0000
  H   H1537     1.0  0.74306  0.31982  0.53740  1.0000
  C   C1929     1.0  0.92572  0.34542  0.56166  1.0000
  C   C1930     1.0  0.52474  0.04402  0.51950  1.0000
  C   C1931     1.0  0.77276  0.33348  0.64427  1.0000
  H   H1538     1.0  0.68713  0.27596  0.57996  1.0000
  C   C1932     1.0  0.66315  0.42165  0.54344  1.0000
  H   H1539     1.0  0.70060  0.36519  0.53871  1.0000
  C   C1933     1.0  0.74252  0.07687  0.68527  1.0000
  H   H1540     1.0  0.53377  0.22550  0.64285  1.0000
  H   H1541     1.0  0.77381  0.29010  0.60775  1.0000
  H   H1542     1.0  0.81770  0.38409  0.52847  1.0000
  H   H1543     1.0  0.50714  0.10491  0.61969  1.0000
  C   C1934     1.0  0.50654  0.40114  0.59712  1.0000
  C   C1935     1.0  0.73528  0.31958  0.63782  1.0000
  C   C1936     1.0  0.89140  0.44012  0.58284  1.0000
  H   H1544     1.0  0.74691  0.06489  0.67239  1.0000
  H   H1545     1.0  0.56165  0.20500  0.61477  1.0000
  C   C1937     1.0  0.65909  0.39015  0.51840  1.0000
  C   C1938     1.0  0.86521  0.48725  0.70105  1.0000
  C   C1939     1.0  0.74978  0.33456  0.64835  1.0000
  C   C1940     1.0  0.65553  0.38495  0.55844  1.0000
  C   C1941     1.0  0.92186  0.41320  0.58181  1.0000
  H   H1546     1.0  0.75071  0.30983  0.57656  1.0000
  H   H1547     1.0  0.82752  0.42085  0.54387  1.0000
  C   C1942     1.0  0.69715  0.45892  0.52254  1.0000
  C   C1943     1.0  0.80522  0.39722  0.52862  1.0000
  H   H1548     1.0  0.95299  0.42587  0.56827  1.0000
  H   H1549     1.0  0.56077  0.28736  0.66645  1.0000
  C   C1944     1.0  0.73378  0.36671  0.52490  1.0000
  C   C1945     1.0  0.49327  0.34975  0.63761  1.0000
  H   H1550     1.0  0.52575  0.18017  0.65901  1.0000
  H   H1551     1.0  0.55896  0.30285  0.62804  1.0000
  C   C1946     1.0  0.69926  0.28042  0.62456  1.0000
  C   C1947     1.0  0.75915  0.08989  0.69520  1.0000
  C   C1948     1.0  0.69941  0.28577  0.57098  1.0000
  H   H1552     1.0  0.78392  0.34535  0.65219  1.0000
  C   C1949     1.0  0.59825  0.08489  0.58853  1.0000
  C   C1950     1.0  0.63449  0.33505  0.49399  1.0000
  C   C1951     1.0  0.88543  0.38619  0.72243  1.0000
  H   H1553     1.0  0.53493  0.08839  0.57488  1.0000
  H   H1554     1.0  0.94029  0.38419  0.63455  1.0000
  C   C1952     1.0  0.76794  0.41075  0.52023  1.0000
  C   C1953     1.0  0.67498  0.15325  0.67897  1.0000
  C   C1954     1.0  0.56240  0.06645  0.58367  1.0000
  H   H1555     1.0  0.74785  0.21170  0.57457  1.0000
  H   H1556     1.0  0.60338  0.01592  0.69910  1.0000
  H   H1557     1.0  0.78717  0.31905  0.50094  1.0000
  C   C1955     1.0  0.63450  0.00629  0.61620  1.0000
  H   H1558     1.0  0.66805  0.24215  0.65317  1.0000
  H   H1559     1.0  0.54735  0.06258  0.54005  1.0000
  H   H1560     1.0  0.78549  0.36451  0.55699  1.0000
  H   H1561     1.0  0.79912  0.31666  0.62650  1.0000
  C   C1956     1.0  0.75202  0.24937  0.62723  1.0000
  H   H1562     1.0  0.59452  0.99934  0.50514  1.0000
  H   H1563     1.0  0.51872  0.16128  0.69504  1.0000
  H   H1564     1.0  0.74094  0.37310  0.54030  1.0000
  P   P63       1.0  0.93180  0.38494  0.58572  1.0000
  C   C1957     1.0  0.92673  0.36884  0.56062  1.0000
  C   C1958     1.0  0.92359  0.37951  0.53992  1.0000
  H   H1565     1.0  0.91619  0.37528  0.50487  1.0000
  C   C1959     1.0  0.65938  0.40765  0.56177  1.0000
  H   H1566     1.0  0.65095  0.30919  0.63450  1.0000
  H   H1567     1.0  0.68726  0.31330  0.61556  1.0000
  C   C1960     1.0  0.91706  0.37264  0.60919  1.0000
  C   C1961     1.0  0.92520  0.37496  0.63114  1.0000
  C   C1962     1.0  0.91371  0.36543  0.64915  1.0000
  C   C1963     1.0  0.89404  0.35351  0.64543  1.0000
  C   C1964     1.0  0.88563  0.35136  0.62375  1.0000
  C   C1965     1.0  0.89698  0.36099  0.60571  1.0000
  H   H1568     1.0  0.92381  0.39751  0.53866  1.0000
  H   H1569     1.0  0.96947  0.35564  0.57292  1.0000
  H   H1570     1.0  0.75310  0.25961  0.64215  1.0000
  C   C1966     1.0  0.53953  0.24219  0.63924  1.0000
  C   C1967     1.0  0.66290  0.29556  0.63483  1.0000
  H   H1571     1.0  0.91989  0.36738  0.66609  1.0000
  H   H1572     1.0  0.88515  0.34616  0.65942  1.0000
  H   H1573     1.0  0.87009  0.34251  0.62100  1.0000
  H   H1574     1.0  0.55041  0.04931  0.63284  1.0000
  H   H1575     1.0  0.89554  0.40107  0.72368  1.0000
  P   P64       1.0  0.77717  0.36638  0.50857  1.0000
  H   H1576     1.0  0.65132  0.35874  0.53425  1.0000
  C   C1968     1.0  0.78360  0.39323  0.52051  1.0000
  C   C1969     1.0  0.56110  0.01695  0.59083  1.0000
  C   C1970     1.0  0.68549  0.13570  0.69037  1.0000
  C   C1971     1.0  0.78130  0.31735  0.62971  1.0000
  H   H1577     1.0  0.89937  0.47353  0.57237  1.0000
  H   H1578     1.0  0.68466  0.16428  0.66837  1.0000
  C   C1972     1.0  0.54700  0.17249  0.61729  1.0000
  C   C1973     1.0  0.49103  0.42630  0.62515  1.0000
  P   P65       1.0  0.68577  0.09765  0.71786  1.0000
  H   H1579     1.0  0.65830  0.38311  0.50176  1.0000
  C   C1974     1.0  0.77357  0.43164  0.52904  1.0000
  C   C1975     1.0  0.92120  0.33294  0.54240  1.0000
  P   P66       1.0  0.54501  0.04189  0.58510  1.0000
  H   H1580     1.0  0.55820  0.12245  0.57370  1.0000
  H   H1581     1.0  0.59860  0.12038  0.58264  1.0000
  C   C1976     1.0  0.71078  0.30400  0.53668  1.0000
  H   H1582     1.0  0.52810  0.05397  0.50472  1.0000
  C   C1977     1.0  0.77346  0.47726  0.70123  1.0000
  C   C1978     1.0  0.58858  0.10530  0.58256  1.0000
  H   H1583     1.0  0.76133  0.44498  0.52928  1.0000
  C   C1979     1.0  0.54742  0.25533  0.65689  1.0000
  C   C1980     1.0  0.74910  0.22226  0.58924  1.0000
  C   C1981     1.0  0.76295  0.22871  0.62674  1.0000
  H   H1584     1.0  0.64368  0.16993  0.67203  1.0000
  C   C1982     1.0  0.53917  0.25067  0.61730  1.0000
  C   C1983     1.0  0.81087  0.41814  0.53721  1.0000
  C   C1984     1.0  0.57354  0.24875  0.53351  1.0000
  C   C1985     1.0  0.96139  0.38539  0.59201  1.0000
  H   H1585     1.0  0.93882  0.46430  0.56310  1.0000
  H   H1586     1.0  0.77249  0.22318  0.64114  1.0000
  H   H1587     1.0  0.79932  0.45135  0.54477  1.0000
  H   H1588     1.0  0.95943  0.41502  0.61276  1.0000
  C   C1986     1.0  0.70506  0.47971  0.52960  1.0000
  H   H1589     1.0  0.52809  0.14206  0.61867  1.0000
  C   C1987     1.0  0.65494  0.37628  0.53676  1.0000
  C   C1988     1.0  0.64974  0.12446  0.70561  1.0000
  H   H1590     1.0  0.49377  0.99954  0.53645  1.0000
  C   C1989     1.0  0.74741  0.36245  0.50623  1.0000
  H   H1591     1.0  0.50877  0.46904  0.62916  1.0000
  C   C1990     1.0  0.48944  0.25981  0.60187  1.0000
  C   C1991     1.0  0.79173  0.47860  0.68670  1.0000
  C   C1992     1.0  0.64996  0.05090  0.68308  1.0000
  H   H1592     1.0  0.55873  0.00567  0.52523  1.0000
  H   H1593     1.0  0.70452  0.44387  0.52946  1.0000
  C   C1993     1.0  0.49483  0.48024  0.63179  1.0000
  H   H1594     1.0  0.86796  0.43889  0.72117  1.0000
  C   C1994     1.0  0.73120  0.10774  0.71855  1.0000
  C   C1995     1.0  0.50967  0.02626  0.51834  1.0000
  H   H1595     1.0  0.61969  0.07434  0.73284  1.0000
  C   C1996     1.0  0.55535  0.00257  0.60848  1.0000
  H   H1596     1.0  0.49630  0.20357  0.64162  1.0000
  C   C1997     1.0  0.56601  0.98911  0.52463  1.0000
  H   H1597     1.0  0.54190  0.00664  0.61990  1.0000
  C   C1998     1.0  0.84883  0.48244  0.63527  1.0000
  H   H1598     1.0  0.81904  0.34564  0.49331  1.0000
  H   H1599     1.0  0.75876  0.46791  0.69633  1.0000
  H   H1600     1.0  0.49792  0.22578  0.55689  1.0000
  H   H1601     1.0  0.51272  0.00813  0.57220  1.0000
  H   H1602     1.0  0.72705  0.11983  0.73142  1.0000
  C   C1999     1.0  0.50988  0.18260  0.66740  1.0000
  C   C2000     1.0  0.67060  0.47732  0.49804  1.0000
  C   C2001     1.0  0.50023  0.24423  0.58795  1.0000
  H   H1603     1.0  0.49586  0.04951  0.58558  1.0000
  C   C2002     1.0  0.87291  0.35122  0.73799  1.0000
  H   H1604     1.0  0.90123  0.45861  0.73558  1.0000
  H   H1605     1.0  0.49447  0.15866  0.60107  1.0000
  H   H1606     1.0  0.49402  0.19839  0.59035  1.0000
  C   C2003     1.0  0.48975  0.23752  0.56803  1.0000
  H   H1607     1.0  0.71818  0.43823  0.48991  1.0000
  C   C2004     1.0  0.49318  0.19573  0.65762  1.0000
  H   H1608     1.0  0.49316  0.24001  0.66312  1.0000
  H   H1609     1.0  0.97816  0.39454  0.49546  1.0000
  H   H1610     1.0  0.97692  0.24096  0.48950  1.0000
  H   H1611     1.0  0.90406  0.48730  0.62174  1.0000
  H   H1612     1.0  0.75989  0.48727  0.73311  1.0000
  Fe  Fe133     1.0  0.65631  0.03069  0.88282  1.0000
  S   S265      1.0  0.63292  0.05771  0.87130  1.0000
  H   H1613     1.0  0.84473  0.38518  0.81786  1.0000
  Fe  Fe134     1.0  0.69690  0.06301  0.88074  1.0000
  S   S266      1.0  0.67590  0.09160  0.86797  1.0000
  S   S267      1.0  0.73446  0.06331  0.88878  1.0000
  Fe  Fe135     1.0  0.65146  0.08056  0.89483  1.0000
  S   S268      1.0  0.63114  0.10382  0.91752  1.0000
  Fe  Fe136     1.0  0.65905  0.06602  0.84558  1.0000
  S   S269      1.0  0.65241  0.06376  0.80768  1.0000
  S   S270      1.0  0.67303  0.05306  0.90829  1.0000
  S   S271      1.0  0.68205  0.03807  0.85655  1.0000
  Fe  Fe137     1.0  0.84165  0.14330  0.90457  1.0000
  S   S272      1.0  0.84369  0.16802  0.93283  1.0000
  S   S273      1.0  0.80729  0.14162  0.88774  1.0000
  Fe  Fe138     1.0  0.89106  0.13072  0.91034  1.0000
  S   S274      1.0  0.89553  0.15393  0.93965  1.0000
  S   S275      1.0  0.91965  0.10757  0.89969  1.0000
  Fe  Fe139     1.0  0.86220  0.14115  0.95180  1.0000
  C   C2005     1.0  0.97048  0.28255  0.79135  1.0000
  Fe  Fe140     1.0  0.87663  0.17872  0.91811  1.0000
  S   S276      1.0  0.88898  0.21508  0.91772  1.0000
  S   S277      1.0  0.85879  0.11613  0.92392  1.0000
  S   S278      1.0  0.87358  0.15588  0.88837  1.0000
  Fe  Fe141     1.0  0.94866  0.35208  0.83247  1.0000
  S   S279      1.0  0.92520  0.34463  0.86099  1.0000
  C   C2006     1.0  0.75958  0.15323  0.94485  1.0000
  Fe  Fe142     1.0  0.90933  0.36089  0.79901  1.0000
  S   S280      1.0  0.88350  0.35375  0.82554  1.0000
  S   S281      1.0  0.90256  0.37629  0.76420  1.0000
  Fe  Fe143     1.0  0.90512  0.37440  0.84846  1.0000
  S   S282      1.0  0.89307  0.40100  0.87343  1.0000
  Fe  Fe144     1.0  0.90550  0.32460  0.83596  1.0000
  S   S283      1.0  0.89264  0.28855  0.83948  1.0000
  S   S284      1.0  0.92999  0.38300  0.82166  1.0000
  S   S285      1.0  0.92998  0.33058  0.80774  1.0000
  H   H1614     1.0  0.92332  0.44058  0.82413  1.0000
  C   C2007     1.0  0.96048  0.20068  0.83088  1.0000
  H   H1615     1.0  0.93688  0.28716  0.91684  1.0000
  C   C2008     1.0  0.67208  0.11801  0.75805  1.0000
  H   H1616     1.0  0.92428  0.41970  0.75919  1.0000
  C   C2009     1.0  0.85385  0.46631  0.85996  1.0000
  C   C2010     1.0  0.85617  0.45005  0.84307  1.0000
  C   C2011     1.0  0.86801  0.43000  0.84693  1.0000
  C   C2012     1.0  0.87772  0.42591  0.86779  1.0000
  C   C2013     1.0  0.87524  0.44204  0.88479  1.0000
  C   C2014     1.0  0.86351  0.46219  0.88089  1.0000
  H   H1617     1.0  0.84855  0.45289  0.82694  1.0000
  H   H1618     1.0  0.86953  0.41762  0.83385  1.0000
  H   H1619     1.0  0.88259  0.43901  0.90105  1.0000
  P   P67       1.0  0.98607  0.21265  0.82013  1.0000
  C   C2015     1.0  0.88928  0.23535  0.89579  1.0000
  C   C2016     1.0  0.89703  0.25703  0.90049  1.0000
  C   C2017     1.0  0.89804  0.27358  0.88364  1.0000
  C   C2018     1.0  0.89113  0.26870  0.86179  1.0000
  C   C2019     1.0  0.88332  0.24701  0.85713  1.0000
  C   C2020     1.0  0.88243  0.23044  0.87395  1.0000
  H   H1620     1.0  0.90232  0.26099  0.91731  1.0000
  H   H1621     1.0  0.90449  0.28997  0.88748  1.0000
  H   H1622     1.0  0.87803  0.24293  0.84031  1.0000
  H   H1623     1.0  0.87643  0.21388  0.87001  1.0000
  C   C2021     1.0  0.94428  0.11579  0.88515  1.0000
  C   C2022     1.0  0.94764  0.13776  0.87804  1.0000
  C   C2023     1.0  0.96757  0.14363  0.86687  1.0000
  H   H1624     1.0  0.68683  0.11023  0.81253  1.0000
  C   C2024     1.0  0.96112  0.09985  0.88098  1.0000
  H   H1625     1.0  0.93482  0.15017  0.88100  1.0000
  H   H1626     1.0  0.95859  0.08278  0.88623  1.0000
  C   C2025     1.0  0.75425  0.08553  0.88835  1.0000
  C   C2026     1.0  0.74800  0.10785  0.88519  1.0000
  C   C2027     1.0  0.76438  0.12482  0.88533  1.0000
  C   C2028     1.0  0.78713  0.11978  0.88891  1.0000
  C   C2029     1.0  0.79332  0.09750  0.89225  1.0000
  C   C2030     1.0  0.77700  0.08051  0.89178  1.0000
  H   H1627     1.0  0.73061  0.11198  0.88243  1.0000
  H   H1628     1.0  0.75942  0.14197  0.88256  1.0000
  H   H1629     1.0  0.81073  0.09330  0.89483  1.0000
  H   H1630     1.0  0.78207  0.06333  0.89414  1.0000
  C   C2031     1.0  0.63525  0.07829  0.78804  1.0000
  C   C2032     1.0  0.62442  0.09835  0.79322  1.0000
  C   C2033     1.0  0.61238  0.10999  0.77653  1.0000
  C   C2034     1.0  0.61067  0.10161  0.75456  1.0000
  H   H1631     1.0  0.75652  0.46987  0.91130  1.0000
  C   C2035     1.0  0.63315  0.06966  0.76621  1.0000
  H   H1632     1.0  0.62579  0.10520  0.80991  1.0000
  H   H1633     1.0  0.69043  0.48229  0.97101  1.0000
  C   C2036     1.0  0.60345  0.02312  0.93300  1.0000
  H   H1634     1.0  0.64108  0.05394  0.76215  1.0000
  C   C2037     1.0  0.63665  0.11000  0.94615  1.0000
  C   C2038     1.0  0.62157  0.12361  0.95811  1.0000
  C   C2039     1.0  0.65554  0.10176  0.95723  1.0000
  P   P68       1.0  0.97429  0.25501  0.92129  1.0000
  H   H1635     1.0  0.66734  0.09135  0.94828  1.0000
  C   C2040     1.0  0.95801  0.24564  0.80218  1.0000
  H   H1636     1.0  0.98706  0.16387  0.81681  1.0000
  H   H1637     1.0  0.83848  0.46941  0.78960  1.0000
  H   H1638     1.0  0.80451  0.42896  0.90254  1.0000
  H   H1639     1.0  0.98089  0.17551  0.89916  1.0000
  C   C2041     1.0  0.94623  0.26342  0.85935  1.0000
  C   C2042     1.0  0.80430  0.42554  0.88474  1.0000
  H   H1640     1.0  0.82690  0.03553  0.92553  1.0000
  C   C2043     1.0  0.77641  0.34293  0.86697  1.0000
  C   C2044     1.0  0.91840  0.45772  0.82731  1.0000
  C   C2045     1.0  0.77904  0.16088  0.93442  1.0000
  C   C2046     1.0  0.93208  0.29370  0.97306  1.0000
  C   C2047     1.0  0.72488  0.09476  0.98723  1.0000
  H   H1641     1.0  0.96285  0.46163  0.80345  1.0000
  C   C2048     1.0  0.80362  0.35604  0.77711  1.0000
  H   H1642     1.0  0.81799  0.32332  0.84186  1.0000
  H   H1643     1.0  0.92846  0.19960  0.87829  1.0000
  C   C2049     1.0  0.96661  0.22574  0.92227  1.0000
  C   C2050     1.0  0.61604  0.04237  0.93666  1.0000
  C   C2051     1.0  0.94839  0.21858  0.93526  1.0000
  C   C2052     1.0  0.59822  0.99657  0.84342  1.0000
  C   C2053     1.0  0.95329  0.26703  0.79405  1.0000
  S   S286      1.0  0.98705  0.34913  0.83204  1.0000
  H   H1644     1.0  0.93160  0.12604  0.98305  1.0000
  H   H1645     1.0  0.94902  0.16314  0.92258  1.0000
  H   H1646     1.0  0.67873  0.05460  0.74107  1.0000
  H   H1647     1.0  0.93372  0.25508  0.84925  1.0000
  H   H1648     1.0  0.71969  0.33817  0.86538  1.0000
  H   H1649     1.0  0.92368  0.07873  0.96984  1.0000
  H   H1650     1.0  0.82819  0.36294  0.75164  1.0000
  C   C2054     1.0  0.69916  0.48301  0.98687  1.0000
  C   C2055     1.0  0.97679  0.42942  0.79592  1.0000
  H   H1651     1.0  0.80310  0.45272  0.83485  1.0000
  C   C2056     1.0  0.67280  0.12128  0.78121  1.0000
  C   C2057     1.0  0.70025  0.08907  0.76139  1.0000
  C   C2058     1.0  0.94981  0.12021  0.95248  1.0000
  C   C2059     1.0  0.71744  0.12365  0.95965  1.0000
  C   C2060     1.0  0.98456  0.12781  0.86302  1.0000
  C   C2061     1.0  0.80500  0.41690  0.83871  1.0000
  H   H1652     1.0  0.97791  0.31028  0.85953  1.0000
  H   H1653     1.0  0.98599  0.39584  0.78661  1.0000
  H   H1654     1.0  0.80521  0.41397  0.82085  1.0000
  H   H1655     1.0  0.97515  0.25666  0.97002  1.0000
  H   H1656     1.0  0.60447  0.12573  0.78063  1.0000
  H   H1657     1.0  0.60162  0.01665  0.91615  1.0000
  C   C2062     1.0  0.87937  0.44046  0.78501  1.0000
  H   H1658     1.0  0.58392  0.99710  0.94816  1.0000
  C   C2063     1.0  0.59609  0.02043  0.97283  1.0000
  C   C2064     1.0  0.83252  0.02001  0.93298  1.0000
  C   C2065     1.0  0.89248  0.07443  0.95249  1.0000
  H   H1659     1.0  0.79054  0.33589  0.87581  1.0000
  C   C2066     1.0  0.81268  0.36880  0.81466  1.0000
  H   H1660     1.0  0.68943  0.01759  0.78577  1.0000
  H   H1661     1.0  0.56945  0.11661  0.97946  1.0000
  H   H1662     1.0  0.60698  0.13019  0.94968  1.0000
  C   C2067     1.0  0.79815  0.35785  0.79982  1.0000
  H   H1663     1.0  0.78282  0.35031  0.80565  1.0000
  C   C2068     1.0  0.78469  0.19544  0.98212  1.0000
  C   C2069     1.0  0.70071  0.09223  0.78458  1.0000
  C   C2070     1.0  0.61888  0.05052  0.95836  1.0000
  C   C2071     1.0  0.91523  0.46454  0.84945  1.0000
  H   H1664     1.0  0.79105  0.03692  0.95367  1.0000
  C   C2072     1.0  0.88973  0.45094  0.74727  1.0000
  C   C2073     1.0  0.60884  0.03974  0.97661  1.0000
  C   C2074     1.0  0.96205  0.26783  0.96433  1.0000
  H   H1665     1.0  0.96483  0.21339  0.86435  1.0000
  H   H1666     1.0  0.88275  0.43997  0.80275  1.0000
  C   C2075     1.0  0.92782  0.29644  0.95022  1.0000
  C   C2076     1.0  0.71418  0.19141  0.97895  1.0000
  H   H1667     1.0  0.71132  0.08188  0.79501  1.0000
  H   H1668     1.0  0.84787  0.30061  0.85915  1.0000
  C   C2077     1.0  0.62094  0.08117  0.74956  1.0000
  H   H1669     1.0  0.80587  0.38999  0.88901  1.0000
  C   C2078     1.0  0.59756  0.01974  0.84574  1.0000
  C   C2079     1.0  0.60179  0.03339  0.82726  1.0000
  C   C2080     1.0  0.60650  0.02386  0.80644  1.0000
  H   H1670     1.0  0.81144  0.17319  0.97258  1.0000
  H   H1671     1.0  0.97193  0.11431  0.92480  1.0000
  H   H1672     1.0  0.84920  0.42135  0.78827  1.0000
  C   C2081     1.0  0.70621  0.16948  0.97665  1.0000
  P   P69       1.0  0.91942  0.46374  0.78098  1.0000
  C   C2082     1.0  0.77931  0.35973  0.85082  1.0000
  H   H1673     1.0  0.79325  0.18442  0.91127  1.0000
  H   H1674     1.0  0.83052  0.47708  0.74981  1.0000
  C   C2083     1.0  0.76040  0.36925  0.84064  1.0000
  C   C2084     1.0  0.71837  0.08456  0.94863  1.0000
  H   H1675     1.0  0.66173  0.13335  0.78898  1.0000
  H   H1676     1.0  0.59435  0.02708  0.86201  1.0000
  H   H1677     1.0  0.60200  0.05139  0.82913  1.0000
  H   H1678     1.0  0.61018  0.03477  0.79246  1.0000
  C   C2085     1.0  0.56958  0.02961  0.74264  1.0000
  H   H1679     1.0  0.57260  0.01726  0.77613  1.0000
  C   C2086     1.0  0.68697  0.10831  0.79449  1.0000
  C   C2087     1.0  0.80624  0.39908  0.85394  1.0000
  S   S287      1.0  0.64017  0.99734  0.89264  1.0000
  C   C2088     1.0  0.96819  0.26553  0.89354  1.0000
  C   C2089     1.0  0.93898  0.42289  0.76923  1.0000
  C   C2090     1.0  0.97776  0.28548  0.88572  1.0000
  H   H1680     1.0  0.91789  0.45279  0.86300  1.0000
  C   C2091     1.0  0.80538  0.40353  0.87700  1.0000
  H   H1681     1.0  0.94429  0.23415  0.80452  1.0000
  H   H1682     1.0  0.96205  0.48072  0.76251  1.0000
  C   C2092     1.0  0.65616  0.00463  0.78206  1.0000
  C   C2093     1.0  0.75497  0.33513  0.87208  1.0000
  C   C2094     1.0  0.72279  0.07838  0.97071  1.0000
  P   P70       1.0  0.80670  0.37055  0.84424  1.0000
  H   H1683     1.0  0.75286  0.32200  0.88439  1.0000
  H   H1684     1.0  0.83064  0.00220  0.90171  1.0000
  H   H1685     1.0  0.64927  0.01701  0.79331  1.0000
  C   C2095     1.0  0.93345  0.19663  0.86106  1.0000
  H   H1686     1.0  0.77132  0.10398  0.93812  1.0000
  H   H1687     1.0  0.70649  0.98976  0.75991  1.0000
  C   C2096     1.0  0.83771  0.01877  0.95588  1.0000
  H   H1688     1.0  0.93616  0.27177  0.79031  1.0000
  H   H1689     1.0  0.98283  0.35414  0.88096  1.0000
  C   C2097     1.0  0.95402  0.18053  0.92260  1.0000
  C   C2098     1.0  0.98123  0.10584  0.87014  1.0000
  C   C2099     1.0  0.95199  0.25487  0.88034  1.0000
  C   C2100     1.0  0.68580  0.10181  0.74790  1.0000
  C   C2101     1.0  0.94920  0.27942  0.98011  1.0000
  H   H1690     1.0  0.71686  0.07193  0.93568  1.0000
  C   C2102     1.0  0.95401  0.20446  0.85313  1.0000
  H   H1691     1.0  0.62885  0.06533  0.96092  1.0000
  C   C2103     1.0  0.89400  0.45144  0.77040  1.0000
  C   C2104     1.0  0.67911  0.15022  0.89326  1.0000
  C   C2105     1.0  0.65707  0.15424  0.89990  1.0000
  C   C2106     1.0  0.65221  0.15847  0.92237  1.0000
  C   C2107     1.0  0.66929  0.15834  0.93834  1.0000
  C   C2108     1.0  0.69152  0.15450  0.93181  1.0000
  C   C2109     1.0  0.69628  0.15035  0.90912  1.0000
  P   P71       1.0  0.71354  0.15274  0.95244  1.0000
  C   C2110     1.0  0.90690  0.07203  0.97071  1.0000
  C   C2111     1.0  0.95553  0.28341  0.85192  1.0000
  C   C2112     1.0  0.72131  0.47410  0.91820  1.0000
  C   C2113     1.0  0.83301  0.37723  0.80657  1.0000
  C   C2114     1.0  0.83864  0.37493  0.78395  1.0000
  C   C2115     1.0  0.97391  0.40922  0.78458  1.0000
  C   C2116     1.0  0.73628  0.34427  0.86142  1.0000
  H   H1692     1.0  0.71101  0.07649  0.75405  1.0000
  C   C2117     1.0  0.87077  0.06586  0.95355  1.0000
  H   H1693     1.0  0.71752  0.45654  0.91616  1.0000
  C   C2118     1.0  0.86041  0.42966  0.77677  1.0000
  C   C2119     1.0  0.95510  0.40606  0.77111  1.0000
  C   C2120     1.0  0.73896  0.16341  0.94021  1.0000
  C   C2121     1.0  0.73819  0.18177  0.92558  1.0000
  C   C2122     1.0  0.75775  0.18950  0.91539  1.0000
  C   C2123     1.0  0.77814  0.17897  0.91973  1.0000
  C   C2124     1.0  0.59350  0.01214  0.95107  1.0000
  C   C2125     1.0  0.94148  0.44304  0.78095  1.0000
  H   H1694     1.0  0.68279  0.14639  0.87592  1.0000
  H   H1695     1.0  0.64363  0.15332  0.88778  1.0000
  H   H1696     1.0  0.63500  0.16079  0.92757  1.0000
  H   H1697     1.0  0.66488  0.16064  0.95575  1.0000
  H   H1698     1.0  0.71319  0.14663  0.90370  1.0000
  H   H1699     1.0  0.71211  0.11129  0.92587  1.0000
  C   C2126     1.0  0.98729  0.11413  0.97973  1.0000
  H   H1700     1.0  0.62370  0.05095  0.92265  1.0000
  H   H1701     1.0  0.95007  0.29067  0.83624  1.0000
  C   C2127     1.0  0.94065  0.28489  0.93441  1.0000
  H   H1702     1.0  0.80299  0.46030  0.87545  1.0000
  H   H1703     1.0  0.93533  0.12268  0.94188  1.0000
  H   H1704     1.0  0.76225  0.38270  0.82865  1.0000
  H   H1705     1.0  0.75708  0.20331  0.90371  1.0000
  H   H1706     1.0  0.58828  0.01163  0.98654  1.0000
  H   H1707     1.0  0.72245  0.18991  0.92182  1.0000
  H   H1708     1.0  0.85471  0.38077  0.77793  1.0000
  C   C2128     1.0  0.80347  0.43887  0.84653  1.0000
  S   S288      1.0  0.84739  0.13407  0.98670  1.0000
  H   H1709     1.0  0.91445  0.30738  0.94472  1.0000
  H   H1710     1.0  0.65325  0.03035  0.98491  1.0000
  H   H1711     1.0  0.85124  0.99774  0.98207  1.0000
  C   C2129     1.0  0.94224  0.19609  0.93546  1.0000
  C   C2130     1.0  0.57988  0.01713  0.75955  1.0000
  C   C2131     1.0  0.90787  0.48619  0.85411  1.0000
  H   H1712     1.0  0.92788  0.19089  0.94520  1.0000
  C   C2132     1.0  0.95782  0.27044  0.94137  1.0000
  C   C2133     1.0  0.97123  0.29445  0.86511  1.0000
  C   C2134     1.0  0.68868  0.98938  0.76323  1.0000
  C   C2135     1.0  0.83483  0.00117  0.91933  1.0000
  H   H1713     1.0  0.66055  0.12800  0.74841  1.0000
  C   C2136     1.0  0.97190  0.18753  0.90932  1.0000
  C   C2137     1.0  0.92553  0.18100  0.82459  1.0000
  C   C2138     1.0  0.91925  0.18486  0.84680  1.0000
  C   C2139     1.0  0.94598  0.18904  0.81658  1.0000
  H   H1714     1.0  0.91447  0.17183  0.81359  1.0000
  H   H1715     1.0  0.90336  0.17872  0.85298  1.0000
  H   H1716     1.0  0.95041  0.18624  0.79922  1.0000
  C   C2140     1.0  0.80333  0.44319  0.86951  1.0000
  H   H1717     1.0  0.72465  0.06090  0.97495  1.0000
  C   C2141     1.0  0.82383  0.36462  0.76918  1.0000
  C   C2142     1.0  0.80323  0.10047  0.95464  1.0000
  H   H1718     1.0  0.85988  0.06767  0.93919  1.0000
  H   H1719     1.0  0.93840  0.23027  0.94482  1.0000
  C   C2143     1.0  0.65901  0.10674  0.98003  1.0000
  C   C2144     1.0  0.79813  0.17653  0.98447  1.0000
  H   H1720     1.0  0.89814  0.08292  0.93748  1.0000
  H   H1721     1.0  0.67360  0.10011  0.98841  1.0000
  C   C2145     1.0  0.71567  0.10707  0.94310  1.0000
  H   H1722     1.0  0.94319  0.24032  0.88644  1.0000
  C   C2146     1.0  0.74329  0.48156  0.91550  1.0000
  C   C2147     1.0  0.82842  0.35424  0.85747  1.0000
  C   C2148     1.0  0.82980  0.33124  0.85306  1.0000
  C   C2149     1.0  0.84664  0.31831  0.86284  1.0000
  C   C2150     1.0  0.86243  0.32827  0.87681  1.0000
  C   C2151     1.0  0.86152  0.35121  0.88086  1.0000
  C   C2152     1.0  0.84476  0.36425  0.87103  1.0000
  C   C2153     1.0  0.98006  0.23958  0.80770  1.0000
  H   H1723     1.0  0.72485  0.19874  0.96636  1.0000
  H   H1724     1.0  0.98290  0.07218  0.93080  1.0000
  H   H1725     1.0  0.76068  0.13925  0.95623  1.0000
  C   C2154     1.0  0.73899  0.36141  0.84579  1.0000
  H   H1726     1.0  0.96991  0.16058  0.86122  1.0000
  C   C2155     1.0  0.91488  0.47275  0.80958  1.0000
  H   H1727     1.0  0.79483  0.15247  0.93722  1.0000
  H   H1728     1.0  0.87575  0.31830  0.88394  1.0000
  H   H1729     1.0  0.87426  0.35907  0.89106  1.0000
  H   H1730     1.0  0.84517  0.38212  0.87360  1.0000
  C   C2156     1.0  0.67913  0.00503  0.77775  1.0000
  C   C2157     1.0  0.78326  0.09252  0.94550  1.0000
  C   C2158     1.0  0.77892  0.06960  0.94532  1.0000
  C   C2159     1.0  0.79467  0.05461  0.95396  1.0000
  C   C2160     1.0  0.81513  0.06246  0.96236  1.0000
  C   C2161     1.0  0.81900  0.08551  0.96324  1.0000
  P   P72       1.0  0.83546  0.04315  0.97347  1.0000
  C   C2162     1.0  0.86324  0.05498  0.97295  1.0000
  H   H1731     1.0  0.96670  0.29926  0.78545  1.0000
  H   H1732     1.0  0.95253  0.39022  0.76270  1.0000
  H   H1733     1.0  0.72448  0.36866  0.83768  1.0000
  C   C2163     1.0  0.59943  0.00483  0.75500  1.0000
  C   C2164     1.0  0.97055  0.11524  0.94285  1.0000
  H   H1734     1.0  0.84191  0.42021  0.74732  1.0000
  C   C2165     1.0  0.96068  0.44630  0.79409  1.0000
  C   C2166     1.0  0.84624  0.99876  0.96466  1.0000
  C   C2167     1.0  0.88578  0.37058  0.74009  1.0000
  H   H1735     1.0  0.59128  0.08251  0.97326  1.0000
  C   C2168     1.0  0.84256  0.48549  0.78249  1.0000
  H   H1736     1.0  0.86165  0.47434  0.89416  1.0000
  C   C2169     1.0  0.85621  0.42922  0.75378  1.0000
  H   H1737     1.0  0.92201  0.30256  0.98528  1.0000
  H   H1738     1.0  0.80677  0.11819  0.95484  1.0000
  C   C2170     1.0  0.62519  0.12880  0.98088  1.0000
  C   C2171     1.0  0.60689  0.00055  0.80385  1.0000
  H   H1739     1.0  0.83431  0.09194  0.97035  1.0000
  H   H1740     1.0  0.76355  0.06347  0.93790  1.0000
  H   H1741     1.0  0.87304  0.33897  0.75129  1.0000
  C   C2172     1.0  0.97791  0.21007  0.90885  1.0000
  H   H1742     1.0  0.79242  0.34759  0.76567  1.0000
  H   H1743     1.0  0.72494  0.45989  0.97677  1.0000
  C   C2173     1.0  0.72271  0.11732  0.98166  1.0000
  H   H1744     1.0  0.68732  0.48313  0.92495  1.0000
  C   C2174     1.0  0.94773  0.12210  0.97568  1.0000
  H   H1745     1.0  0.78743  0.20673  0.96822  1.0000
  H   H1746     1.0  0.98255  0.04403  0.90076  1.0000
  C   C2175     1.0  0.87086  0.43987  0.73904  1.0000
  P   P73       1.0  0.61266  0.98838  0.77670  1.0000
  H   H1747     1.0  0.55492  0.03961  0.74635  1.0000
  C   C2176     1.0  0.64251  0.98850  0.77192  1.0000
  Fe  Fe145     1.0  0.88216  0.63185  0.09798  1.0000
  S   S289      1.0  0.88801  0.64953  0.06515  1.0000
  S   S290      1.0  0.90781  0.61372  0.12035  1.0000
  Fe  Fe146     1.0  0.83128  0.64244  0.09725  1.0000
  S   S291      1.0  0.83455  0.66167  0.06511  1.0000
  S   S292      1.0  0.79645  0.64194  0.11346  1.0000
  Fe  Fe147     1.0  0.85611  0.63304  0.05316  1.0000
  S   S293      1.0  0.84380  0.61428  0.02183  1.0000
  Fe  Fe148     1.0  0.86579  0.67660  0.08002  1.0000
  S   S294      1.0  0.87507  0.71376  0.07703  1.0000
  S   S295      1.0  0.85170  0.61342  0.08514  1.0000
  S   S296      1.0  0.86113  0.65944  0.11299  1.0000
  Fe  Fe149     1.0  0.93537  0.84932  0.16201  1.0000
  S   S297      1.0  0.91128  0.84456  0.13345  1.0000
  S   S298      1.0  0.97299  0.84085  0.16184  1.0000
  Fe  Fe150     1.0  0.89681  0.85966  0.19602  1.0000
  S   S299      1.0  0.87050  0.85491  0.16947  1.0000
  C   C2177     1.0  0.70990  0.53975  0.04970  1.0000
  Fe  Fe151     1.0  0.89058  0.82478  0.15789  1.0000
  S   S300      1.0  0.87506  0.78981  0.15319  1.0000
  Fe  Fe152     1.0  0.89322  0.87509  0.14731  1.0000
  S   S301      1.0  0.88075  0.90334  0.12453  1.0000
  S   S302      1.0  0.91532  0.82836  0.18624  1.0000
  S   S303      1.0  0.91885  0.88108  0.17405  1.0000
  Fe  Fe153     1.0  0.68666  0.56385  0.12877  1.0000
  S   S304      1.0  0.66242  0.59222  0.13400  1.0000
  S   S305      1.0  0.72340  0.56402  0.11791  1.0000
  Fe  Fe154     1.0  0.65032  0.52771  0.13833  1.0000
  S   S306      1.0  0.62358  0.55381  0.14349  1.0000
  H   H1748     1.0  0.74272  0.50630  0.21849  1.0000
  Fe  Fe155     1.0  0.63892  0.57120  0.11319  1.0000
  S   S307      1.0  0.61725  0.58458  0.08437  1.0000
  Fe  Fe156     1.0  0.64909  0.57260  0.16381  1.0000
  S   S308      1.0  0.64679  0.58458  0.20051  1.0000
  S   S309      1.0  0.66365  0.54362  0.10687  1.0000
  S   S310      1.0  0.67533  0.54591  0.15968  1.0000
  C   C2178     1.0  0.62551  0.59564  0.05785  1.0000
  C   C2179     1.0  0.64797  0.59849  0.05194  1.0000
  C   C2180     1.0  0.65371  0.60761  0.03090  1.0000
  C   C2181     1.0  0.63713  0.61407  0.01543  1.0000
  C   C2182     1.0  0.61467  0.61085  0.02116  1.0000
  C   C2183     1.0  0.60895  0.60180  0.04225  1.0000
  H   H1749     1.0  0.66087  0.59403  0.06378  1.0000
  H   H1750     1.0  0.67114  0.60996  0.02677  1.0000
  H   H1751     1.0  0.60169  0.61575  0.00954  1.0000
  H   H1752     1.0  0.59151  0.59970  0.04660  1.0000
  H   H1753     1.0  0.60561  0.55256  0.03152  1.0000
  C   C2184     1.0  0.62493  0.58560  0.22097  1.0000
  C   C2185     1.0  0.60224  0.58492  0.21527  1.0000
  C   C2186     1.0  0.73306  0.53840  0.04589  1.0000
  H   H1754     1.0  0.59747  0.58298  0.19792  1.0000
  C   C2187     1.0  0.86996  0.92988  0.13295  1.0000
  C   C2188     1.0  0.86449  0.94585  0.11650  1.0000
  C   C2189     1.0  0.85592  0.96707  0.12244  1.0000
  C   C2190     1.0  0.85243  0.97250  0.14497  1.0000
  C   C2191     1.0  0.85809  0.95659  0.16138  1.0000
  C   C2192     1.0  0.86687  0.93548  0.15546  1.0000
  H   H1755     1.0  0.86681  0.94175  0.09902  1.0000
  C   C2193     1.0  0.66081  0.54106  0.02376  1.0000
  H   H1756     1.0  0.85558  0.96064  0.17884  1.0000
  H   H1757     1.0  0.87105  0.92345  0.16830  1.0000
  C   C2194     1.0  0.90050  0.97253  0.19672  1.0000
  C   C2195     1.0  0.97870  0.76813  0.14039  1.0000
  C   C2196     1.0  0.83762  0.90142  0.20667  1.0000
  H   H1758     1.0  0.93131  0.90691  0.11712  1.0000
  H   H1759     1.0  0.74080  0.52301  0.04051  1.0000
  C   C2197     1.0  0.87560  0.73441  0.09872  1.0000
  C   C2198     1.0  0.88593  0.75515  0.09459  1.0000
  C   C2199     1.0  0.88623  0.77218  0.11102  1.0000
  C   C2200     1.0  0.87579  0.76889  0.13175  1.0000
  C   C2201     1.0  0.86527  0.74824  0.13577  1.0000
  C   C2202     1.0  0.86546  0.73101  0.11958  1.0000
  H   H1760     1.0  0.89373  0.75808  0.07852  1.0000
  H   H1761     1.0  0.89414  0.78799  0.10745  1.0000
  H   H1762     1.0  0.85688  0.74551  0.15157  1.0000
  H   H1763     1.0  0.85735  0.71527  0.12304  1.0000
  C   C2203     1.0  0.77635  0.62004  0.11427  1.0000
  C   C2204     1.0  0.78096  0.59858  0.10620  1.0000
  C   C2205     1.0  0.76456  0.58173  0.10745  1.0000
  C   C2206     1.0  0.74334  0.58603  0.11675  1.0000
  C   C2207     1.0  0.73873  0.60745  0.12487  1.0000
  C   C2208     1.0  0.75511  0.62435  0.12355  1.0000
  H   H1764     1.0  0.79729  0.59486  0.09931  1.0000
  H   H1765     1.0  0.76839  0.56517  0.10128  1.0000
  H   H1766     1.0  0.72270  0.61090  0.13251  1.0000
  H   H1767     1.0  0.75141  0.64081  0.13002  1.0000
  C   C2209     1.0  0.97380  0.63116  0.11321  1.0000
  C   C2210     1.0  0.95046  0.62978  0.10987  1.0000
  C   C2211     1.0  0.93727  0.61690  0.12424  1.0000
  C   C2212     1.0  0.94779  0.60567  0.14212  1.0000
  C   C2213     1.0  0.97114  0.60717  0.14555  1.0000
  H   H1768     1.0  0.94276  0.63828  0.09589  1.0000
  H   H1769     1.0  0.93779  0.59563  0.15333  1.0000
  H   H1770     1.0  0.98458  0.74871  0.17038  1.0000
  H   H1771     1.0  0.96522  0.68451  0.15188  1.0000
  H   H1772     1.0  0.91633  0.66405  0.12620  1.0000
  C   C2214     1.0  0.87283  0.68042  0.17266  1.0000
  C   C2215     1.0  0.71735  0.55445  0.98897  1.0000
  C   C2216     1.0  0.73107  0.83047  0.19521  1.0000
  C   C2217     1.0  0.75131  0.82032  0.18935  1.0000
  C   C2218     1.0  0.77114  0.82669  0.19995  1.0000
  C   C2219     1.0  0.77084  0.84319  0.21666  1.0000
  C   C2220     1.0  0.58916  0.51141  0.22484  1.0000
  C   C2221     1.0  0.88386  0.94765  0.23263  1.0000
  C   C2222     1.0  0.68258  0.63642  0.20476  1.0000
  H   H1773     1.0  0.49719  0.57034  0.22446  1.0000
  C   C2223     1.0  0.93656  0.92042  0.12800  1.0000
  H   H1774     1.0  0.88803  0.76133  0.19095  1.0000
  H   H1775     1.0  0.74469  0.61784  0.00400  1.0000
  H   H1776     1.0  0.89786  0.91915  0.21556  1.0000
  C   C2224     1.0  0.82966  0.82771  0.20805  1.0000
  H   H1777     1.0  0.95250  0.96815  0.16876  1.0000
  H   H1778     1.0  0.73023  0.50847  0.17895  1.0000
  C   C2225     1.0  0.90949  0.74795  0.21669  1.0000
  C   C2226     1.0  0.95328  0.91685  0.14392  1.0000
  H   H1779     1.0  0.85161  0.97905  0.10960  1.0000
  C   C2227     1.0  0.80665  0.87714  0.21665  1.0000
  C   C2228     1.0  0.70206  0.49761  0.02476  1.0000
  C   C2229     1.0  0.97955  0.64470  0.18970  1.0000
  C   C2230     1.0  0.82287  0.91578  0.19563  1.0000
  C   C2231     1.0  0.80004  0.91102  0.19520  1.0000
  C   C2232     1.0  0.79191  0.89179  0.20567  1.0000
  P   P74       1.0  0.69213  0.51552  0.04706  1.0000
  H   H1780     1.0  0.71572  0.82553  0.18696  1.0000
  H   H1781     1.0  0.75169  0.80754  0.17651  1.0000
  H   H1782     1.0  0.63735  0.56272  0.00692  1.0000
  C   C2233     1.0  0.63968  0.55034  0.01996  1.0000
  H   H1783     1.0  0.61125  0.52593  0.06269  1.0000
  C   C2234     1.0  0.94865  0.95485  0.15716  1.0000
  H   H1784     1.0  0.85525  0.80909  0.19092  1.0000
  H   H1785     1.0  0.82702  0.83886  0.19401  1.0000
  C   C2235     1.0  0.73407  0.67570  0.99017  1.0000
  C   C2236     1.0  0.74670  0.55699  0.04961  1.0000
  H   H1786     1.0  0.60573  0.49993  0.17131  1.0000
  C   C2237     1.0  0.70404  0.50781  0.09172  1.0000
  C   C2238     1.0  0.93190  0.95834  0.14119  1.0000
  H   H1787     1.0  0.97847  0.86512  0.11898  1.0000
  H   H1788     1.0  0.82911  0.93053  0.18727  1.0000
  H   H1789     1.0  0.78869  0.92218  0.18651  1.0000
  C   C2239     1.0  0.69090  0.49650  0.00412  1.0000
  H   H1790     1.0  0.86188  0.78312  0.22245  1.0000
  P   P75       1.0  0.79645  0.85206  0.23001  1.0000
  H   H1791     1.0  0.83896  0.68121  0.01564  1.0000
  C   C2240     1.0  0.70644  0.57465  0.99317  1.0000
  H   H1792     1.0  0.92993  0.79573  0.12937  1.0000
  H   H1793     1.0  0.68030  0.62313  0.19262  1.0000
  C   C2241     1.0  0.84565  0.81077  0.20619  1.0000
  C   C2242     1.0  0.92647  0.71204  0.20847  1.0000
  H   H1794     1.0  0.95777  0.63106  0.21487  1.0000
  C   C2243     1.0  0.60714  0.52505  0.23117  1.0000
  C   C2244     1.0  0.92080  0.68122  0.12277  1.0000
  C   C2245     1.0  0.93692  0.77766  0.15965  1.0000
  H   H1795     1.0  0.63762  0.52340  0.18315  1.0000
  H   H1796     1.0  0.91283  0.94374  0.11434  1.0000
  C   C2246     1.0  0.68809  0.67056  0.23621  1.0000
  H   H1797     1.0  0.93729  0.69854  0.21370  1.0000
  C   C2247     1.0  0.92421  0.68779  0.10058  1.0000
  C   C2248     1.0  0.92955  0.70991  0.09560  1.0000
  C   C2249     1.0  0.93212  0.72537  0.11288  1.0000
  H   H1798     1.0  0.92215  0.67585  0.08717  1.0000
  H   H1799     1.0  0.93110  0.71514  0.07831  1.0000
  C   C2250     1.0  0.90181  0.72946  0.18152  1.0000
  C   C2251     1.0  0.78813  0.61876  0.05199  1.0000
  C   C2252     1.0  0.82954  0.88223  0.21719  1.0000
  H   H1800     1.0  0.71267  0.52367  0.09139  1.0000
  C   C2253     1.0  0.75661  0.61832  0.01751  1.0000
  C   C2254     1.0  0.75526  0.63480  0.03420  1.0000
  C   C2255     1.0  0.77094  0.63459  0.05173  1.0000
  P   P76       1.0  0.73404  0.65636  0.03293  1.0000
  C   C2256     1.0  0.74640  0.68225  0.04232  1.0000
  C   C2257     1.0  0.72476  0.65931  0.00418  1.0000
  H   H1801     1.0  0.97872  0.73025  0.10325  1.0000
  S   S311      1.0  0.88962  0.87576  0.23035  1.0000
  C   C2258     1.0  0.58871  0.50249  0.20308  1.0000
  H   H1802     1.0  0.48945  0.96849  0.05445  1.0000
  H   H1803     1.0  0.67567  0.50571  0.00133  1.0000
  C   C2259     1.0  0.73389  0.69757  0.05502  1.0000
  C   C2260     1.0  0.74392  0.71702  0.06317  1.0000
  C   C2261     1.0  0.76647  0.72131  0.05872  1.0000
  C   C2262     1.0  0.77893  0.70630  0.04584  1.0000
  C   C2263     1.0  0.76891  0.68695  0.03753  1.0000
  C   C2264     1.0  0.71100  0.64955  0.05135  1.0000
  C   C2265     1.0  0.71503  0.63924  0.07209  1.0000
  C   C2266     1.0  0.69724  0.63441  0.08653  1.0000
  C   C2267     1.0  0.67537  0.63991  0.08049  1.0000
  C   C2268     1.0  0.67127  0.65068  0.06018  1.0000
  C   C2269     1.0  0.68898  0.65565  0.04573  1.0000
  H   H1804     1.0  0.80057  0.61911  0.06519  1.0000
  C   C2270     1.0  0.71443  0.57828  0.06149  1.0000
  C   C2271     1.0  0.89869  0.74754  0.19598  1.0000
  C   C2272     1.0  0.96284  0.78091  0.12866  1.0000
  H   H1805     1.0  0.77027  0.64687  0.06507  1.0000
  H   H1806     1.0  0.96103  0.90049  0.14509  1.0000
  H   H1807     1.0  0.68328  0.56095  0.06226  1.0000
  C   C2273     1.0  0.84936  0.79613  0.22398  1.0000
  H   H1808     1.0  0.70121  0.63185  0.00569  1.0000
  H   H1809     1.0  0.71652  0.69441  0.05899  1.0000
  H   H1810     1.0  0.73434  0.72859  0.07333  1.0000
  H   H1811     1.0  0.77439  0.73610  0.06549  1.0000
  H   H1812     1.0  0.79652  0.70942  0.04271  1.0000
  H   H1813     1.0  0.77887  0.67543  0.02778  1.0000
  H   H1814     1.0  0.73183  0.63481  0.07724  1.0000
  H   H1815     1.0  0.70035  0.62607  0.10231  1.0000
  H   H1816     1.0  0.66154  0.63562  0.09146  1.0000
  H   H1817     1.0  0.65423  0.65476  0.05544  1.0000
  H   H1818     1.0  0.68532  0.66420  0.03022  1.0000
  H   H1819     1.0  0.90647  0.98212  0.18256  1.0000
  C   C2274     1.0  0.95936  0.64299  0.20135  1.0000
  H   H1820     1.0  0.77419  0.88844  0.20495  1.0000
  C   C2275     1.0  0.88879  0.98321  0.21396  1.0000
  H   H1821     1.0  0.96618  0.78711  0.11203  1.0000
  C   C2276     1.0  0.98436  0.61989  0.13104  1.0000
  H   H1822     1.0  0.64809  0.50914  0.06932  1.0000
  C   C2277     1.0  0.70080  0.55978  0.05787  1.0000
  H   H1823     1.0  0.70024  0.65784  0.18190  1.0000
  H   H1824     1.0  0.81142  0.65062  0.01867  1.0000
  S   S312      1.0  0.64915  0.49080  0.14874  1.0000
  H   H1825     1.0  0.94957  0.93667  0.21528  1.0000
  H   H1826     1.0  0.69313  0.49369  0.16818  1.0000
  C   C2278     1.0  0.52849  0.55621  0.21344  1.0000
  C   C2279     1.0  0.85134  0.60644  0.99398  1.0000
  C   C2280     1.0  0.60613  0.50680  0.18810  1.0000
  H   H1827     1.0  0.57480  0.49236  0.19752  1.0000
  C   C2281     1.0  0.81724  0.83020  0.22785  1.0000
  H   H1828     1.0  0.88267  0.62395  0.99275  1.0000
  C   C2282     1.0  0.81421  0.65864  0.00264  1.0000
  H   H1829     1.0  0.63840  0.53980  0.22097  1.0000
  H   H1830     1.0  0.70730  0.59326  0.06859  1.0000
  C   C2283     1.0  0.90359  0.94941  0.19726  1.0000
  H   H1831     1.0  0.98377  0.64077  0.10161  1.0000
  H   H1832     1.0  0.94825  0.75811  0.18763  1.0000
  C   C2284     1.0  0.97297  0.75936  0.16143  1.0000
  H   H1833     1.0  0.97946  0.68910  0.09962  1.0000
  S   S313      1.0  0.64554  0.62684  0.98976  1.0000
  C   C2285     1.0  0.98156  0.65987  0.17208  1.0000
  H   H1834     1.0  0.97889  0.59841  0.15934  1.0000
  H   H1835     1.0  0.76463  0.55580  0.04722  1.0000
  C   C2286     1.0  0.70340  0.49594  0.11185  1.0000
  C   C2287     1.0  0.92340  0.73021  0.22292  1.0000
  H   H1836     1.0  0.84122  0.87126  0.22560  1.0000
  C   C2288     1.0  0.50995  0.55785  0.22761  1.0000
  C   C2289     1.0  0.73065  0.84710  0.21161  1.0000
  H   H1837     1.0  0.53014  0.56746  0.19934  1.0000
  C   C2290     1.0  0.96917  0.91069  0.19929  1.0000
  C   C2291     1.0  0.62176  0.54462  0.03380  1.0000
  C   C2292     1.0  0.54522  0.54044  0.21774  1.0000
  C   C2293     1.0  0.73736  0.57691  0.05745  1.0000
  C   C2294     1.0  0.62495  0.52956  0.05137  1.0000
  H   H1838     1.0  0.74800  0.59098  0.06137  1.0000
  C   C2295     1.0  0.95974  0.93417  0.15834  1.0000
  H   H1839     1.0  0.98363  0.88046  0.18548  1.0000
  H   H1840     1.0  0.92084  0.78150  0.16707  1.0000
  H   H1841     1.0  0.71034  0.58417  0.00811  1.0000
  H   H1842     1.0  0.83699  0.94800  0.23245  1.0000
  H   H1843     1.0  0.93181  0.73087  0.14812  1.0000
  C   C2296     1.0  0.94207  0.78569  0.13834  1.0000
  C   C2297     1.0  0.96334  0.67316  0.16584  1.0000
  C   C2298     1.0  0.92932  0.71872  0.13511  1.0000
  H   H1844     1.0  0.56820  0.58746  0.22729  1.0000
  H   H1845     1.0  0.92313  0.97418  0.14035  1.0000
  C   C2299     1.0  0.72653  0.49972  0.21379  1.0000
  C   C2300     1.0  0.95236  0.76450  0.17121  1.0000
  C   C2301     1.0  0.92306  0.69673  0.14022  1.0000
  H   H1846     1.0  0.85539  0.90497  0.20689  1.0000
  H   H1847     1.0  0.90718  0.76207  0.22781  1.0000
  H   H1848     1.0  0.83724  0.67477  0.17388  1.0000
  C   C2302     1.0  0.97303  0.88759  0.19830  1.0000
  C   C2303     1.0  0.66415  0.52567  0.04121  1.0000
  P   P77       1.0  0.91900  0.68790  0.16886  1.0000
  H   H1849     1.0  0.87083  0.69819  0.17473  1.0000
  H   H1850     1.0  0.67468  0.54633  0.01345  1.0000
  C   C2304     1.0  0.75045  0.85353  0.22222  1.0000
  C   C2305     1.0  0.85361  0.66715  0.17221  1.0000
  C   C2306     1.0  0.89410  0.67074  0.16982  1.0000
  C   C2307     1.0  0.94290  0.67136  0.17730  1.0000
  C   C2308     1.0  0.64601  0.52007  0.05507  1.0000
  C   C2309     1.0  0.95376  0.91907  0.21497  1.0000
  C   C2310     1.0  0.69289  0.49963  0.07273  1.0000
  C   C2311     1.0  0.87976  0.97073  0.23171  1.0000
  H   H1851     1.0  0.78660  0.81867  0.19499  1.0000
  C   C2312     1.0  0.89564  0.64766  0.16593  1.0000
  C   C2313     1.0  0.71252  0.49037  0.23002  1.0000
  C   C2314     1.0  0.91564  0.71149  0.18761  1.0000
  H   H1852     1.0  0.77526  0.59018  0.00464  1.0000
  C   C2315     1.0  0.82987  0.67579  0.00090  1.0000
  C   C2316     1.0  0.89547  0.93705  0.21529  1.0000
  C   C2317     1.0  0.85539  0.64417  0.16868  1.0000
  H   H1853     1.0  0.72994  0.54841  0.00049  1.0000
  H   H1854     1.0  0.66577  0.61858  0.23076  1.0000
  H   H1855     1.0  0.91186  0.94091  0.18352  1.0000
  H   H1856     1.0  0.80325  0.59076  0.03522  1.0000
  C   C2318     1.0  0.87640  0.63445  0.16553  1.0000
  H   H1857     1.0  0.93586  0.74262  0.10900  1.0000
  C   C2319     1.0  0.77383  0.60247  0.01787  1.0000
  H   H1858     1.0  0.84044  0.63402  0.16753  1.0000
  H   H1859     1.0  0.71498  0.85509  0.21607  1.0000
  C   C2320     1.0  0.92601  0.94118  0.12652  1.0000
  H   H1860     1.0  0.91161  0.63983  0.16249  1.0000
  H   H1861     1.0  0.55967  0.53996  0.20683  1.0000
  C   C2321     1.0  0.62460  0.52915  0.21617  1.0000
  H   H1862     1.0  0.87779  0.61678  0.16180  1.0000
  H   H1863     1.0  0.68064  0.68907  0.99591  1.0000
  C   C2322     1.0  0.78960  0.60273  0.03509  1.0000
  C   C2323     1.0  0.54344  0.52608  0.23626  1.0000
  H   H1864     1.0  0.74989  0.86663  0.23472  1.0000
  C   C2324     1.0  0.96245  0.87322  0.21338  1.0000
  H   H1865     1.0  0.89352  0.72954  0.16545  1.0000
  C   C2325     1.0  0.94111  0.65632  0.19526  1.0000
  H   H1866     1.0  0.92550  0.65467  0.20431  1.0000
  C   C2326     1.0  0.69373  0.65597  0.19874  1.0000
  C   C2327     1.0  0.62410  0.52006  0.19470  1.0000
  H   H1867     1.0  0.71134  0.50280  0.12662  1.0000
  H   H1868     1.0  0.63975  0.68268  0.99745  1.0000
  P   P78       1.0  0.98139  0.92910  0.17872  1.0000
  C   C2328     1.0  0.58565  0.58748  0.23199  1.0000
  C   C2329     1.0  0.69864  0.49258  0.18544  1.0000
  C   C2330     1.0  0.70857  0.64476  0.99537  1.0000
  C   C2331     1.0  0.71955  0.50091  0.19151  1.0000
  H   H1869     1.0  0.96509  0.85535  0.21206  1.0000
  H   H1870     1.0  0.74682  0.68691  0.99630  1.0000
  H   H1871     1.0  0.82138  0.58700  0.98963  1.0000
  H   H1872     1.0  0.50138  0.95995  0.22980  1.0000
  H   H1873     1.0  0.70517  0.68818  0.20977  1.0000
  H   H1874     1.0  0.63065  0.63924  0.23697  1.0000
  C   C2332     1.0  0.69648  0.67303  0.21446  1.0000
  C   C2333     1.0  0.67427  0.63389  0.22647  1.0000
  C   C2334     1.0  0.94333  0.90467  0.23015  1.0000
  C   C2335     1.0  0.94768  0.88176  0.22936  1.0000
  Fe  Fe157     1.0  0.58959  0.57914  0.35599  1.0000
  S   S314      1.0  0.55654  0.57910  0.33788  1.0000
  S   S315      1.0  0.60116  0.54721  0.37406  1.0000
  Fe  Fe158     1.0  0.59511  0.63023  0.34909  1.0000
  S   S316      1.0  0.56283  0.63291  0.32995  1.0000
  S   S317      1.0  0.61755  0.66103  0.35313  1.0000
  Fe  Fe159     1.0  0.54817  0.61069  0.35666  1.0000
  S   S318      1.0  0.51799  0.61821  0.37938  1.0000
  Fe  Fe160     1.0  0.57416  0.60116  0.31264  1.0000
  S   S319      1.0  0.56992  0.59514  0.27487  1.0000
  S   S320      1.0  0.58027  0.60947  0.37654  1.0000
  S   S321      1.0  0.60742  0.59981  0.33002  1.0000
  Fe  Fe161     1.0  0.79466  0.88512  0.38393  1.0000
  S   S322      1.0  0.82106  0.85842  0.38622  1.0000
  S   S323      1.0  0.75896  0.88104  0.39764  1.0000
  Fe  Fe162     1.0  0.83003  0.92153  0.37097  1.0000
  S   S324      1.0  0.85850  0.89691  0.37299  1.0000
  S   S325      1.0  0.83150  0.95764  0.35788  1.0000
  Fe  Fe163     1.0  0.83535  0.87367  0.35439  1.0000
  S   S326      1.0  0.84499  0.85096  0.32487  1.0000
  Fe  Fe164     1.0  0.84174  0.88384  0.40453  1.0000
  S   S327      1.0  0.85777  0.88058  0.43936  1.0000
  S   S328      1.0  0.80741  0.89875  0.35115  1.0000
  S   S329      1.0  0.81486  0.91017  0.40349  1.0000
  Fe  Fe165     1.0  0.64126  0.81815  0.39892  1.0000
  S   S330      1.0  0.64496  0.79486  0.42811  1.0000
  S   S331      1.0  0.67165  0.82310  0.37611  1.0000
  Fe  Fe166     1.0  0.59142  0.82707  0.40991  1.0000
  S   S332      1.0  0.59291  0.80513  0.44046  1.0000
  S   S333      1.0  0.55953  0.84746  0.40365  1.0000
  Fe  Fe167     1.0  0.62631  0.82102  0.44783  1.0000
  C   C2336     1.0  0.74145  0.82187  0.45852  1.0000
  Fe  Fe168     1.0  0.61147  0.78106  0.41769  1.0000
  S   S334      1.0  0.59931  0.74472  0.41749  1.0000
  S   S335      1.0  0.62366  0.84471  0.41871  1.0000
  S   S336      1.0  0.60877  0.80262  0.38705  1.0000
  C   C2337     1.0  0.51353  0.81525  0.36426  1.0000
  C   C2338     1.0  0.53322  0.82013  0.37636  1.0000
  C   C2339     1.0  0.53502  0.84020  0.38824  1.0000
  C   C2340     1.0  0.51685  0.85520  0.38785  1.0000
  C   C2341     1.0  0.70477  0.67821  0.31799  1.0000
  H   H1875     1.0  0.54703  0.80845  0.37637  1.0000
  H   H1876     1.0  0.51804  0.87079  0.39688  1.0000
  H   H1877     1.0  0.72902  0.86751  0.48215  1.0000
  C   C2342     1.0  0.57672  0.53353  0.27941  1.0000
  C   C2343     1.0  0.57881  0.52118  0.31791  1.0000
  H   H1878     1.0  0.51245  0.79976  0.35504  1.0000
  H   H1879     1.0  0.93126  0.91107  0.24211  1.0000
  P   P79       1.0  0.75378  0.90961  0.47545  1.0000
  C   C2344     1.0  0.73525  0.86412  0.39160  1.0000
  C   C2345     1.0  0.73428  0.85008  0.37290  1.0000
  C   C2346     1.0  0.71474  0.83764  0.36847  1.0000
  C   C2347     1.0  0.69601  0.83886  0.38276  1.0000
  C   C2348     1.0  0.69712  0.85262  0.40166  1.0000
  C   C2349     1.0  0.71658  0.86522  0.40598  1.0000
  H   H1880     1.0  0.74845  0.84909  0.36167  1.0000
  H   H1881     1.0  0.71405  0.82713  0.35378  1.0000
  H   H1882     1.0  0.68290  0.85377  0.41281  1.0000
  H   H1883     1.0  0.71711  0.87598  0.42051  1.0000
  C   C2350     1.0  0.85653  0.85780  0.45849  1.0000
  C   C2351     1.0  0.68396  0.57714  0.29776  1.0000
  C   C2352     1.0  0.85532  0.83559  0.45133  1.0000
  C   C2353     1.0  0.63068  0.58796  0.24373  1.0000
  H   H1884     1.0  0.85424  0.83195  0.43362  1.0000
  C   C2354     1.0  0.77144  0.88504  0.47495  1.0000
  H   H1885     1.0  0.71835  0.67377  0.32914  1.0000
  C   C2355     1.0  0.59147  0.59060  0.25463  1.0000
  C   C2356     1.0  0.61412  0.59034  0.26044  1.0000
  C   C2357     1.0  0.78020  0.95542  0.41926  1.0000
  H   H1886     1.0  0.61889  0.59257  0.27774  1.0000
  C   C2358     1.0  0.66581  0.58893  0.30659  1.0000
  C   C2359     1.0  0.61805  0.52338  0.36779  1.0000
  H   H1887     1.0  0.63117  0.66120  0.45413  1.0000
  C   C2360     1.0  0.63130  0.52187  0.34849  1.0000
  C   C2361     1.0  0.57195  0.51174  0.27235  1.0000
  H   H1888     1.0  0.63143  0.53554  0.33669  1.0000
  C   C2362     1.0  0.61203  0.68429  0.37094  1.0000
  C   C2363     1.0  0.62505  0.70374  0.36877  1.0000
  C   C2364     1.0  0.62110  0.72258  0.38245  1.0000
  C   C2365     1.0  0.60442  0.72199  0.39890  1.0000
  C   C2366     1.0  0.59159  0.70245  0.40121  1.0000
  C   C2367     1.0  0.59524  0.68378  0.38724  1.0000
  H   H1889     1.0  0.63809  0.70433  0.35623  1.0000
  H   H1890     1.0  0.63094  0.73753  0.38028  1.0000
  H   H1891     1.0  0.57870  0.70174  0.41390  1.0000
  H   H1892     1.0  0.58523  0.66890  0.38924  1.0000
  C   C2368     1.0  0.87668  0.86842  0.25626  1.0000
  C   C2369     1.0  0.87333  0.88515  0.27251  1.0000
  C   C2370     1.0  0.86351  0.88021  0.29344  1.0000
  C   C2371     1.0  0.85699  0.85836  0.29850  1.0000
  C   C2372     1.0  0.86010  0.84168  0.28213  1.0000
  C   C2373     1.0  0.86980  0.84667  0.26114  1.0000
  H   H1893     1.0  0.87852  0.90206  0.26898  1.0000
  H   H1894     1.0  0.86122  0.89326  0.30577  1.0000
  H   H1895     1.0  0.85510  0.82475  0.28582  1.0000
  H   H1896     1.0  0.68811  0.56075  0.30428  1.0000
  H   H1897     1.0  0.80887  0.92202  0.24756  1.0000
  H   H1898     1.0  0.61879  0.50519  0.29829  1.0000
  H   H1899     1.0  0.67585  0.92292  0.45071  1.0000
  C   C2374     1.0  0.64651  0.77825  0.48764  1.0000
  H   H1900     1.0  0.53330  0.67757  0.26070  1.0000
  C   C2375     1.0  0.63619  0.65055  0.27106  1.0000
  H   H1901     1.0  0.57635  0.91680  0.44189  1.0000
  H   H1902     1.0  0.49006  0.71838  0.29822  1.0000
  C   C2376     1.0  0.48836  0.62169  0.37782  1.0000
  H   H1903     1.0  0.72118  0.70980  0.44365  1.0000
  C   C2377     1.0  0.72502  0.90160  0.47059  1.0000
  H   H1904     1.0  0.94417  0.84141  0.46992  1.0000
  C   C2378     1.0  0.57355  0.49948  0.31118  1.0000
  H   H1905     1.0  0.90180  0.97867  0.32596  1.0000
  H   H1906     1.0  0.65595  0.58175  0.32001  1.0000
  C   C2379     1.0  0.87037  0.97600  0.37600  1.0000
  C   C2380     1.0  0.68750  0.91100  0.45781  1.0000
  H   H1907     1.0  0.75148  0.69907  0.46967  1.0000
  C   C2381     1.0  0.69586  0.69980  0.31847  1.0000
  H   H1908     1.0  0.81232  0.95471  0.31154  1.0000
  H   H1909     1.0  0.87828  0.96411  0.29549  1.0000
  C   C2382     1.0  0.80061  0.84825  0.47507  1.0000
  C   C2383     1.0  0.63172  0.50850  0.28609  1.0000
  H   H1910     1.0  0.63502  0.66083  0.30592  1.0000
  C   C2384     1.0  0.62310  0.64504  0.25235  1.0000
  H   H1911     1.0  0.87770  0.93772  0.24646  1.0000
  C   C2385     1.0  0.52910  0.67623  0.39667  1.0000
  C   C2386     1.0  0.65916  0.49484  0.25936  1.0000
  P   P80       1.0  0.66626  0.64716  0.27057  1.0000
  C   C2387     1.0  0.78529  0.86396  0.30543  1.0000
  H   H1912     1.0  0.75608  0.82594  0.44857  1.0000
  H   H1913     1.0  0.68976  0.85716  0.47507  1.0000
  C   C2388     1.0  0.70341  0.81303  0.48426  1.0000
  H   H1914     1.0  0.65590  0.69431  0.27845  1.0000
  H   H1915     1.0  0.57126  0.65260  0.27467  1.0000
  H   H1916     1.0  0.88511  0.59349  0.46820  1.0000
  H   H1917     1.0  0.60812  0.50640  0.39799  1.0000
  H   H1918     1.0  0.79659  0.92513  0.28720  1.0000
  C   C2389     1.0  0.83372  0.96804  0.28579  1.0000
  C   C2390     1.0  0.84157  0.96574  0.26372  1.0000
  H   H1919     1.0  0.70308  0.64559  0.30332  1.0000
  C   C2391     1.0  0.66609  0.51693  0.25556  1.0000
  H   H1920     1.0  0.70252  0.71210  0.32998  1.0000
  C   C2392     1.0  0.66958  0.68965  0.28939  1.0000
  C   C2393     1.0  0.67827  0.66783  0.28899  1.0000
  C   C2394     1.0  0.63885  0.53039  0.28244  1.0000
  H   H1921     1.0  0.68009  0.76942  0.47835  1.0000
  C   C2395     1.0  0.66263  0.76490  0.47714  1.0000
  H   H1922     1.0  0.57577  0.76789  0.34741  1.0000
  H   H1923     1.0  0.53777  0.75279  0.34719  1.0000
  H   H1924     1.0  0.52336  0.51733  0.26511  1.0000
  H   H1925     1.0  0.71089  0.57741  0.27378  1.0000
  H   H1926     1.0  0.71908  0.82235  0.43026  1.0000
  H   H1927     1.0  0.75891  0.83980  0.30287  1.0000
  C   C2396     1.0  0.67831  0.70553  0.30414  1.0000
  C   C2397     1.0  0.88748  0.59869  0.48541  1.0000
  H   H1928     1.0  0.92533  0.80785  0.48532  1.0000
  H   H1929     1.0  0.73273  0.78091  0.41675  1.0000
  C   C2398     1.0  0.50237  0.74167  0.40957  1.0000
  H   H1930     1.0  0.81901  0.88064  0.26294  1.0000
  H   H1931     1.0  0.66096  0.55162  0.26365  1.0000
  H   H1932     1.0  0.60172  0.70465  0.32538  1.0000
  H   H1933     1.0  0.81198  0.81703  0.26131  1.0000
  C   C2399     1.0  0.71767  0.87989  0.47547  1.0000
  C   C2400     1.0  0.49438  0.74472  0.34861  1.0000
  H   H1934     1.0  0.71802  0.48998  0.24729  1.0000
  H   H1935     1.0  0.65520  0.50194  0.32997  1.0000
  C   C2401     1.0  0.93480  0.84256  0.48540  1.0000
  C   C2402     1.0  0.53762  0.76153  0.41041  1.0000
  C   C2403     1.0  0.52563  0.74189  0.40681  1.0000
  C   C2404     1.0  0.62548  0.65716  0.29096  1.0000
  H   H1936     1.0  0.55559  0.76177  0.40804  1.0000
  H   H1937     1.0  0.53448  0.72687  0.40193  1.0000
  H   H1938     1.0  0.59420  0.66326  0.30757  1.0000
  C   C2405     1.0  0.58932  0.65267  0.27346  1.0000
  C   C2406     1.0  0.80530  0.87217  0.27114  1.0000
  C   C2407     1.0  0.68276  0.76705  0.39366  1.0000
  H   H1939     1.0  0.75752  0.93753  0.39777  1.0000
  C   C2408     1.0  0.77164  0.84901  0.29388  1.0000
  C   C2409     1.0  0.52477  0.52786  0.25043  1.0000
  C   C2410     1.0  0.81589  0.93479  0.25827  1.0000
  H   H1940     1.0  0.67952  0.70799  0.40577  1.0000
  H   H1941     1.0  0.64809  0.58819  0.24850  1.0000
  C   C2411     1.0  0.52649  0.78082  0.41738  1.0000
  H   H1942     1.0  0.87181  0.96089  0.38581  1.0000
  H   H1943     1.0  0.70935  0.78893  0.38345  1.0000
  C   C2412     1.0  0.78002  0.94428  0.45828  1.0000
  C   C2413     1.0  0.61726  0.75489  0.47262  1.0000
  H   H1944     1.0  0.66071  0.67498  0.39018  1.0000
  C   C2414     1.0  0.65858  0.67921  0.40771  1.0000
  H   H1945     1.0  0.87226  0.83364  0.24886  1.0000
  C   C2415     1.0  0.80208  0.87551  0.29406  1.0000
  H   H1946     1.0  0.78322  0.86613  0.32333  1.0000
  C   C2416     1.0  0.63333  0.74138  0.46230  1.0000
  H   H1947     1.0  0.67224  0.77131  0.37949  1.0000
  C   C2417     1.0  0.54766  0.71965  0.33602  1.0000
  C   C2418     1.0  0.78299  0.87894  0.45540  1.0000
  H   H1948     1.0  0.67134  0.72225  0.30458  1.0000
  H   H1949     1.0  0.88565  0.95850  0.46894  1.0000
  H   H1950     1.0  0.78732  0.96516  0.40571  1.0000
  C   C2419     1.0  0.81774  0.95327  0.29424  1.0000
  C   C2420     1.0  0.76337  0.93994  0.41478  1.0000
  H   H1951     1.0  0.80187  0.96931  0.44433  1.0000
  C   C2421     1.0  0.78846  0.95765  0.44103  1.0000
  C   C2422     1.0  0.67495  0.75242  0.41012  1.0000
  C   C2423     1.0  0.70966  0.91720  0.46198  1.0000
  C   C2424     1.0  0.64152  0.49084  0.27430  1.0000
  H   H1952     1.0  0.85861  0.87925  0.48724  1.0000
  C   C2425     1.0  0.55134  0.74200  0.34218  1.0000
  C   C2426     1.0  0.51879  0.68614  0.31532  1.0000
  C   C2427     1.0  0.65617  0.74606  0.46476  1.0000
  C   C2428     1.0  0.76314  0.92861  0.45388  1.0000
  C   C2429     1.0  0.58061  0.53812  0.30197  1.0000
  C   C2430     1.0  0.85262  0.97840  0.36095  1.0000
  H   H1953     1.0  0.91784  0.61668  0.47848  1.0000
  H   H1954     1.0  0.71488  0.93408  0.45822  1.0000
  C   C2431     1.0  0.89189  0.94583  0.48031  1.0000
  C   C2432     1.0  0.51502  0.69495  0.36347  1.0000
  C   C2433     1.0  0.65583  0.53461  0.26696  1.0000
  C   C2434     1.0  0.57300  0.75076  0.34223  1.0000
  H   H1955     1.0  0.63103  0.54410  0.29140  1.0000
  H   H1956     1.0  0.84014  0.78732  0.25770  1.0000
  C   C2435     1.0  0.50809  0.54367  0.24609  1.0000
  H   H1957     1.0  0.65830  0.74548  0.40857  1.0000
  C   C2436     1.0  0.48921  0.67994  0.39101  1.0000
  C   C2437     1.0  0.66898  0.69813  0.41661  1.0000
  C   C2438     1.0  0.52017  0.65235  0.28271  1.0000
  H   H1958     1.0  0.63623  0.65181  0.41397  1.0000
  H   H1959     1.0  0.74247  0.91411  0.42792  1.0000
  C   C2439     1.0  0.69604  0.66226  0.30331  1.0000
  C   C2440     1.0  0.56606  0.70626  0.33005  1.0000
  C   C2441     1.0  0.70162  0.81543  0.46103  1.0000
  H   H1960     1.0  0.78114  0.88841  0.44010  1.0000
  H   H1961     1.0  0.78715  0.94583  0.47482  1.0000
  C   C2442     1.0  0.68813  0.74753  0.42891  1.0000
  H   H1962     1.0  0.69051  0.68399  0.24804  1.0000
  P   P81       1.0  0.51990  0.70765  0.33656  1.0000
  C   C2443     1.0  0.70894  0.75812  0.43138  1.0000
  H   H1963     1.0  0.64648  0.61904  0.30555  1.0000
  C   C2444     1.0  0.69877  0.72098  0.46983  1.0000
  C   C2445     1.0  0.51161  0.66441  0.32050  1.0000
  H   H1964     1.0  0.56388  0.68877  0.32606  1.0000
  C   C2446     1.0  0.77483  0.84556  0.27095  1.0000
  H   H1965     1.0  0.55009  0.68929  0.37082  1.0000
  C   C2447     1.0  0.75486  0.92662  0.43199  1.0000
  C   C2448     1.0  0.70365  0.77713  0.39598  1.0000
  C   C2449     1.0  0.85808  0.86215  0.48159  1.0000
  C   C2450     1.0  0.59110  0.73740  0.33591  1.0000
  C   C2451     1.0  0.49718  0.85034  0.37571  1.0000
  H   H1966     1.0  0.58322  0.87618  0.43815  1.0000
  C   C2452     1.0  0.52654  0.69077  0.29360  1.0000
  C   C2453     1.0  0.52713  0.67395  0.27735  1.0000
  C   C2454     1.0  0.62384  0.77325  0.48537  1.0000
  C   C2455     1.0  0.66042  0.61009  0.29826  1.0000
  H   H1967     1.0  0.53587  0.79600  0.42045  1.0000
  H   H1968     1.0  0.62768  0.72781  0.45183  1.0000
  H   H1969     1.0  0.59965  0.75149  0.47004  1.0000
  C   C2456     1.0  0.83199  0.94945  0.24982  1.0000
  H   H1970     1.0  0.58131  0.52493  0.33549  1.0000
  C   C2457     1.0  0.66535  0.70423  0.43906  1.0000
  H   H1971     1.0  0.54302  0.66977  0.40632  1.0000
  C   C2458     1.0  0.53303  0.68724  0.37643  1.0000
  C   C2459     1.0  0.50330  0.78060  0.42039  1.0000
  H   H1972     1.0  0.71898  0.75562  0.44620  1.0000
  H   H1973     1.0  0.53241  0.70734  0.28936  1.0000
  C   C2460     1.0  0.65230  0.69031  0.45273  1.0000
  C   C2461     1.0  0.58761  0.71520  0.32973  1.0000
  C   C2462     1.0  0.69145  0.60771  0.27228  1.0000
  H   H1974     1.0  0.85557  0.80092  0.46131  1.0000
  C   C2463     1.0  0.64479  0.66606  0.42116  1.0000
  C   C2464     1.0  0.85620  0.81801  0.46708  1.0000
  C   C2465     1.0  0.71674  0.77266  0.41481  1.0000
  H   H1975     1.0  0.96401  0.69867  0.48694  1.0000
  C   C2466     1.0  0.67302  0.61956  0.28086  1.0000
  H   H1976     1.0  0.49341  0.72627  0.40681  1.0000
  P   P82       1.0  0.67716  0.72957  0.45055  1.0000
  C   C2467     1.0  0.89981  0.90700  0.48836  1.0000
  H   H1977     1.0  0.60789  0.74414  0.33630  1.0000
  H   H1978     1.0  0.68534  0.81470  0.45306  1.0000
  C   C2468     1.0  0.72060  0.81995  0.44819  1.0000
  C   C2469     1.0  0.83706  0.79844  0.24374  1.0000
  H   H1979     1.0  0.58466  0.55498  0.30707  1.0000
  C   C2470     1.0  0.59352  0.87214  0.47247  1.0000
  C   C2471     1.0  0.49306  0.69115  0.37085  1.0000
  C   C2472     1.0  0.79151  0.85736  0.25935  1.0000
  H   H1980     1.0  0.81205  0.83421  0.47515  1.0000
  C   C2473     1.0  0.61825  0.50542  0.38300  1.0000
  H   H1981     1.0  0.59670  0.85439  0.47075  1.0000
  S   S337      1.0  0.64437  0.83693  0.47778  1.0000
  H   H1982     1.0  0.57711  0.54714  0.26748  1.0000
  C   C2474     1.0  0.60220  0.65843  0.29204  1.0000
  C   C2475     1.0  0.82105  0.81541  0.24571  1.0000
  C   C2476     1.0  0.80892  0.93657  0.28055  1.0000
  C   C2477     1.0  0.69677  0.58652  0.28060  1.0000
  C   C2478     1.0  0.49540  0.83033  0.36377  1.0000
  H   H1983     1.0  0.50729  0.63079  0.30849  1.0000
  C   C2479     1.0  0.64187  0.67145  0.44373  1.0000
  C   C2480     1.0  0.89191  0.92345  0.47377  1.0000
  H   H1984     1.0  0.80662  0.85625  0.44040  1.0000
  H   H1985     1.0  0.81325  0.88642  0.30320  1.0000
  C   C2481     1.0  0.79746  0.86058  0.45548  1.0000
  H   H1986     1.0  0.50597  0.66005  0.33717  1.0000
  C   C2482     1.0  0.64476  0.50278  0.34474  1.0000
  H   H1987     1.0  0.76459  0.83334  0.26247  1.0000
  H   H1988     1.0  0.70181  0.61481  0.25924  1.0000
  H   H1989     1.0  0.52114  0.63914  0.27033  1.0000
  C   C2483     1.0  0.58219  0.90737  0.45623  1.0000
  C   C2484     1.0  0.51233  0.64763  0.30422  1.0000
  H   H1990     1.0  0.88544  0.91872  0.45745  1.0000
  C   C2485     1.0  0.57011  0.49473  0.28849  1.0000
  C   C2486     1.0  0.58605  0.88445  0.45408  1.0000
  C   C2487     1.0  0.67689  0.65091  0.24241  1.0000
  H   H1991     1.0  0.67922  0.52072  0.24371  1.0000
  H   H1992     1.0  0.58252  0.93573  0.47805  1.0000
  H   H1993     1.0  0.66332  0.88427  0.45906  1.0000
  H   H1994     1.0  0.49531  0.79565  0.42643  1.0000
  C   C2488     1.0  0.69545  0.87387  0.47145  1.0000
  C   C2489     1.0  0.59977  0.64613  0.25359  1.0000
  H   H1995     1.0  0.84004  0.98107  0.29663  1.0000
  C   C2490     1.0  0.49884  0.72891  0.33183  1.0000
  C   C2491     1.0  0.58573  0.91802  0.47680  1.0000
  H   H1996     1.0  0.50423  0.66330  0.41923  1.0000
  H   H1997     1.0  0.89889  0.88978  0.48299  1.0000
  C   C2492     1.0  0.68042  0.88929  0.46246  1.0000
  C   C2493     1.0  0.71880  0.71194  0.46152  1.0000
  H   H1998     1.0  0.64962  0.69443  0.47018  1.0000
  H   H1999     1.0  0.50299  0.74390  0.36444  1.0000
  C   C2494     1.0  0.73597  0.70584  0.47621  1.0000
  C   C2495     1.0  0.50722  0.67261  0.40397  1.0000
  C   C2496     1.0  0.74335  0.81896  0.48167  1.0000
  C   C2497     1.0  0.49090  0.76119  0.41583  1.0000
  P   P83       1.0  0.56557  0.50675  0.24318  1.0000
  H   H2000     1.0  0.60774  0.53285  0.24739  1.0000
  P   P84       1.0  0.86290  0.98421  0.25294  1.0000
  C   C2498     1.0  0.88609  0.98028  0.29351  1.0000
  H   H2001     1.0  0.49392  0.54524  0.25731  1.0000
  H   H2002     1.0  0.93895  0.87056  0.24063  1.0000
  H   H2003     1.0  0.58975  0.64101  0.23938  1.0000
  H   H2004     1.0  0.93180  0.73054  0.23897  1.0000
  Fe  Fe169     1.0  0.65539  0.92652  0.61760  1.0000
  S   S338      1.0  0.62966  0.90127  0.62816  1.0000
  S   S339      1.0  0.64839  0.96304  0.60771  1.0000
  Fe  Fe170     1.0  0.69434  0.89171  0.62064  1.0000
  S   S340      1.0  0.67118  0.86453  0.63232  1.0000
  S   S341      1.0  0.73249  0.89008  0.61528  1.0000
  Fe  Fe171     1.0  0.64808  0.87731  0.60516  1.0000
  S   S342      1.0  0.62906  0.85313  0.58246  1.0000
  Fe  Fe172     1.0  0.65465  0.89058  0.65434  1.0000
  S   S343      1.0  0.64952  0.88893  0.69246  1.0000
  S   S344      1.0  0.67192  0.90329  0.59258  1.0000
  S   S345      1.0  0.67971  0.91706  0.64456  1.0000
  Fe  Fe173     1.0  0.83858  0.80556  0.59163  1.0000
  S   S346      1.0  0.84436  0.77647  0.56810  1.0000
  S   S347      1.0  0.80202  0.80890  0.60347  1.0000
  Fe  Fe174     1.0  0.88810  0.81916  0.58912  1.0000
  S   S348      1.0  0.89619  0.79186  0.56476  1.0000
  S   S349      1.0  0.91529  0.84443  0.59840  1.0000
  Fe  Fe175     1.0  0.86400  0.80098  0.54740  1.0000
  S   S350      1.0  0.85930  0.79959  0.50931  1.0000
  Fe  Fe176     1.0  0.87595  0.76960  0.58750  1.0000
  S   S351      1.0  0.89492  0.73683  0.59455  1.0000
  S   S352      1.0  0.85710  0.83014  0.57000  1.0000
  S   S353      1.0  0.86903  0.79685  0.61273  1.0000
  Fe  Fe177     1.0  0.91071  0.59113  0.69412  1.0000
  S   S354      1.0  0.88276  0.58568  0.66961  1.0000
  H   H2005     1.0  0.76159  0.95018  0.56148  1.0000
  Fe  Fe178     1.0  0.94431  0.60526  0.65637  1.0000
  S   S355      1.0  0.91821  0.60022  0.62965  1.0000
  C   C2499     1.0  0.64201  0.82341  0.72755  1.0000
  Fe  Fe179     1.0  0.89467  0.61775  0.65329  1.0000
  S   S356      1.0  0.86981  0.64525  0.64375  1.0000
  Fe  Fe180     1.0  0.90870  0.56867  0.64826  1.0000
  S   S357      1.0  0.90590  0.53430  0.63157  1.0000
  S   S358      1.0  0.92087  0.62421  0.67933  1.0000
  S   S359      1.0  0.93649  0.57269  0.67347  1.0000
  C   C2500     1.0  0.88377  0.51456  0.63387  1.0000
  C   C2501     1.0  0.86244  0.52062  0.64134  1.0000
  H   H2006     1.0  0.68826  0.81094  0.49393  1.0000
  H   H2007     1.0  0.85932  0.53756  0.64667  1.0000
  H   H2008     1.0  0.98642  0.61394  0.69886  1.0000
  C   C2502     1.0  0.88744  0.71182  0.60889  1.0000
  C   C2503     1.0  0.86578  0.70786  0.61683  1.0000
  C   C2504     1.0  0.86062  0.68742  0.62743  1.0000
  C   C2505     1.0  0.87705  0.67082  0.63045  1.0000
  C   C2506     1.0  0.89868  0.67482  0.62262  1.0000
  C   C2507     1.0  0.90378  0.69509  0.61179  1.0000
  H   H2009     1.0  0.85298  0.72046  0.61463  1.0000
  H   H2010     1.0  0.84378  0.68449  0.63336  1.0000
  H   H2011     1.0  0.91150  0.66231  0.62504  1.0000
  H   H2012     1.0  0.92055  0.69780  0.60568  1.0000
  C   C2508     1.0  0.95651  0.62758  0.59214  1.0000
  C   C2509     1.0  0.56457  0.89024  0.53846  1.0000
  C   C2510     1.0  0.89630  0.68978  0.55594  1.0000
  C   C2511     1.0  0.97608  0.85531  0.62730  1.0000
  C   C2512     1.0  0.96798  0.68500  0.63805  1.0000
  C   C2513     1.0  0.98205  0.80429  0.58116  1.0000
  H   H2013     1.0  0.79460  0.93229  0.54373  1.0000
  C   C2514     1.0  0.75144  0.86717  0.61201  1.0000
  C   C2515     1.0  0.77439  0.87159  0.60899  1.0000
  C   C2516     1.0  0.79004  0.85410  0.60592  1.0000
  C   C2517     1.0  0.78300  0.83183  0.60625  1.0000
  C   C2518     1.0  0.76008  0.82741  0.60950  1.0000
  C   C2519     1.0  0.74438  0.84491  0.61218  1.0000
  H   H2014     1.0  0.78010  0.88870  0.60894  1.0000
  H   H2015     1.0  0.80759  0.85782  0.60367  1.0000
  H   H2016     1.0  0.75442  0.81029  0.61004  1.0000
  H   H2017     1.0  0.72685  0.84117  0.61454  1.0000
  C   C2520     1.0  0.63296  0.84943  0.55318  1.0000
  C   C2521     1.0  0.61830  0.83542  0.54127  1.0000
  C   C2522     1.0  0.62127  0.83149  0.51814  1.0000
  C   C2523     1.0  0.63906  0.84145  0.50672  1.0000
  C   C2524     1.0  0.65357  0.85554  0.51862  1.0000
  C   C2525     1.0  0.65056  0.85959  0.54167  1.0000
  H   H2018     1.0  0.60457  0.82756  0.55002  1.0000
  H   H2019     1.0  0.60975  0.82087  0.50921  1.0000
  H   H2020     1.0  0.66707  0.86361  0.50986  1.0000
  H   H2021     1.0  0.66194  0.87042  0.55057  1.0000
  C   C2526     1.0  0.62937  0.87878  0.71201  1.0000
  H   H2022     1.0  0.60430  0.98663  0.56882  1.0000
  C   C2527     1.0  0.60996  0.86747  0.70553  1.0000
  C   C2528     1.0  0.97477  0.62357  0.70892  1.0000
  H   H2023     1.0  0.60647  0.86510  0.68794  1.0000
  C   C2529     1.0  0.96781  0.81627  0.63253  1.0000
  C   C2530     1.0  0.94688  0.81909  0.62187  1.0000
  C   C2531     1.0  0.94062  0.84002  0.61352  1.0000
  C   C2532     1.0  0.95515  0.85816  0.61676  1.0000
  H   H2024     1.0  0.66839  0.84296  0.71351  1.0000
  H   H2025     1.0  0.93577  0.80502  0.61983  1.0000
  H   H2026     1.0  0.95021  0.87455  0.61100  1.0000
  H   H2027     1.0  0.97999  0.87323  0.57908  1.0000
  H   H2028     1.0  0.83918  0.54632  0.68306  1.0000
  H   H2029     1.0  0.73318  0.82821  0.72541  1.0000
  H   H2030     1.0  0.66220  0.95019  0.56287  1.0000
  H   H2031     1.0  0.94748  0.80437  0.57105  1.0000
  H   H2032     1.0  0.98686  0.86947  0.62971  1.0000
  H   H2033     1.0  0.86410  0.60028  0.73342  1.0000
  C   C2533     1.0  0.56475  0.94994  0.53466  1.0000
  H   H2034     1.0  0.74646  0.70376  0.51066  1.0000
  H   H2035     1.0  0.58022  0.85025  0.71672  1.0000
  S   S360      1.0  0.90971  0.58138  0.73128  1.0000
  C   C2534     1.0  0.92632  0.61842  0.56660  1.0000
  H   H2036     1.0  0.86248  0.59473  0.53635  1.0000
  C   C2535     1.0  0.98127  0.73341  0.58961  1.0000
  C   C2536     1.0  0.90056  0.49774  0.68436  1.0000
  C   C2537     1.0  0.73761  0.93317  0.51267  1.0000
  H   H2037     1.0  0.74370  0.89841  0.56076  1.0000
  C   C2538     1.0  0.58494  0.94617  0.52320  1.0000
  C   C2539     1.0  0.85484  0.88737  0.55819  1.0000
  C   C2540     1.0  0.95724  0.91464  0.53459  1.0000
  H   H2038     1.0  0.85297  0.64190  0.55985  1.0000
  H   H2039     1.0  0.92156  0.68807  0.67093  1.0000
  C   C2541     1.0  0.85933  0.88887  0.58108  1.0000
  C   C2542     1.0  0.91208  0.82519  0.51395  1.0000
  P   P85       1.0  0.72706  0.81207  0.52481  1.0000
  C   C2543     1.0  0.70140  0.80200  0.53718  1.0000
  C   C2544     1.0  0.74831  0.79231  0.53325  1.0000
  C   C2545     1.0  0.75971  0.77900  0.51755  1.0000
  C   C2546     1.0  0.77698  0.76480  0.52451  1.0000
  C   C2547     1.0  0.78266  0.76345  0.54716  1.0000
  C   C2548     1.0  0.77078  0.77595  0.56294  1.0000
  C   C2549     1.0  0.75356  0.79019  0.55606  1.0000
  C   C2550     1.0  0.69067  0.81375  0.55452  1.0000
  C   C2551     1.0  0.67052  0.80594  0.56340  1.0000
  C   C2552     1.0  0.66111  0.78621  0.55536  1.0000
  C   C2553     1.0  0.67209  0.77397  0.53872  1.0000
  C   C2554     1.0  0.69224  0.78176  0.52973  1.0000
  C   C2555     1.0  0.73338  0.83981  0.53480  1.0000
  C   C2556     1.0  0.75378  0.84464  0.54538  1.0000
  H   H2040     1.0  0.97597  0.67683  0.58898  1.0000
  C   C2557     1.0  0.74112  0.88238  0.55278  1.0000
  C   C2558     1.0  0.72117  0.87797  0.54150  1.0000
  C   C2559     1.0  0.71746  0.85686  0.53225  1.0000
  H   H2041     1.0  0.89906  0.96907  0.50683  1.0000
  C   C2560     1.0  0.86906  0.61313  0.59486  1.0000
  C   C2561     1.0  0.93482  0.63127  0.58427  1.0000
  C   C2562     1.0  0.66210  0.83524  0.72863  1.0000
  C   C2563     1.0  0.90896  0.61851  0.51342  1.0000
  H   H2042     1.0  0.55624  0.93649  0.54319  1.0000
  C   C2564     1.0  0.81073  0.49065  0.69290  1.0000
  H   H2043     1.0  0.79641  0.75292  0.55253  1.0000
  H   H2044     1.0  0.77530  0.77506  0.58050  1.0000
  H   H2045     1.0  0.74481  0.80008  0.56852  1.0000
  H   H2046     1.0  0.69764  0.82892  0.56139  1.0000
  H   H2047     1.0  0.66209  0.81535  0.57647  1.0000
  H   H2048     1.0  0.64532  0.78045  0.56213  1.0000
  H   H2049     1.0  0.66482  0.75858  0.53264  1.0000
  H   H2050     1.0  0.70057  0.77218  0.51680  1.0000
  H   H2051     1.0  0.69068  0.88562  0.71503  1.0000
  C   C2565     1.0  0.95833  0.73510  0.58481  1.0000
  C   C2566     1.0  0.64329  0.91121  0.51460  1.0000
  H   H2052     1.0  0.70831  0.89066  0.54055  1.0000
  H   H2053     1.0  0.70180  0.85348  0.52391  1.0000
  H   H2054     1.0  0.77316  0.86936  0.56278  1.0000
  H   H2055     1.0  0.97926  0.79286  0.59491  1.0000
  H   H2056     1.0  0.95153  0.92602  0.52177  1.0000
  H   H2057     1.0  0.93292  0.59024  0.54478  1.0000
  H   H2058     1.0  0.87557  0.54878  0.59102  1.0000
  C   C2567     1.0  0.95361  0.72282  0.63929  1.0000
  C   C2568     1.0  0.89885  0.89293  0.57297  1.0000
  C   C2569     1.0  0.95243  0.88164  0.55749  1.0000
  C   C2570     1.0  0.89365  0.61205  0.53001  1.0000
  C   C2571     1.0  0.95092  0.67821  0.65256  1.0000
  H   H2059     1.0  0.96376  0.59527  0.72824  1.0000
  H   H2060     1.0  0.95370  0.83029  0.53940  1.0000
  C   C2572     1.0  0.94351  0.64823  0.73393  1.0000
  C   C2573     1.0  0.90969  0.84572  0.52486  1.0000
  C   C2574     1.0  0.81176  0.50119  0.71385  1.0000
  H   H2061     1.0  0.90926  0.53246  0.68688  1.0000
  C   C2575     1.0  0.89949  0.95175  0.50163  1.0000
  C   C2576     1.0  0.58617  0.98554  0.51334  1.0000
  C   C2577     1.0  0.72442  0.81420  0.49472  1.0000
  H   H2062     1.0  0.84031  0.68116  0.56013  1.0000
  C   C2578     1.0  0.97174  0.64631  0.70465  1.0000
  C   C2579     1.0  0.98284  0.83421  0.63478  1.0000
  C   C2580     1.0  0.90073  0.66798  0.72740  1.0000
  H   H2063     1.0  0.61861  0.96127  0.64687  1.0000
  C   C2581     1.0  0.78924  0.85421  0.49461  1.0000
  C   C2582     1.0  0.96649  0.75735  0.55198  1.0000
  C   C2583     1.0  0.63351  0.98384  0.62320  1.0000
  H   H2064     1.0  0.93320  0.74883  0.56298  1.0000
  H   H2065     1.0  0.85975  0.84817  0.51505  1.0000
  C   C2584     1.0  0.93511  0.69359  0.66024  1.0000
  H   H2066     1.0  0.61133  0.78395  0.49296  1.0000
  H   H2067     1.0  0.53991  0.97416  0.54442  1.0000
  H   H2068     1.0  0.94979  0.66092  0.65772  1.0000
  H   H2069     1.0  0.90394  0.81051  0.52056  1.0000
  C   C2585     1.0  0.63353  0.88171  0.73501  1.0000
  H   H2070     1.0  0.84586  0.88742  0.59314  1.0000
  H   H2071     1.0  0.98633  0.60759  0.58922  1.0000
  C   C2586     1.0  0.86116  0.50955  0.70708  1.0000
  H   H2072     1.0  0.85127  0.56548  0.62010  1.0000
  H   H2073     1.0  0.76674  0.83214  0.54716  1.0000
  C   C2587     1.0  0.55537  0.97134  0.53537  1.0000
  C   C2588     1.0  0.71301  0.71689  0.50772  1.0000
  H   H2074     1.0  0.96282  0.63725  0.60610  1.0000
  C   C2589     1.0  0.66607  0.91416  0.51901  1.0000
  H   H2075     1.0  0.98020  0.67277  0.63269  1.0000
  H   H2076     1.0  0.82840  0.50997  0.64656  1.0000
  H   H2077     1.0  0.94591  0.72708  0.59519  1.0000
  H   H2078     1.0  0.92139  0.66427  0.55493  1.0000
  C   C2590     1.0  0.88130  0.89172  0.58844  1.0000
  H   H2079     1.0  0.86804  0.63101  0.59719  1.0000
  H   H2080     1.0  0.84777  0.60660  0.62319  1.0000
  H   H2081     1.0  0.63311  0.82223  0.71181  1.0000
  H   H2082     1.0  0.55607  0.86393  0.58825  1.0000
  C   C2591     1.0  0.88793  0.64971  0.72028  1.0000
  H   H2083     1.0  0.62209  0.94524  0.55530  1.0000
  H   H2084     1.0  0.91542  0.49342  0.67489  1.0000
  H   H2085     1.0  0.78628  0.75513  0.51230  1.0000
  C   C2592     1.0  0.76013  0.94268  0.54502  1.0000
  C   C2593     1.0  0.73314  0.70846  0.49929  1.0000
  H   H2086     1.0  0.96070  0.76687  0.53767  1.0000
  H   H2087     1.0  0.56317  0.97192  0.62574  1.0000
  C   C2594     1.0  0.96970  0.61071  0.58276  1.0000
  C   C2595     1.0  0.87491  0.59931  0.52399  1.0000
  C   C2596     1.0  0.82868  0.54594  0.71777  1.0000
  H   H2088     1.0  0.95452  0.74026  0.63452  1.0000
  C   C2597     1.0  0.71096  0.85680  0.72328  1.0000
  C   C2598     1.0  0.58362  0.88574  0.58089  1.0000
  C   C2599     1.0  0.55424  0.87686  0.55460  1.0000
  H   H2089     1.0  0.87935  0.70748  0.69214  1.0000
  C   C2600     1.0  0.58464  0.97683  0.59727  1.0000
  H   H2090     1.0  0.91563  0.89496  0.57927  1.0000
  C   C2601     1.0  0.96122  0.59752  0.56549  1.0000
  C   C2602     1.0  0.62714  0.92226  0.52766  1.0000
  C   C2603     1.0  0.87236  0.88837  0.54271  1.0000
  H   H2091     1.0  0.63848  0.90006  0.50121  1.0000
  H   H2092     1.0  0.60268  0.87292  0.50719  1.0000
  H   H2093     1.0  0.86865  0.88700  0.52506  1.0000
  H   H2094     1.0  0.59132  0.88351  0.59716  1.0000
  C   C2604     1.0  0.56379  0.87459  0.57581  1.0000
  C   C2605     1.0  0.89699  0.51983  0.69095  1.0000
  C   C2606     1.0  0.90367  0.66761  0.55624  1.0000
  C   C2607     1.0  0.85977  0.57613  0.60823  1.0000
  C   C2608     1.0  0.93270  0.86308  0.49638  1.0000
  C   C2609     1.0  0.87746  0.52573  0.70240  1.0000
  H   H2095     1.0  0.88489  0.89234  0.60621  1.0000
  C   C2610     1.0  0.91951  0.86494  0.51576  1.0000
  H   H2096     1.0  0.70191  0.51540  0.52635  1.0000
  C   C2611     1.0  0.59415  0.89893  0.56472  1.0000
  C   C2612     1.0  0.88211  0.60384  0.57767  1.0000
  H   H2097     1.0  0.69042  0.93004  0.54023  1.0000
  C   C2613     1.0  0.89776  0.68881  0.71699  1.0000
  H   H2098     1.0  0.97119  0.58396  0.55878  1.0000
  H   H2099     1.0  0.89522  0.57298  0.56393  1.0000
  C   C2614     1.0  0.67286  0.92818  0.53638  1.0000
  C   C2615     1.0  0.96908  0.70728  0.63079  1.0000
  C   C2616     1.0  0.85797  0.67732  0.55884  1.0000
  H   H2100     1.0  0.98108  0.65417  0.69125  1.0000
  C   C2617     1.0  0.59513  0.85901  0.72193  1.0000
  C   C2618     1.0  0.73966  0.94314  0.53376  1.0000
  C   C2619     1.0  0.90728  0.93529  0.51633  1.0000
  C   C2620     1.0  0.95602  0.65857  0.71694  1.0000
  C   C2621     1.0  0.85869  0.84459  0.49735  1.0000
  C   C2622     1.0  0.83180  0.55577  0.69666  1.0000
  C   C2623     1.0  0.90799  0.91283  0.50964  1.0000
  C   C2624     1.0  0.75759  0.86588  0.55425  1.0000
  P   P86       1.0  0.91673  0.89165  0.52939  1.0000
  H   H2101     1.0  0.59417  0.96167  0.60016  1.0000
  C   C2625     1.0  0.77679  0.92277  0.51389  1.0000
  C   C2626     1.0  0.69580  0.49929  0.52087  1.0000
  H   H2102     1.0  0.90001  0.84648  0.54019  1.0000
  H   H2103     1.0  0.97259  0.79995  0.63863  1.0000
  H   H2104     1.0  0.76548  0.87654  0.50959  1.0000
  C   C2627     1.0  0.70345  0.87409  0.70931  1.0000
  C   C2628     1.0  0.71200  0.87642  0.68765  1.0000
  C   C2629     1.0  0.72815  0.86153  0.67970  1.0000
  C   C2630     1.0  0.73578  0.84426  0.69348  1.0000
  C   C2631     1.0  0.96209  0.61308  0.72549  1.0000
  C   C2632     1.0  0.94384  0.89676  0.54170  1.0000
  H   H2105     1.0  0.91253  0.94003  0.53303  1.0000
  C   C2633     1.0  0.88821  0.65010  0.55837  1.0000
  H   H2106     1.0  0.67842  0.90527  0.50917  1.0000
  H   H2107     1.0  0.48933  0.49571  0.58254  1.0000
  H   H2108     1.0  0.86227  0.63819  0.69776  1.0000
  H   H2109     1.0  0.72161  0.93369  0.50428  1.0000
  C   C2634     1.0  0.81536  0.59026  0.71008  1.0000
  H   H2110     1.0  0.82845  0.58562  0.67679  1.0000
  H   H2111     1.0  0.95329  0.67598  0.71287  1.0000
  H   H2112     1.0  0.87529  0.54291  0.70766  1.0000
  C   C2635     1.0  0.77870  0.93256  0.53505  1.0000
  C   C2636     1.0  0.88759  0.49226  0.62739  1.0000
  H   H2113     1.0  0.70584  0.88963  0.67691  1.0000
  H   H2114     1.0  0.73460  0.86333  0.66280  1.0000
  C   C2637     1.0  0.96766  0.82527  0.54979  1.0000
  C   C2638     1.0  0.97366  0.88486  0.56670  1.0000
  C   C2639     1.0  0.87349  0.69464  0.55743  1.0000
  C   C2640     1.0  0.95100  0.74724  0.56622  1.0000
  H   H2115     1.0  0.86792  0.71189  0.55791  1.0000
  H   H2116     1.0  0.90822  0.70336  0.55520  1.0000
  H   H2117     1.0  0.94260  0.86741  0.56287  1.0000
  C   C2641     1.0  0.82550  0.57797  0.69296  1.0000
  C   C2642     1.0  0.59564  0.96418  0.51264  1.0000
  H   H2118     1.0  0.75958  0.82048  0.48945  1.0000
  C   C2643     1.0  0.96415  0.81059  0.56756  1.0000
  C   C2644     1.0  0.79317  0.50013  0.72819  1.0000
  H   H2119     1.0  0.72540  0.95128  0.54148  1.0000
  C   C2645     1.0  0.85770  0.59929  0.60987  1.0000
  C   C2646     1.0  0.89454  0.89085  0.54996  1.0000
  H   H2120     1.0  0.74824  0.83266  0.68719  1.0000
  H   H2121     1.0  0.89070  0.63327  0.72739  1.0000
  C   C2647     1.0  0.69578  0.72294  0.49308  1.0000
  C   C2648     1.0  0.98677  0.68400  0.51075  1.0000
  C   C2649     1.0  0.84500  0.50480  0.64155  1.0000
  H   H2122     1.0  0.83785  0.88487  0.55246  1.0000
  H   H2123     1.0  0.85750  0.58265  0.49723  1.0000
  C   C2650     1.0  0.65693  0.93951  0.54919  1.0000
  C   C2651     1.0  0.88159  0.69147  0.70029  1.0000
  H   H2124     1.0  0.92409  0.72785  0.65941  1.0000
  C   C2652     1.0  0.87331  0.56675  0.59165  1.0000
  P   P87       1.0  0.89743  0.62134  0.55846  1.0000
  H   H2125     1.0  0.53895  0.86807  0.55061  1.0000
  H   H2126     1.0  0.92318  0.62884  0.51766  1.0000
  C   C2653     1.0  0.75612  0.92263  0.50268  1.0000
  C   C2654     1.0  0.93651  0.71593  0.65368  1.0000
  P   P88       1.0  0.83604  0.51702  0.72215  1.0000
  H   H2127     1.0  0.51569  0.50943  0.62918  1.0000
  C   C2655     1.0  0.72721  0.84184  0.71518  1.0000
  H   H2128     1.0  0.68019  0.72899  0.50002  1.0000
  H   H2129     1.0  0.71071  0.71862  0.52565  1.0000
  C   C2656     1.0  0.86856  0.67331  0.69367  1.0000
  C   C2657     1.0  0.98659  0.90308  0.56010  1.0000
  H   H2130     1.0  0.85632  0.67528  0.68043  1.0000
  C   C2658     1.0  0.87183  0.65242  0.70354  1.0000
  C   C2659     1.0  0.88447  0.58053  0.57642  1.0000
  H   H2131     1.0  0.97581  0.68680  0.52496  1.0000
  C   C2660     1.0  0.63417  0.93659  0.54488  1.0000
  C   C2661     1.0  0.58468  0.90132  0.54336  1.0000
  H   H2132     1.0  0.60985  0.90675  0.56899  1.0000
  C   C2662     1.0  0.93954  0.60123  0.55753  1.0000
  P   P89       1.0  0.59760  0.91875  0.52233  1.0000
  H   H2133     1.0  0.55689  0.89184  0.52212  1.0000
  H   H2134     1.0  0.92444  0.64364  0.59246  1.0000
  C   C2663     1.0  0.86526  0.65512  0.55898  1.0000
  S   S361      1.0  0.97774  0.62332  0.64968  1.0000
  C   C2664     1.0  0.94649  0.62533  0.73793  1.0000
  H   H2135     1.0  0.79144  0.91520  0.50631  1.0000
  C   C2665     1.0  0.98013  0.69070  0.48937  1.0000
  C   C2666     1.0  0.77439  0.87228  0.49445  1.0000
  H   H2136     1.0  0.79198  0.84477  0.50984  1.0000
  H   H2137     1.0  0.82449  0.49163  0.68125  1.0000
  H   H2138     1.0  0.61131  0.96165  0.50385  1.0000
  C   C2667     1.0  0.97846  0.91788  0.54393  1.0000
  C   C2668     1.0  0.49885  0.50325  0.63170  1.0000
  H   H2139     1.0  0.94108  0.54138  0.73045  1.0000
  H   H2140     1.0  0.90809  0.70294  0.72138  1.0000
  H   H2141     1.0  0.94083  0.87764  0.48941  1.0000
  H   H2142     1.0  0.81054  0.60748  0.70723  1.0000
  C   C2669     1.0  0.92429  0.82366  0.49408  1.0000
  H   H2143     1.0  0.75557  0.77961  0.49997  1.0000
  C   C2670     1.0  0.87194  0.59255  0.50178  1.0000
  C   C2671     1.0  0.61968  0.97842  0.64131  1.0000
  H   H2144     1.0  0.65146  0.79286  0.49707  1.0000
  C   C2672     1.0  0.81125  0.58027  0.73081  1.0000
  C   C2673     1.0  0.90594  0.61173  0.49122  1.0000
  C   C2674     1.0  0.85803  0.82238  0.49017  1.0000
  C   C2675     1.0  0.81776  0.55816  0.73464  1.0000
  C   C2676     1.0  0.56718  0.98265  0.61170  1.0000
  C   C2677     1.0  0.67860  0.49809  0.50509  1.0000
  C   C2678     1.0  0.59696  0.88269  0.49305  1.0000
  C   C2679     1.0  0.59307  0.90569  0.49542  1.0000
  H   H2145     1.0  0.67141  0.51327  0.49830  1.0000
  C   C2680     1.0  0.77414  0.48811  0.72193  1.0000
  Fe  Fe181     1.0  0.58715  0.84964  0.80284  1.0000
  S   S362      1.0  0.62141  0.84617  0.81737  1.0000
  S   S363      1.0  0.58063  0.85024  0.76508  1.0000
  Fe  Fe182     1.0  0.56539  0.85150  0.84975  1.0000
  S   S364      1.0  0.59909  0.84929  0.86694  1.0000
  S   S365      1.0  0.53664  0.85098  0.87517  1.0000
  Fe  Fe183     1.0  0.61098  0.87393  0.84085  1.0000
  S   S366      1.0  0.63456  0.90413  0.84036  1.0000
  Fe  Fe184     1.0  0.60613  0.82191  0.84207  1.0000
  S   S367      1.0  0.62286  0.78790  0.84866  1.0000
  S   S368      1.0  0.57702  0.87797  0.82543  1.0000
  S   S369      1.0  0.57231  0.82341  0.82569  1.0000
  Fe  Fe185     1.0  0.61682  0.67490  0.92337  1.0000
  S   S370      1.0  0.62127  0.65319  0.89329  1.0000
  S   S371      1.0  0.60325  0.71069  0.92053  1.0000
  Fe  Fe186     1.0  0.62954  0.63601  0.95582  1.0000
  S   S372      1.0  0.63363  0.61199  0.92693  1.0000
  C   C2681     1.0  0.61991  0.49914  0.94945  1.0000
  Fe  Fe187     1.0  0.65231  0.63972  0.90993  1.0000
  S   S373      1.0  0.68533  0.63865  0.89042  1.0000
  Fe  Fe188     1.0  0.60190  0.62753  0.91271  1.0000
  S   S374      1.0  0.57592  0.60753  0.89251  1.0000
  S   S375      1.0  0.64919  0.66337  0.93886  1.0000
  S   S376      1.0  0.59649  0.64962  0.94288  1.0000
  Fe  Fe189     1.0  0.83445  0.57241  0.84510  1.0000
  S   S377      1.0  0.80813  0.54572  0.84808  1.0000
  S   S378      1.0  0.83855  0.59057  0.81129  1.0000
  Fe  Fe190     1.0  0.84621  0.56812  0.89520  1.0000
  S   S379      1.0  0.82154  0.54028  0.90073  1.0000
  S   S380      1.0  0.86895  0.58378  0.92186  1.0000
  Fe  Fe191     1.0  0.83390  0.52631  0.86778  1.0000
  C   C2682     1.0  0.69354  0.88062  0.76325  1.0000
  Fe  Fe192     1.0  0.79780  0.56182  0.88058  1.0000
  S   S381      1.0  0.76225  0.56445  0.89520  1.0000
  S   S382      1.0  0.86056  0.55260  0.86350  1.0000
  S   S383      1.0  0.82207  0.59006  0.87637  1.0000
  C   C2683     1.0  0.56318  0.65842  0.84953  1.0000
  C   C2684     1.0  0.86846  0.59380  0.74974  1.0000
  C   C2685     1.0  0.85317  0.59558  0.76771  1.0000
  C   C2686     1.0  0.85827  0.58700  0.78907  1.0000
  C   C2687     1.0  0.87921  0.57702  0.79233  1.0000
  C   C2688     1.0  0.89459  0.57542  0.77444  1.0000
  H   H2146     1.0  0.56472  0.68621  0.90076  1.0000
  H   H2147     1.0  0.83727  0.60380  0.76512  1.0000
  H   H2148     1.0  0.88368  0.57084  0.80874  1.0000
  H   H2149     1.0  0.91075  0.56776  0.77726  1.0000
  C   C2689     1.0  0.70765  0.61910  0.89315  1.0000
  C   C2690     1.0  0.70824  0.60340  0.91041  1.0000
  C   C2691     1.0  0.72567  0.58753  0.91136  1.0000
  C   C2692     1.0  0.74283  0.58712  0.89518  1.0000
  C   C2693     1.0  0.74280  0.60352  0.87851  1.0000
  C   C2694     1.0  0.72528  0.61937  0.87749  1.0000
  H   H2150     1.0  0.69493  0.60310  0.92265  1.0000
  H   H2151     1.0  0.72542  0.57504  0.92434  1.0000
  H   H2152     1.0  0.75580  0.60345  0.86589  1.0000
  H   H2153     1.0  0.72511  0.63155  0.86414  1.0000
  C   C2695     1.0  0.51051  0.62851  0.89775  1.0000
  C   C2696     1.0  0.53381  0.62634  0.90134  1.0000
  C   C2697     1.0  0.54665  0.61216  0.88782  1.0000
  C   C2698     1.0  0.53580  0.60056  0.87039  1.0000
  C   C2699     1.0  0.51254  0.60302  0.86656  1.0000
  H   H2154     1.0  0.54173  0.63522  0.91492  1.0000
  H   H2155     1.0  0.54545  0.58950  0.85980  1.0000
  C   C2700     1.0  0.85739  0.52268  0.78703  1.0000
  C   C2701     1.0  0.65234  0.52054  0.96060  1.0000
  H   H2156     1.0  0.61777  0.64852  0.83683  1.0000
  C   C2702     1.0  0.61618  0.76630  0.86819  1.0000
  C   C2703     1.0  0.60058  0.76929  0.88544  1.0000
  C   C2704     1.0  0.59676  0.75209  0.90118  1.0000
  C   C2705     1.0  0.60825  0.73159  0.89981  1.0000
  C   C2706     1.0  0.62348  0.72845  0.88231  1.0000
  C   C2707     1.0  0.62755  0.74573  0.86675  1.0000
  H   H2157     1.0  0.59182  0.78503  0.88697  1.0000
  H   H2158     1.0  0.58490  0.75477  0.91460  1.0000
  H   H2159     1.0  0.63210  0.71267  0.88077  1.0000
  H   H2160     1.0  0.63965  0.74315  0.85353  1.0000
  C   C2708     1.0  0.73376  0.80296  0.78128  1.0000
  C   C2709     1.0  0.85242  0.50175  0.79592  1.0000
  C   C2710     1.0  0.91495  0.52199  0.74567  1.0000
  H   H2161     1.0  0.70455  0.56560  0.85739  1.0000
  H   H2162     1.0  0.67237  0.82962  0.78452  1.0000
  C   C2711     1.0  0.63474  0.93033  0.85451  1.0000
  C   C2712     1.0  0.64767  0.94788  0.84569  1.0000
  C   C2713     1.0  0.64922  0.96862  0.85684  1.0000
  C   C2714     1.0  0.59963  0.86148  0.74495  1.0000
  C   C2715     1.0  0.62498  0.95447  0.88589  1.0000
  C   C2716     1.0  0.62323  0.93382  0.87460  1.0000
  H   H2163     1.0  0.65682  0.94535  0.83027  1.0000
  H   H2164     1.0  0.49165  0.86262  0.74969  1.0000
  H   H2165     1.0  0.61637  0.95681  0.90164  1.0000
  H   H2166     1.0  0.61357  0.92039  0.88180  1.0000
  C   C2717     1.0  0.84198  0.58539  0.95997  1.0000
  C   C2718     1.0  0.86174  0.59233  0.94961  1.0000
  C   C2719     1.0  0.87634  0.60631  0.96165  1.0000
  H   H2167     1.0  0.83100  0.57409  0.95123  1.0000
  C   C2720     1.0  0.53759  0.92253  0.82262  1.0000
  H   H2168     1.0  0.65792  0.90714  0.79918  1.0000
  C   C2721     1.0  0.49840  0.78479  0.81626  1.0000
  H   H2169     1.0  0.96743  0.68195  0.75541  1.0000
  C   C2722     1.0  0.90394  0.50114  0.83663  1.0000
  P   P90       1.0  0.69896  0.85349  0.75091  1.0000
  C   C2723     1.0  0.51400  0.69904  0.82084  1.0000
  H   H2170     1.0  0.89179  0.61166  0.95394  1.0000
  C   C2724     1.0  0.49124  0.65913  0.82903  1.0000
  H   H2171     1.0  0.96856  0.86195  0.88135  1.0000
  C   C2725     1.0  0.64396  0.81621  0.76734  1.0000
  H   H2172     1.0  0.49512  0.69394  0.88288  1.0000
  H   H2173     1.0  0.63493  0.80653  0.89445  1.0000
  H   H2174     1.0  0.98004  0.89993  0.89318  1.0000
  H   H2175     1.0  0.50458  0.59399  0.85309  1.0000
  H   H2176     1.0  0.68254  0.96117  0.74167  1.0000
  H   H2177     1.0  0.85694  0.54366  0.75791  1.0000
  H   H2178     1.0  0.89783  0.51780  0.84029  1.0000
  P   P91       1.0  0.50418  0.89410  0.83877  1.0000
  C   C2726     1.0  0.92648  0.48766  0.76400  1.0000
  C   C2727     1.0  0.65207  0.78144  0.91384  1.0000
  C   C2728     1.0  0.89398  0.62795  0.81063  1.0000
  C   C2729     1.0  0.91705  0.62888  0.80701  1.0000
  C   C2730     1.0  0.92550  0.63969  0.78805  1.0000
  H   H2179     1.0  0.69616  0.71833  0.97164  1.0000
  C   C2731     1.0  0.61897  0.87290  0.75136  1.0000
  C   C2732     1.0  0.51836  0.68245  0.93344  1.0000
  C   C2733     1.0  0.53472  0.74085  0.87546  1.0000
  H   H2180     1.0  0.69306  0.70412  0.85735  1.0000
  H   H2181     1.0  0.80315  0.58969  0.74404  1.0000
  H   H2182     1.0  0.86475  0.53522  0.79771  1.0000
  C   C2734     1.0  0.88775  0.64866  0.77637  1.0000
  H   H2183     1.0  0.62515  0.51205  0.98271  1.0000
  P   P92       1.0  0.92205  0.66385  0.74835  1.0000
  C   C2735     1.0  0.70896  0.51214  0.92547  1.0000
  H   H2184     1.0  0.81427  0.55072  0.75079  1.0000
  H   H2185     1.0  0.71244  0.54163  0.88952  1.0000
  H   H2186     1.0  0.68879  0.63588  0.96650  1.0000
  C   C2736     1.0  0.58514  0.69205  0.85367  1.0000
  H   H2187     1.0  0.85500  0.96450  0.95788  1.0000
  H   H2188     1.0  0.60392  0.96906  0.82145  1.0000
  H   H2189     1.0  0.75618  0.74612  0.95512  1.0000
  H   H2190     1.0  0.73533  0.53686  0.92473  1.0000
  C   C2737     1.0  0.66106  0.51898  0.93881  1.0000
  H   H2191     1.0  0.88732  0.61917  0.82505  1.0000
  H   H2192     1.0  0.65931  0.98189  0.84990  1.0000
  C   C2738     1.0  0.62579  0.80817  0.92929  1.0000
  H   H2193     1.0  0.70516  0.66488  0.94219  1.0000
  H   H2194     1.0  0.62275  0.87491  0.76893  1.0000
  C   C2739     1.0  0.70404  0.91953  0.76840  1.0000
  H   H2195     1.0  0.70092  0.76166  0.89955  1.0000
  C   C2740     1.0  0.92460  0.72643  0.77546  1.0000
  C   C2741     1.0  0.49964  0.61688  0.88038  1.0000
  C   C2742     1.0  0.69414  0.74512  0.89690  1.0000
  C   C2743     1.0  0.69219  0.56398  0.87057  1.0000
  H   H2196     1.0  0.62027  0.68876  0.84638  1.0000
  C   C2744     1.0  0.60425  0.68038  0.84685  1.0000
  C   C2745     1.0  0.66393  0.72978  0.95954  1.0000
  H   H2197     1.0  0.58688  0.70927  0.85873  1.0000
  P   P93       1.0  0.68713  0.53232  0.93145  1.0000
  H   H2198     1.0  0.61959  0.80551  0.96467  1.0000
  C   C2746     1.0  0.53072  0.69009  0.88878  1.0000
  C   C2747     1.0  0.54712  0.68618  0.90511  1.0000
  C   C2748     1.0  0.54094  0.68242  0.92735  1.0000
  C   C2749     1.0  0.50194  0.68656  0.91731  1.0000
  H   H2199     1.0  0.56274  0.72532  0.82816  1.0000
  C   C2750     1.0  0.84272  0.98111  0.92834  1.0000
  C   C2751     1.0  0.51777  0.68747  0.84093  1.0000
  P   P94       1.0  0.53890  0.69673  0.86048  1.0000
  C   C2752     1.0  0.69665  0.55042  0.88909  1.0000
  H   H2200     1.0  0.61484  0.90792  0.79530  1.0000
  H   H2201     1.0  0.61425  0.70628  0.97463  1.0000
  H   H2202     1.0  0.55374  0.67944  0.93983  1.0000
  H   H2203     1.0  0.50150  0.89002  0.89237  1.0000
  H   H2204     1.0  0.85624  0.49818  0.81325  1.0000
  C   C2753     1.0  0.73302  0.84964  0.78275  1.0000
  H   H2205     1.0  0.54763  0.64937  0.85104  1.0000
  H   H2206     1.0  0.58147  0.62882  0.84034  1.0000
  H   H2207     1.0  0.52832  0.92292  0.80707  1.0000
  C   C2754     1.0  0.50119  0.76389  0.82624  1.0000
  C   C2755     1.0  0.50614  0.66752  0.84491  1.0000
  C   C2756     1.0  0.68502  0.57010  0.95902  1.0000
  C   C2757     1.0  0.67826  0.71633  0.97246  1.0000
  C   C2758     1.0  0.68138  0.54926  0.90697  1.0000
  C   C2759     1.0  0.67225  0.57610  0.86944  1.0000
  C   C2760     1.0  0.65659  0.57441  0.88668  1.0000
  C   C2761     1.0  0.66110  0.56110  0.90539  1.0000
  H   H2208     1.0  0.67223  0.57642  0.94789  1.0000
  C   C2762     1.0  0.66414  0.82789  0.76847  1.0000
  C   C2763     1.0  0.58241  0.64665  0.84330  1.0000
  H   H2209     1.0  0.66907  0.58705  0.85535  1.0000
  H   H2210     1.0  0.64105  0.58374  0.88567  1.0000
  H   H2211     1.0  0.64876  0.56024  0.91864  1.0000
  H   H2212     1.0  0.70828  0.74216  0.86380  1.0000
  H   H2213     1.0  0.51362  0.67923  0.95064  1.0000
  C   C2764     1.0  0.96285  0.71471  0.76910  1.0000
  C   C2765     1.0  0.74173  0.77693  0.96670  1.0000
  H   H2214     1.0  0.51117  0.79131  0.80515  1.0000
  C   C2766     1.0  0.57561  0.93262  0.76236  1.0000
  C   C2767     1.0  0.85472  0.63768  0.90641  1.0000
  C   C2768     1.0  0.84975  0.64113  0.88384  1.0000
  C   C2769     1.0  0.82804  0.64700  0.87745  1.0000
  C   C2770     1.0  0.81129  0.64943  0.89364  1.0000
  C   C2771     1.0  0.81627  0.64634  0.91642  1.0000
  C   C2772     1.0  0.83804  0.64011  0.92264  1.0000
  P   P95       1.0  0.79476  0.64916  0.93748  1.0000
  C   C2773     1.0  0.77355  0.66791  0.92682  1.0000
  C   C2774     1.0  0.78237  0.62240  0.94356  1.0000
  C   C2775     1.0  0.76157  0.62135  0.95445  1.0000
  C   C2776     1.0  0.75188  0.60071  0.95926  1.0000
  C   C2777     1.0  0.76313  0.58099  0.95380  1.0000
  C   C2778     1.0  0.78388  0.58194  0.94313  1.0000
  C   C2779     1.0  0.79339  0.60254  0.93779  1.0000
  C   C2780     1.0  0.77612  0.69114  0.92858  1.0000
  C   C2781     1.0  0.76034  0.70554  0.91900  1.0000
  C   C2782     1.0  0.74178  0.69685  0.90784  1.0000
  C   C2783     1.0  0.73913  0.67380  0.90592  1.0000
  C   C2784     1.0  0.75502  0.65936  0.91516  1.0000
  C   C2785     1.0  0.80753  0.66035  0.96254  1.0000
  C   C2786     1.0  0.65541  0.77211  0.93516  1.0000
  C   C2787     1.0  0.61406  0.94290  0.78684  1.0000
  C   C2788     1.0  0.62880  0.79888  0.95053  1.0000
  H   H2215     1.0  0.87606  0.65637  0.76491  1.0000
  C   C2789     1.0  0.82340  0.67756  0.96092  1.0000
  H   H2216     1.0  0.87135  0.63234  0.91134  1.0000
  H   H2217     1.0  0.86257  0.63854  0.87126  1.0000
  H   H2218     1.0  0.82405  0.64893  0.85986  1.0000
  H   H2219     1.0  0.79446  0.65335  0.88826  1.0000
  H   H2220     1.0  0.84210  0.63669  0.93999  1.0000
  H   H2221     1.0  0.75277  0.63648  0.95898  1.0000
  C   C2790     1.0  0.70784  0.89863  0.75862  1.0000
  H   H2222     1.0  0.75553  0.56496  0.95709  1.0000
  H   H2223     1.0  0.79227  0.56665  0.93819  1.0000
  H   H2224     1.0  0.80927  0.60281  0.92907  1.0000
  H   H2225     1.0  0.79046  0.69823  0.93692  1.0000
  H   H2226     1.0  0.76268  0.72343  0.91992  1.0000
  H   H2227     1.0  0.72958  0.70794  0.90040  1.0000
  H   H2228     1.0  0.72488  0.66705  0.89696  1.0000
  H   H2229     1.0  0.75298  0.64153  0.91279  1.0000
  H   H2230     1.0  0.64207  0.96024  0.74920  1.0000
  C   C2791     1.0  0.84854  0.97995  0.95097  1.0000
  H   H2231     1.0  0.72277  0.80595  0.97651  1.0000
  C   C2792     1.0  0.63752  0.79954  0.91102  1.0000
  H   H2232     1.0  0.82780  0.68453  0.94479  1.0000
  C   C2793     1.0  0.63811  0.97195  0.87720  1.0000
  H   H2233     1.0  0.92834  0.62108  0.81884  1.0000
  C   C2794     1.0  0.68601  0.92262  0.78297  1.0000
  C   C2795     1.0  0.90959  0.50258  0.75740  1.0000
  C   C2796     1.0  0.55240  0.77262  0.85781  1.0000
  H   H2234     1.0  0.68306  0.93875  0.79068  1.0000
  C   C2797     1.0  0.70157  0.64686  0.97312  1.0000
  H   H2235     1.0  0.53322  0.77449  0.88819  1.0000
  C   C2798     1.0  0.53000  0.90972  0.84084  1.0000
  C   C2799     1.0  0.50526  0.87000  0.85690  1.0000
  C   C2800     1.0  0.50357  0.87351  0.88538  1.0000
  C   C2801     1.0  0.50656  0.85113  0.90291  1.0000
  C   C2802     1.0  0.51025  0.82462  0.89192  1.0000
  C   C2803     1.0  0.51119  0.82083  0.86351  1.0000
  C   C2804     1.0  0.50925  0.84338  0.84591  1.0000
  C   C2805     1.0  0.54247  0.90972  0.86076  1.0000
  C   C2806     1.0  0.56230  0.92192  0.86230  1.0000
  C   C2807     1.0  0.56985  0.93432  0.84405  1.0000
  H   H2236     1.0  0.68156  0.59791  0.98156  1.0000
  C   C2808     1.0  0.84241  0.51122  0.75106  1.0000
  H   H2237     1.0  0.63668  0.80918  0.78240  1.0000
  C   C2809     1.0  0.51824  0.87600  0.79814  1.0000
  C   C2810     1.0  0.51521  0.86820  0.77632  1.0000
  C   C2811     1.0  0.65224  0.97278  0.75737  1.0000
  C   C2812     1.0  0.54336  0.72662  0.85882  1.0000
  C   C2813     1.0  0.91697  0.70608  0.76694  1.0000
  C   C2814     1.0  0.56424  0.68139  0.85414  1.0000
  H   H2238     1.0  0.56340  0.94434  0.81011  1.0000
  H   H2239     1.0  0.50660  0.85362  0.92082  1.0000
  H   H2240     1.0  0.51278  0.81062  0.90298  1.0000
  H   H2241     1.0  0.51409  0.80439  0.85675  1.0000
  H   H2242     1.0  0.51105  0.84092  0.82810  1.0000
  H   H2243     1.0  0.53731  0.90005  0.87506  1.0000
  H   H2244     1.0  0.57206  0.92139  0.87756  1.0000
  H   H2245     1.0  0.58551  0.94325  0.84521  1.0000
  H   H2246     1.0  0.53471  0.87516  0.80549  1.0000
  H   H2247     1.0  0.52941  0.86169  0.76699  1.0000
  H   H2248     1.0  0.61888  0.48913  0.91483  1.0000
  C   C2815     1.0  0.73117  0.51937  0.92307  1.0000
  P   P96       1.0  0.67505  0.74941  0.93937  1.0000
  H   H2249     1.0  0.76515  0.51019  0.91550  1.0000
  C   C2816     1.0  0.64362  0.78100  0.95350  1.0000
  H   H2250     1.0  0.72203  0.89651  0.74752  1.0000
  C   C2817     1.0  0.64646  0.69611  0.98728  1.0000
  H   H2251     1.0  0.89232  0.49945  0.76180  1.0000
  C   C2818     1.0  0.74839  0.81438  0.79545  1.0000
  C   C2819     1.0  0.69028  0.58242  0.97820  1.0000
  C   C2820     1.0  0.71184  0.54184  0.97007  1.0000
  C   C2821     1.0  0.71073  0.66334  0.95942  1.0000
  C   C2822     1.0  0.63189  0.51058  0.96590  1.0000
  C   C2823     1.0  0.60257  0.95997  0.77547  1.0000
  C   C2824     1.0  0.55594  0.73587  0.84124  1.0000
  C   C2825     1.0  0.49396  0.86869  0.76662  1.0000
  C   C2826     1.0  0.60296  0.98699  0.82261  1.0000
  H   H2252     1.0  0.72057  0.73162  0.93991  1.0000
  C   C2827     1.0  0.64079  0.72611  0.96068  1.0000
  C   C2828     1.0  0.95394  0.51122  0.74557  1.0000
  C   C2829     1.0  0.94753  0.73079  0.77645  1.0000
  H   H2253     1.0  0.61422  0.82192  0.92688  1.0000
  H   H2254     1.0  0.95344  0.74656  0.78306  1.0000
  C   C2830     1.0  0.71808  0.83828  0.76868  1.0000
  H   H2255     1.0  0.64837  0.89056  0.74017  1.0000
  C   C2831     1.0  0.67675  0.70249  0.88941  1.0000
  H   H2256     1.0  0.73309  0.86768  0.78352  1.0000
  H   H2257     1.0  0.66097  0.52980  0.97347  1.0000
  C   C2832     1.0  0.58329  0.95465  0.76317  1.0000
  C   C2833     1.0  0.83782  0.49006  0.76006  1.0000
  C   C2834     1.0  0.74105  0.75602  0.95638  1.0000
  H   H2258     1.0  0.73415  0.69042  0.95728  1.0000
  H   H2259     1.0  0.89916  0.70282  0.76647  1.0000
  H   H2260     1.0  0.68716  0.79175  0.96190  1.0000
  C   C2835     1.0  0.85266  0.52740  0.76459  1.0000
  H   H2261     1.0  0.52303  0.71414  0.81706  1.0000
  H   H2262     1.0  0.71513  0.93333  0.76474  1.0000
  H   H2263     1.0  0.79179  0.63701  0.98545  1.0000
  C   C2836     1.0  0.68069  0.73507  0.91333  1.0000
  C   C2837     1.0  0.67324  0.83777  0.74916  1.0000
  H   H2264     1.0  0.66092  0.70595  0.92135  1.0000
  H   H2265     1.0  0.50887  0.65812  0.86012  1.0000
  C   C2838     1.0  0.69841  0.73410  0.87667  1.0000
  H   H2266     1.0  0.55659  0.79020  0.85797  1.0000
  C   C2839     1.0  0.95527  0.69434  0.76056  1.0000
  H   H2267     1.0  0.86148  0.63706  0.79823  1.0000
  H   H2268     1.0  0.91273  0.73880  0.78138  1.0000
  H   H2269     1.0  0.57138  0.76565  0.82801  1.0000
  H   H2270     1.0  0.66030  0.77477  0.89918  1.0000
  H   H2271     1.0  0.51607  0.75424  0.82274  1.0000
  C   C2840     1.0  0.98605  0.86557  0.88431  1.0000
  C   C2841     1.0  0.67557  0.88387  0.77809  1.0000
  C   C2842     1.0  0.70114  0.76051  0.94981  1.0000
  H   H2272     1.0  0.65500  0.50668  0.90528  1.0000
  C   C2843     1.0  0.64882  0.50761  0.92233  1.0000
  C   C2844     1.0  0.62835  0.49769  0.92767  1.0000
  C   C2845     1.0  0.72223  0.78970  0.96854  1.0000
  C   C2846     1.0  0.50010  0.88450  0.81043  1.0000
  H   H2273     1.0  0.94343  0.64048  0.78559  1.0000
  C   C2847     1.0  0.58695  0.91583  0.77398  1.0000
  C   C2848     1.0  0.88937  0.58381  0.75304  1.0000
  H   H2274     1.0  0.50079  0.63920  0.90862  1.0000
  C   C2849     1.0  0.60285  0.65772  0.84146  1.0000
  C   C2850     1.0  0.50807  0.69051  0.89507  1.0000
  C   C2851     1.0  0.69577  0.54966  0.95475  1.0000
  C   C2852     1.0  0.67181  0.90480  0.78778  1.0000
  C   C2853     1.0  0.56071  0.75873  0.84095  1.0000
  C   C2854     1.0  0.74819  0.50420  0.91795  1.0000
  H   H2275     1.0  0.49606  0.69966  0.78952  1.0000
  H   H2276     1.0  0.58097  0.89878  0.77340  1.0000
  H   H2277     1.0  0.61679  0.80574  0.74619  1.0000
  H   H2278     1.0  0.75941  0.84656  0.80709  1.0000
  C   C2855     1.0  0.87938  0.63802  0.79543  1.0000
  C   C2856     1.0  0.72699  0.67772  0.96794  1.0000
  H   H2279     1.0  0.66424  0.87047  0.78220  1.0000
  H   H2280     1.0  0.57420  0.96739  0.75409  1.0000
  C   C2857     1.0  0.53928  0.76372  0.87494  1.0000
  H   H2281     1.0  0.56093  0.92847  0.75261  1.0000
  H   H2282     1.0  0.66985  0.68601  0.88648  1.0000
  C   C2858     1.0  0.66952  0.69966  0.98633  1.0000
  H   H2283     1.0  0.52497  0.73436  0.88924  1.0000
  C   C2859     1.0  0.60612  0.92098  0.78625  1.0000
  C   C2860     1.0  0.91089  0.64913  0.77226  1.0000
  C   C2861     1.0  0.55743  0.93477  0.82426  1.0000
  C   C2862     1.0  0.68980  0.71273  0.87298  1.0000
  H   H2284     1.0  0.71999  0.52588  0.96770  1.0000
  C   C2863     1.0  0.93223  0.69008  0.75901  1.0000
  H   H2285     1.0  0.90447  0.50653  0.80135  1.0000
  H   H2286     1.0  0.73544  0.60005  0.96674  1.0000
  C   C2864     1.0  0.72088  0.74788  0.94782  1.0000
  C   C2865     1.0  0.67192  0.71375  0.90935  1.0000
  H   H2287     1.0  0.75737  0.78327  0.97330  1.0000
  H   H2288     1.0  0.62900  0.94655  0.79642  1.0000
  H   H2289     1.0  0.76003  0.80516  0.80584  1.0000
  H   H2290     1.0  0.93628  0.61662  0.75004  1.0000
  H   H2291     1.0  0.49377  0.93989  0.82547  1.0000
  H   H2292     1.0  0.62941  0.73573  0.95038  1.0000
  C   C2866     1.0  0.74804  0.83769  0.79615  1.0000
  C   C2867     1.0  0.49884  0.69075  0.80505  1.0000
  C   C2868     1.0  0.70199  0.78154  0.96019  1.0000
  C   C2869     1.0  0.71871  0.81485  0.76788  1.0000
  H   H2293     1.0  0.64586  0.77411  0.97010  1.0000
  C   C2870     1.0  0.63211  0.70939  0.97449  1.0000
  S   S384      1.0  0.83709  0.49037  0.85444  1.0000
  H   H2294     1.0  0.79338  0.50862  0.74421  1.0000
  C   C2871     1.0  0.87120  0.61334  0.98369  1.0000
  C   C2872     1.0  0.67522  0.97329  0.75301  1.0000
  C   C2873     1.0  0.80308  0.65092  0.98361  1.0000
  H   H2295     1.0  0.73406  0.78489  0.78066  1.0000
  C   C2874     1.0  0.83672  0.59257  0.98187  1.0000
  H   H2296     1.0  0.84701  0.69820  0.97868  1.0000
  C   C2875     1.0  0.83441  0.68530  0.98006  1.0000
  H   H2297     1.0  0.70759  0.80576  0.75686  1.0000
  C   C2876     1.0  0.90760  0.49455  0.81446  1.0000
  H   H2298     1.0  0.84456  0.96656  0.91771  1.0000
  C   C2877     1.0  0.94871  0.49200  0.75783  1.0000
  C   C2878     1.0  0.70418  0.48931  0.92313  1.0000
  H   H2299     1.0  0.60392  0.49166  0.95351  1.0000
  H   H2300     1.0  0.90472  0.49122  0.87127  1.0000
  H   H2301     1.0  0.98063  0.71799  0.77014  1.0000
  H   H2302     1.0  0.97110  0.51458  0.74087  1.0000
  H   H2303     1.0  0.90197  0.53388  0.74141  1.0000
  C   C2879     1.0  0.93707  0.52629  0.73963  1.0000
  C   C2880     1.0  0.63282  0.81409  0.74692  1.0000
  H   H2304     1.0  0.59564  0.98606  0.85795  1.0000
