data_image0
_chemical_formula_structural       FeS2FeS2FeSFeS3FeS2FeS2FeSFeS3FeS2CHCFeS2C3HC7H4C4HC2HPHCHC2H2C6H4C2HPHCHC2H5C2H2C3H3C7HCHC2HC3HC6H3C8PC10H2CH17CHCH3CH3C2H2CHC8HCHC6HCH2C2HC3HC4PH9CHC2HC2H2CH2CHC2H3C4HC2H3SHCH2CHPCH2CHC2HCFeCHCH2FeS2FeS2FeSFeS3FeS2FeS2FeSFeS3HSHC2H3C6H5C3HC2H3C2H3C6H5C4H2C2H3C6H3CH4CH2CHC8HCHC6HC2HCHCH3C3H6CHCH3C7PC18H12CH7CHC2HC3PC4H2C2HPCHCH3PC5H2C4H2CHCH6C6HCHC2H2C2HSC2HC2HC2HC4H4CH2C2H2C2H3C2HC4HC3HC3HC2H3CH2C3H3C3HCHCH2C2HC2H2PC2HC3HC4HC4H4C3SHC2HC2HCHFeCFeS2FeS2FeSFeS3FeS2FeS2FeSFeS3FeS2FeS2C2H4C3HC6H5C3HC3H5C6H4C3H2C2H2C2H3CHC4H2C2HC3H2C4HC2H2CHC5HC4HCH2C3HCHCHCH2C2PCH3CHC7HPCH7C6PC18H16CH3C3HCHPC18HCHCH3CH7C2H3C2H3C2H2PHC2H2C2H2C2H5CH2C4HCH6C3H2C3FeS2FeS2FeSFeS3FeS2FeS2FeSFeS3HCSHSC2HC6H6C3HCH2C2HC4HC6H5C3H2C2H3PC2H2C16HC2H11CHC8PC18H22CH5C2HCHCHCHC2H2CH2CH2C3H2C4HCHC2HC2HC2HC5H4C2H2CHC5HC2HC3HCHC2H2CHCSC3PHCH2C4HC2HCHCH3C2H2CP2H3FeCH2C2FeCHC5HCHC3HC2SHFeS2FeS2FeSFeS3FeS2FeS2FeSFeS3FeS2FeS2CH2C6H4PC3H2C3H2CHC2HC3H3C7H4C2H3C9HC2HCHC5H3CH2C2HC4HC5H2C3HCH5CH3C2HCHCHPHCHCH5CHC2H2C2HC2HC2H2C3H2C2HCH2CH3CPHCH3C4H3C2PCH2CHCH2CHC2HC2HC6HCHPHCHC5HC2H3CH5C13H2C2H3C6PC6HC3HCH2CH2CH4C2H2CH2CHCHC3HCHCHC2HCH3C2H3FeS2FeS2FeSFeS3FeS2FeS2FeSFeS3HCSCSC7H4C2H2C3H3C5H2C6H4C3H2CSC2H2C3HSC4HCH5C5H3CHCHCH3C2PC5H3CH2CH4CFeCHC3HC3HCH3C2HCH3C7PC5HC12H6C2H13C2HC4H4CH2CH6CH2CH2CH3CHPCH3CH3C3H2C9H2C3PC8H2CHCHC2HPC3HCHC2H3FeCHCH3CHC2H2FeS2FeS2FeSFeS3FeS2FeS2FeSFeS3FeS2CFeSHSHPHC6H4C3H2C2H2C4H2C6H4C2H2C3H3CH3CHC3H4CH2C3H2C2H2CHC2H2C2H2CHCH2C7PC17H18CH2CH4CH6C3HCHC3HC2HCH2CHCHC3H3C2HC2PHCH2C2HC4HC3H3CHC5H3CH3C5HC3HC3HC6H2C2HC3HPC3HCHC2HCHCH2C2HC2H3CH2CHC5FeS2FeS2FeSFeS3FeS2FeS2FeSFeS3HS2HC6H4CH2CHC3H3C3H4C5H2C2HCHC6H4C2H3CHCHC3PC3FeCHSH3C8H3CHC2HCHC2HCH4CHC6PC10HC6H6CH4CH6PH2CHC2H4CH2C2HCHC3HCHC6PC18H20C3HCHC2HC3SC4HC2HCHCH2C3HFeH3CHC3H3CHC3H2CH2CH2CHCHC2FeS2FeS2FeSFeS3FeS2FeS2FeSFeS3FeS2FeS2H2C2H3C2H2C6H4CHCHC4HCHC8H5C3HC4H3CHC6PC10HC7H11C3H6PH2CHCH2CHCHC4H2CH2C2HC3H4CH2C5HCHC2HC2H2CH2C3HCHC3H2C4H2C3H2CH7CHC6HC6HCH3C4HC2HCH2CHC4H2C2H2PC3HCH3CH2CH2C5HCHPC2HC3HCH2CH2CH2C2H2CHSHC3FeS2FeS2FeSFeS3FeS2FeS2FeSFeS3CHSHS2C3HC7H5PC2H4C3H3C2HCHC5H3C6H5C2H3CH2C2H2CH4C2HC2H3C8H2CHCHCH2CHC2H2CH2PCHFeCH2C6H7CH4C2H3C2H3C9PHC4H2CH2CHCHCHC2H9CPCHCH5C3HC2H3C2HCHC2H2CHC2FeC7PC17HCHCH2CHCH2C4H3PC2HC5HFeS2FeS2FeSFeS3FeS2FeS2FeSFeS3FeS2HC2FeSCSHCHC2HC4HC2H2C7H4CHCH2C6H4C5H2C6PC2HC2HCHC2HC7H2CH3C2H2C3H7CH4C4HCH2C3HCHCHC2HC7HCHCH2C2H2C4HCHC2HCH3C2PC6HCH2C2H6CH2CHCHCH3C2H3C3HCHC2PH4C4H6CHC3HC2PC4H3CH2C5H2CHCFeS2FeS2FeSFeS3FeS2FeS2FeSFeS5HC2H4C2H4C4HC7H4C3HC7H4CHC3HC3HC3HC2HCHC2HCHC4PC18SCH18PC6HC2HCH2C5HSCH2CH2CHFeHC7H7CHCH6PC3H3C3HCFeC9HCH5CH2CH2CH2CH3C5H3CHC3HCHCHCPH5CH5CH2C2HFeS2FeS2FeSFeS3FeS2FeS2FeSFeS3FeS2FeS2CH3CHC2HC7H4CHC7H8C3H3CHC4H3C2H4CHC2HCHCH2CH4C3PHC4PCHC3H2CH4CHCH2C3H2CHC2H3C4HCHCHC2HC2HC3H2C3HCH4CHPC8HCHC7H13C6PC2HCH3C8H2CH3CHC3H3CHCHC4HC6H2CH3CHC4HCHC2HCHCH2CH3C2HFeS2FeS2FeSFeS3FeS2FeS2FeSFeS3C2SCSHCHC2HSH2C6H4C4H2C2H2C3HC7H5C2H2C6PC18H16CH4C3HCH2C2H2C3H2CPH2C2HC2HCH2CHC2H2PC3H3C2HC4H2CHC2HC2H3C3H2C2H2C4H4CH2CH2C3H3CHC4HPC3H2C2H2C2HC2HC5H5CH6C3HC4HCPC7H2CH2CHCHC2HC3H2CHC5SHC2PCH2FeHFeCHPHC2H3C3H2CFeS2FeS2FeSFeS3FeS2FeS2FeSFeS3FeS2FeS2C2HC4H2C6H4CHC4HC3H2C3H2C6H5CHCH4C5H4CH4CH2C8PC4HC6H3C2H8CHCH2C3H2C2HCHCHC2H2CHPCH2C5PC2HC11H13C3HCHC3H2CH7CHCHC2HCHCHC5PH2PH2CHCHC9HC2HCHCH2CH2CHC2H3C3HC4H4CH5CHC3H2CH2C9H2C2H3C6PH2C2FeS2FeS2FeSFeS3FeS2FeS2FeSFeS3HCSCSC2HC4HC6H4C3HCHCH2CHC2HC6H5C2H3C3H4C6H4CH3C2H2C2PCH4CHC2H4CH2CPCHCH2CH5C5HC2HCHC3HC3H4CHCFeHCH2C3HCH2CH3PCHC3H2CHC2H3CH3C6PC15HCHC2HPHC3H2C3HC2SCFeH2C4H3CHC5H4CH6C3HCHC2HCH2C2HCHC2HCHCHCHPC3HCHC3SC2H2C2HC2H4CH2CH2CHCHC
_chemical_formula_sum              "Fe160 S320 C2400 H1920 P80"
_cell_length_a       56.3222
_cell_length_b       60.2601
_cell_length_c       61.0343
_cell_angle_alpha    88.9238
_cell_angle_beta     89.9625
_cell_angle_gamma    92.3467

_space_group_name_H-M_alt    "P 1"
_space_group_IT_number       1

loop_
  _space_group_symop_operation_xyz
  'x, y, z'

loop_
  _atom_site_type_symbol
  _atom_site_label
  _atom_site_symmetry_multiplicity
  _atom_site_fract_x
  _atom_site_fract_y
  _atom_site_fract_z
  _atom_site_occupancy
  Fe  Fe1       1.0  0.37139  0.07171  0.07751  1.0000
  S   S1        1.0  0.39293  0.09460  0.05493  1.0000
  S   S2        1.0  0.38115  0.03636  0.06817  1.0000
  Fe  Fe2       1.0  0.34874  0.11200  0.09991  1.0000
  S   S3        1.0  0.36923  0.13677  0.07845  1.0000
  S   S4        1.0  0.32166  0.12123  0.12672  1.0000
  Fe  Fe3       1.0  0.36038  0.11384  0.05060  1.0000
  S   S5        1.0  0.34996  0.12751  0.01708  1.0000
  Fe  Fe4       1.0  0.40060  0.11532  0.08416  1.0000
  S   S6        1.0  0.43742  0.13180  0.08768  1.0000
  S   S7        1.0  0.33770  0.09003  0.07136  1.0000
  S   S8        1.0  0.38112  0.09166  0.10753  1.0000
  Fe  Fe5       1.0  0.09405  0.36389  0.05068  1.0000
  S   S9        1.0  0.07521  0.39485  0.05832  1.0000
  S   S10       1.0  0.08800  0.34692  0.01806  1.0000
  Fe  Fe6       1.0  0.11783  0.36050  0.09629  1.0000
  S   S11       1.0  0.10049  0.39176  0.10723  1.0000
  S   S12       1.0  0.14879  0.34324  0.11422  1.0000
  Fe  Fe7       1.0  0.06710  0.37820  0.09077  1.0000
  S   S13       1.0  0.03134  0.38499  0.10619  1.0000
  Fe  Fe8       1.0  0.10929  0.40647  0.07406  1.0000
  S   S14       1.0  0.12463  0.44124  0.06644  1.0000
  S   S15       1.0  0.08349  0.34587  0.08229  1.0000
  S   S16       1.0  0.12900  0.37661  0.06387  1.0000
  Fe  Fe9       1.0  0.25620  0.22414  0.19585  1.0000
  S   S17       1.0  0.21665  0.21784  0.20032  1.0000
  S   S18       1.0  0.28102  0.20985  0.16945  1.0000
  C   C1        1.0  0.19155  0.35891  0.18860  1.0000
  H   H1        1.0  0.12114  0.38359  0.00685  1.0000
  C   C2        1.0  0.31406  0.02584  0.01183  1.0000
  Fe  Fe10      1.0  0.21427  0.25521  0.20336  1.0000
  S   S19       1.0  0.18173  0.27253  0.18812  1.0000
  S   S20       1.0  0.25354  0.26163  0.19717  1.0000
  C   C3        1.0  0.11150  0.46483  0.07745  1.0000
  C   C4        1.0  0.09296  0.46275  0.09271  1.0000
  C   C5        1.0  0.01134  0.40632  0.04047  1.0000
  H   H2        1.0  0.08611  0.44641  0.09778  1.0000
  C   C6        1.0  0.99887  0.31021  0.14352  1.0000
  C   C7        1.0  0.15759  0.32252  0.13398  1.0000
  C   C8        1.0  0.14118  0.30854  0.14544  1.0000
  C   C9        1.0  0.14898  0.29324  0.16154  1.0000
  C   C10       1.0  0.17333  0.29117  0.16629  1.0000
  C   C11       1.0  0.18979  0.30467  0.15436  1.0000
  C   C12       1.0  0.18196  0.32026  0.13849  1.0000
  H   H3        1.0  0.12244  0.30959  0.14206  1.0000
  H   H4        1.0  0.13599  0.28291  0.17049  1.0000
  H   H5        1.0  0.20855  0.30346  0.15770  1.0000
  H   H6        1.0  0.19493  0.33079  0.12977  1.0000
  C   C13       1.0  0.00147  0.35823  0.08088  1.0000
  C   C14       1.0  0.00357  0.37609  0.09514  1.0000
  C   C15       1.0  0.03295  0.44179  0.04253  1.0000
  C   C16       1.0  0.02398  0.42582  0.00714  1.0000
  H   H7        1.0  0.01721  0.34998  0.07585  1.0000
  C   C17       1.0  0.02985  0.33344  0.03275  1.0000
  C   C18       1.0  0.46327  0.11620  0.08648  1.0000
  H   H8        1.0  0.09280  0.48398  0.02643  1.0000
  P   P1        1.0  0.32984  0.16975  0.23127  1.0000
  H   H9        1.0  0.44556  0.08483  0.09463  1.0000
  C   C19       1.0  0.09237  0.44953  0.01788  1.0000
  H   H10       1.0  0.43418  0.02183  0.08371  1.0000
  C   C20       1.0  0.33254  0.13696  0.19966  1.0000
  C   C21       1.0  0.22083  0.31443  0.00423  1.0000
  H   H11       1.0  0.38238  0.09243  0.00639  1.0000
  H   H12       1.0  0.13692  0.33708  0.03360  1.0000
  C   C22       1.0  0.31051  0.14622  0.13814  1.0000
  C   C23       1.0  0.29249  0.14444  0.15428  1.0000
  C   C24       1.0  0.28330  0.16349  0.16403  1.0000
  C   C25       1.0  0.29192  0.18486  0.15783  1.0000
  C   C26       1.0  0.31004  0.18663  0.14181  1.0000
  C   C27       1.0  0.31926  0.16757  0.13208  1.0000
  H   H13       1.0  0.28549  0.12814  0.15923  1.0000
  H   H14       1.0  0.26930  0.16160  0.17611  1.0000
  H   H15       1.0  0.31697  0.20294  0.13678  1.0000
  H   H16       1.0  0.33311  0.16943  0.11982  1.0000
  C   C28       1.0  0.37017  0.00972  0.07727  1.0000
  C   C29       1.0  0.18354  0.33833  0.19728  1.0000
  H   H17       1.0  0.34516  0.02134  0.10065  1.0000
  P   P2        1.0  0.46275  0.11237  0.00292  1.0000
  H   H18       1.0  0.20674  0.30188  0.00201  1.0000
  C   C30       1.0  0.10406  0.47982  0.99297  1.0000
  H   H19       1.0  0.18176  0.39054  0.17556  1.0000
  C   C31       1.0  0.37626  0.09997  0.99133  1.0000
  C   C32       1.0  0.44945  0.13414  0.01812  1.0000
  H   H20       1.0  0.02475  0.42724  0.98945  1.0000
  H   H21       1.0  0.08650  0.44368  0.03398  1.0000
  H   H22       1.0  0.03627  0.36864  0.03030  1.0000
  H   H23       1.0  0.06952  0.48011  0.11384  1.0000
  H   H24       1.0  0.45923  0.98860  0.00442  1.0000
  C   C33       1.0  0.10713  0.39893  0.21465  1.0000
  C   C34       1.0  0.48341  0.00507  0.11080  1.0000
  H   H25       1.0  0.45096  0.09305  0.04606  1.0000
  H   H26       1.0  0.41353  0.12050  0.01474  1.0000
  C   C35       1.0  0.34194  0.12750  0.18098  1.0000
  C   C36       1.0  0.16853  0.40787  0.01858  1.0000
  C   C37       1.0  0.46354  0.15132  0.02736  1.0000
  H   H27       1.0  0.45422  0.00339  0.05328  1.0000
  H   H28       1.0  0.24341  0.17114  0.21784  1.0000
  H   H29       1.0  0.04510  0.33106  0.04323  1.0000
  C   C38       1.0  0.21546  0.33575  0.01114  1.0000
  C   C39       1.0  0.36119  0.11783  0.99203  1.0000
  C   C40       1.0  0.30271  0.03331  0.99284  1.0000
  C   C41       1.0  0.07875  0.17058  0.23201  1.0000
  C   C42       1.0  0.99662  0.31820  0.01206  1.0000
  C   C43       1.0  0.17582  0.41351  0.03970  1.0000
  C   C44       1.0  0.46243  0.09336  0.09103  1.0000
  H   H30       1.0  0.32426  0.26357  0.22047  1.0000
  C   C45       1.0  0.09623  0.43432  0.00141  1.0000
  H   H31       1.0  0.01998  0.29861  0.03176  1.0000
  C   C46       1.0  0.43514  0.06060  0.04062  1.0000
  C   C47       1.0  0.45115  0.01428  0.08643  1.0000
  H   H32       1.0  0.36856  0.18381  0.20120  1.0000
  C   C48       1.0  0.33398  0.06189  0.01539  1.0000
  C   C49       1.0  0.03389  0.44310  0.01963  1.0000
  C   C50       1.0  0.32274  0.06935  0.99636  1.0000
  H   H33       1.0  0.41818  0.02986  0.03053  1.0000
  C   C51       1.0  0.45299  0.16784  0.03938  1.0000
  C   C52       1.0  0.42834  0.16743  0.04213  1.0000
  C   C53       1.0  0.41422  0.15047  0.03293  1.0000
  C   C54       1.0  0.42474  0.13376  0.02123  1.0000
  C   C55       1.0  0.36099  0.16807  0.19574  1.0000
  C   C56       1.0  0.35256  0.00692  0.09335  1.0000
  H   H34       1.0  0.28819  0.10353  0.98995  1.0000
  H   H35       1.0  0.42018  0.17994  0.05182  1.0000
  H   H36       1.0  0.39511  0.15001  0.03520  1.0000
  C   C57       1.0  0.18975  0.37635  0.04553  1.0000
  C   C58       1.0  0.13514  0.43744  0.22215  1.0000
  C   C59       1.0  0.06008  0.37833  0.15763  1.0000
  C   C60       1.0  0.06060  0.35783  0.14735  1.0000
  C   C61       1.0  0.08194  0.34695  0.14585  1.0000
  C   C62       1.0  0.10270  0.35647  0.15480  1.0000
  C   C63       1.0  0.10221  0.37667  0.16578  1.0000
  C   C64       1.0  0.08084  0.38785  0.16667  1.0000
  P   P3        1.0  0.12954  0.38985  0.17528  1.0000
  C   C65       1.0  0.15069  0.36965  0.18383  1.0000
  C   C66       1.0  0.14011  0.40712  0.15257  1.0000
  C   C67       1.0  0.15548  0.39869  0.13696  1.0000
  C   C68       1.0  0.16259  0.41162  0.11869  1.0000
  C   C69       1.0  0.15423  0.43298  0.11575  1.0000
  C   C70       1.0  0.13841  0.44129  0.13089  1.0000
  C   C71       1.0  0.13122  0.42836  0.14917  1.0000
  C   C72       1.0  0.14282  0.34919  0.19323  1.0000
  C   C73       1.0  0.12450  0.40601  0.19926  1.0000
  C   C74       1.0  0.42934  0.05052  0.00278  1.0000
  H   H37       1.0  0.99470  0.32101  0.10996  1.0000
  H   H38       1.0  0.26202  0.05949  0.00206  1.0000
  C   C75       1.0  0.15003  0.32264  0.98816  1.0000
  H   H39       1.0  0.07068  0.20227  0.21757  1.0000
  H   H40       1.0  0.04373  0.38722  0.15773  1.0000
  H   H41       1.0  0.04464  0.35088  0.13974  1.0000
  H   H42       1.0  0.08263  0.33152  0.13707  1.0000
  H   H43       1.0  0.11929  0.34843  0.15260  1.0000
  H   H44       1.0  0.08032  0.40415  0.17376  1.0000
  H   H45       1.0  0.16151  0.38190  0.13853  1.0000
  H   H46       1.0  0.17404  0.40478  0.10652  1.0000
  H   H47       1.0  0.15940  0.44286  0.10137  1.0000
  H   H48       1.0  0.13127  0.45754  0.12806  1.0000
  H   H49       1.0  0.11834  0.43477  0.16034  1.0000
  H   H50       1.0  0.45269  0.02279  0.12050  1.0000
  H   H51       1.0  0.33824  0.03454  0.03807  1.0000
  H   H52       1.0  0.14283  0.31369  0.00231  1.0000
  H   H53       1.0  0.38436  0.16721  0.16775  1.0000
  H   H54       1.0  0.04246  0.45747  0.01157  1.0000
  H   H55       1.0  0.15284  0.43044  0.19204  1.0000
  C   C76       1.0  0.34448  0.98537  0.10004  1.0000
  H   H56       1.0  0.42267  0.03891  0.99072  1.0000
  C   C77       1.0  0.10351  0.41128  0.23345  1.0000
  H   H57       1.0  0.32115  0.23915  0.18822  1.0000
  H   H58       1.0  0.48266  0.15187  0.02571  1.0000
  H   H59       1.0  0.09290  0.41673  0.00468  1.0000
  C   C78       1.0  0.32654  0.24586  0.22245  1.0000
  H   H60       1.0  0.19612  0.32584  0.20175  1.0000
  H   H61       1.0  0.32432  0.19883  0.19273  1.0000
  H   H62       1.0  0.17251  0.42986  0.04589  1.0000
  C   C79       1.0  0.46154  0.01474  0.10721  1.0000
  C   C80       1.0  0.09594  0.47228  0.01358  1.0000
  H   H63       1.0  0.34601  0.07307  0.02417  1.0000
  H   H64       1.0  0.43256  0.05700  0.05795  1.0000
  C   C81       1.0  0.18233  0.37050  0.02436  1.0000
  H   H65       1.0  0.48283  0.06416  0.09594  1.0000
  C   C82       1.0  0.33002  0.19967  0.22783  1.0000
  C   C83       1.0  0.34191  0.15740  0.20713  1.0000
  C   C84       1.0  0.24440  0.30912  0.00046  1.0000
  C   C85       1.0  0.32960  0.04017  0.02319  1.0000
  C   C86       1.0  0.18668  0.39782  0.05307  1.0000
  C   C87       1.0  0.17243  0.32519  0.03785  1.0000
  C   C88       1.0  0.02154  0.42345  0.05292  1.0000
  C   C89       1.0  0.11421  0.37673  0.99179  1.0000
  H   H66       1.0  0.31053  0.00904  0.01791  1.0000
  C   C90       1.0  0.26275  0.32510  0.00345  1.0000
  H   H67       1.0  0.16581  0.38248  0.99465  1.0000
  C   C91       1.0  0.43981  0.07097  0.99599  1.0000
  C   C92       1.0  0.14831  0.32658  0.04321  1.0000
  C   C93       1.0  0.13875  0.31483  0.06133  1.0000
  C   C94       1.0  0.15331  0.30210  0.07464  1.0000
  C   C95       1.0  0.17743  0.30090  0.06968  1.0000
  C   C96       1.0  0.18701  0.31239  0.05138  1.0000
  H   H68       1.0  0.31768  0.12844  0.20788  1.0000
  C   C97       1.0  0.01306  0.40706  0.01752  1.0000
  H   H69       1.0  0.21044  0.36251  0.18663  1.0000
  H   H70       1.0  0.09646  0.38382  0.21216  1.0000
  C   C98       1.0  0.17000  0.33729  0.98976  1.0000
  C   C99       1.0  0.23395  0.35179  0.01394  1.0000
  H   H71       1.0  0.36713  0.13140  0.15452  1.0000
  C   C100      1.0  0.02467  0.35484  0.02545  1.0000
  C   C101      1.0  0.00507  0.35810  0.01176  1.0000
  C   C102      1.0  0.44830  0.08628  0.01147  1.0000
  H   H72       1.0  0.01191  0.48270  0.08955  1.0000
  C   C103      1.0  0.46247  0.00383  0.06929  1.0000
  C   C104      1.0  0.48531  0.12710  0.08184  1.0000
  C   C105      1.0  0.28116  0.16971  0.22305  1.0000
  C   C106      1.0  0.32658  0.20918  0.20696  1.0000
  P   P4        1.0  0.18488  0.34219  0.01562  1.0000
  H   H73       1.0  0.12016  0.31611  0.06542  1.0000
  H   H74       1.0  0.14605  0.29375  0.08920  1.0000
  H   H75       1.0  0.18877  0.29150  0.08043  1.0000
  H   H76       1.0  0.20588  0.31174  0.04837  1.0000
  H   H77       1.0  0.33412  0.11214  0.17473  1.0000
  H   H78       1.0  0.27177  0.35880  0.01244  1.0000
  H   H79       1.0  0.04102  0.45497  0.05224  1.0000
  H   H80       1.0  0.19198  0.40209  0.06955  1.0000
  H   H81       1.0  0.19736  0.36415  0.05644  1.0000
  C   C107      1.0  0.37016  0.15865  0.17691  1.0000
  H   H82       1.0  0.15958  0.41988  0.00845  1.0000
  C   C108      1.0  0.37957  0.99076  0.06796  1.0000
  C   C109      1.0  0.17522  0.37463  0.18212  1.0000
  H   H83       1.0  0.12405  0.34511  0.19524  1.0000
  C   C110      1.0  0.44550  0.08107  0.03384  1.0000
  C   C111      1.0  0.36060  0.13840  0.16951  1.0000
  H   H84       1.0  0.32654  0.08613  0.99058  1.0000
  H   H85       1.0  0.09021  0.16614  0.21864  1.0000
  C   C112      1.0  0.25752  0.34642  0.01014  1.0000
  H   H86       1.0  0.46394  0.18072  0.04696  1.0000
  H   H87       1.0  0.02067  0.42236  0.07069  1.0000
  C   C113      1.0  0.32483  0.23214  0.20431  1.0000
  H   H88       1.0  0.14610  0.45228  0.22511  1.0000
  C   C114      1.0  0.01579  0.31515  0.02617  1.0000
  C   C115      1.0  0.42696  0.04535  0.02512  1.0000
  H   H89       1.0  0.39316  0.99269  0.05547  1.0000
  H   H90       1.0  0.23031  0.36842  0.01901  1.0000
  H   H91       1.0  0.40323  0.98469  0.11648  1.0000
  C   C116      1.0  0.17197  0.38653  0.01085  1.0000
  C   C117      1.0  0.13880  0.42511  0.20334  1.0000
  C   C118      1.0  0.15921  0.33355  0.19975  1.0000
  C   C119      1.0  0.25745  0.16274  0.22641  1.0000
  H   H92       1.0  0.28512  0.18316  0.21146  1.0000
  C   C120      1.0  0.29939  0.15950  0.23461  1.0000
  C   C121      1.0  0.99143  0.33957  0.00468  1.0000
  H   H93       1.0  0.21890  0.05525  0.00847  1.0000
  H   H94       1.0  0.38039  0.00919  0.00835  1.0000
  H   H95       1.0  0.01784  0.30828  0.14201  1.0000
  S   S21       1.0  0.26325  0.22171  0.23207  1.0000
  H   H96       1.0  0.35078  0.98953  0.02418  1.0000
  C   C122      1.0  0.37540  0.01057  0.99126  1.0000
  H   H97       1.0  0.00211  0.39246  0.04876  1.0000
  H   H98       1.0  0.99752  0.30002  0.17751  1.0000
  C   C123      1.0  0.06774  0.19095  0.23141  1.0000
  H   H99       1.0  0.37433  0.04624  0.99233  1.0000
  P   P5        1.0  0.99820  0.38551  0.00186  1.0000
  C   C124      1.0  0.22564  0.05666  0.99184  1.0000
  H   H100      1.0  0.48604  0.14475  0.07820  1.0000
  H   H101      1.0  0.15313  0.31740  0.20618  1.0000
  C   C125      1.0  0.48356  0.08171  0.09177  1.0000
  H   H102      1.0  0.24848  0.29255  0.99539  1.0000
  C   C126      1.0  0.48429  0.99400  0.07288  1.0000
  C   C127      1.0  0.25014  0.05889  0.98812  1.0000
  H   H103      1.0  0.99710  0.47934  0.02595  1.0000
  C   C128      1.0  0.09723  0.35920  0.99272  1.0000
  Fe  Fe11      1.0  0.25842  0.25856  0.23403  1.0000
  C   C129      1.0  0.08359  0.48187  0.10181  1.0000
  H   H104      1.0  0.41980  0.31782  0.22028  1.0000
  C   C130      1.0  0.98741  0.30560  0.16351  1.0000
  H   H105      1.0  0.28105  0.32094  0.00064  1.0000
  H   H106      1.0  0.39916  0.28071  0.22306  1.0000
  Fe  Fe12      1.0  0.39606  0.36958  0.37178  1.0000
  S   S22       1.0  0.36260  0.35162  0.38442  1.0000
  S   S23       1.0  0.43166  0.35557  0.38115  1.0000
  Fe  Fe13      1.0  0.36911  0.40853  0.35434  1.0000
  S   S24       1.0  0.33392  0.39373  0.36569  1.0000
  S   S25       1.0  0.37494  0.44170  0.33644  1.0000
  Fe  Fe14      1.0  0.35327  0.38500  0.39666  1.0000
  S   S26       1.0  0.33543  0.39140  0.42914  1.0000
  Fe  Fe15      1.0  0.34560  0.36119  0.35215  1.0000
  S   S27       1.0  0.31622  0.33807  0.33667  1.0000
  S   S28       1.0  0.38751  0.40226  0.38625  1.0000
  S   S29       1.0  0.37998  0.37676  0.33867  1.0000
  Fe  Fe16      1.0  0.12029  0.09603  0.39824  1.0000
  S   S30       1.0  0.08872  0.07426  0.38904  1.0000
  S   S31       1.0  0.13588  0.08865  0.43202  1.0000
  Fe  Fe17      1.0  0.12126  0.12128  0.35335  1.0000
  S   S32       1.0  0.08902  0.10104  0.34204  1.0000
  S   S33       1.0  0.13476  0.15189  0.33236  1.0000
  Fe  Fe18      1.0  0.07371  0.10537  0.37540  1.0000
  S   S34       1.0  0.03624  0.11270  0.38597  1.0000
  Fe  Fe19      1.0  0.10674  0.07131  0.35666  1.0000
  S   S35       1.0  0.10447  0.03873  0.33814  1.0000
  S   S36       1.0  0.10436  0.12760  0.38636  1.0000
  S   S37       1.0  0.13989  0.09108  0.36629  1.0000
  H   H107      1.0  0.44297  0.31425  0.34759  1.0000
  S   S38       1.0  0.21145  0.18741  0.25973  1.0000
  H   H108      1.0  0.00943  0.09236  0.42776  1.0000
  C   C131      1.0  0.11191  0.01298  0.35040  1.0000
  C   C132      1.0  0.08941  0.99657  0.45614  1.0000
  H   H109      1.0  0.24327  0.43728  0.31417  1.0000
  H   H110      1.0  0.19999  0.42901  0.31488  1.0000
  H   H111      1.0  0.12154  0.02640  0.38172  1.0000
  C   C133      1.0  0.15583  0.16092  0.31159  1.0000
  C   C134      1.0  0.15370  0.18203  0.30153  1.0000
  C   C135      1.0  0.17024  0.19029  0.28556  1.0000
  C   C136      1.0  0.18949  0.17774  0.27950  1.0000
  C   C137      1.0  0.19161  0.15662  0.28955  1.0000
  C   C138      1.0  0.17493  0.14823  0.30536  1.0000
  H   H112      1.0  0.13912  0.19211  0.30612  1.0000
  H   H113      1.0  0.16804  0.20635  0.27785  1.0000
  H   H114      1.0  0.20632  0.14663  0.28506  1.0000
  H   H115      1.0  0.17701  0.13204  0.31290  1.0000
  H   H116      1.0  0.40320  0.46351  0.43640  1.0000
  C   C139      1.0  0.01042  0.10749  0.37016  1.0000
  C   C140      1.0  0.01107  0.09799  0.34944  1.0000
  C   C141      1.0  0.03328  0.03903  0.36324  1.0000
  H   H117      1.0  0.02790  0.09382  0.34238  1.0000
  C   C142      1.0  0.10954  0.11627  0.45782  1.0000
  C   C143      1.0  0.12459  0.09839  0.45713  1.0000
  H   H118      1.0  0.37844  0.15388  0.23639  1.0000
  H   H119      1.0  0.10419  0.12431  0.44271  1.0000
  H   H120      1.0  0.46041  0.44571  0.38071  1.0000
  C   C144      1.0  0.35716  0.46594  0.37041  1.0000
  C   C145      1.0  0.36785  0.46645  0.34972  1.0000
  H   H121      1.0  0.41399  0.30650  0.37693  1.0000
  H   H122      1.0  0.35352  0.45021  0.37883  1.0000
  H   H123      1.0  0.08743  0.18272  0.29885  1.0000
  C   C146      1.0  0.30863  0.32251  0.31252  1.0000
  C   C147      1.0  0.32444  0.32016  0.29504  1.0000
  C   C148      1.0  0.31774  0.30711  0.27677  1.0000
  C   C149      1.0  0.29506  0.29633  0.27540  1.0000
  C   C150      1.0  0.27917  0.29887  0.29278  1.0000
  C   C151      1.0  0.28592  0.31184  0.31108  1.0000
  H   H124      1.0  0.34182  0.32841  0.29554  1.0000
  H   H125      1.0  0.33021  0.30549  0.26347  1.0000
  H   H126      1.0  0.26162  0.29094  0.29207  1.0000
  H   H127      1.0  0.27329  0.31378  0.32415  1.0000
  H   H128      1.0  0.05230  0.98857  0.39805  1.0000
  C   C152      1.0  0.33753  0.38802  0.47397  1.0000
  C   C153      1.0  0.34965  0.38513  0.45416  1.0000
  C   C154      1.0  0.37257  0.37709  0.45468  1.0000
  C   C155      1.0  0.00665  0.10267  0.46153  1.0000
  H   H129      1.0  0.31973  0.39411  0.47368  1.0000
  H   H130      1.0  0.38207  0.37476  0.43953  1.0000
  C   C156      1.0  0.46116  0.37695  0.35020  1.0000
  C   C157      1.0  0.45939  0.36328  0.36896  1.0000
  H   H131      1.0  0.40907  0.39753  0.29638  1.0000
  H   H132      1.0  0.44531  0.38363  0.34311  1.0000
  H   H133      1.0  0.02286  0.04179  0.46101  1.0000
  C   C158      1.0  0.38362  0.30647  0.35549  1.0000
  C   C159      1.0  0.37577  0.30951  0.33401  1.0000
  C   C160      1.0  0.39218  0.31398  0.31713  1.0000
  C   C161      1.0  0.41669  0.31519  0.32159  1.0000
  C   C162      1.0  0.41134  0.47246  0.40304  1.0000
  C   C163      1.0  0.04933  0.18211  0.26656  1.0000
  H   H134      1.0  0.37085  0.30343  0.36859  1.0000
  H   H135      1.0  0.35689  0.30873  0.33053  1.0000
  H   H136      1.0  0.38565  0.31664  0.30064  1.0000
  C   C164      1.0  0.37457  0.15148  0.29190  1.0000
  H   H137      1.0  0.10736  0.14089  0.28942  1.0000
  H   H138      1.0  0.13403  0.10958  0.28953  1.0000
  H   H139      1.0  0.34745  0.22873  0.41928  1.0000
  H   H140      1.0  0.33093  0.24738  0.25733  1.0000
  C   C165      1.0  0.00085  0.16255  0.41517  1.0000
  H   H141      1.0  0.07191  0.08382  0.46620  1.0000
  H   H142      1.0  0.00368  0.99415  0.34202  1.0000
  C   C166      1.0  0.42437  0.31251  0.34333  1.0000
  H   H143      1.0  0.34064  0.26873  0.42285  1.0000
  C   C167      1.0  0.36957  0.31004  0.45619  1.0000
  C   C168      1.0  0.48345  0.38130  0.34016  1.0000
  C   C169      1.0  0.02295  0.02531  0.45418  1.0000
  C   C170      1.0  0.25174  0.14524  0.24101  1.0000
  C   C171      1.0  0.24455  0.45078  0.34682  1.0000
  C   C172      1.0  0.40008  0.32528  0.43134  1.0000
  C   C173      1.0  0.37700  0.31655  0.43497  1.0000
  C   C174      1.0  0.37063  0.15529  0.25248  1.0000
  H   H144      1.0  0.01437  0.15501  0.31809  1.0000
  C   C175      1.0  0.09248  0.03948  0.43792  1.0000
  H   H145      1.0  0.08364  0.14019  0.24983  1.0000
  C   C176      1.0  0.31892  0.30785  0.44114  1.0000
  C   C177      1.0  0.29975  0.29405  0.43425  1.0000
  C   C178      1.0  0.28330  0.30200  0.41914  1.0000
  C   C179      1.0  0.28571  0.32385  0.41107  1.0000
  C   C180      1.0  0.30435  0.33782  0.41832  1.0000
  C   C181      1.0  0.32074  0.32996  0.43350  1.0000
  H   H146      1.0  0.26536  0.12040  0.26285  1.0000
  C   C182      1.0  0.13138  0.08821  0.47697  1.0000
  C   C183      1.0  0.29374  0.48225  0.40619  1.0000
  H   H147      1.0  0.10003  0.05052  0.47038  1.0000
  C   C184      1.0  0.46528  0.38342  0.28381  1.0000
  H   H148      1.0  0.01766  0.17073  0.41060  1.0000
  C   C185      1.0  0.09356  0.01488  0.46977  1.0000
  H   H149      1.0  0.41456  0.45555  0.39845  1.0000
  H   H150      1.0  0.40556  0.33077  0.41503  1.0000
  H   H151      1.0  0.36504  0.31494  0.42118  1.0000
  C   C186      1.0  0.02457  0.13551  0.29025  1.0000
  C   C187      1.0  0.10560  0.08448  0.29004  1.0000
  C   C188      1.0  0.08100  0.08039  0.29076  1.0000
  H   H152      1.0  0.29739  0.27723  0.44064  1.0000
  H   H153      1.0  0.26858  0.29130  0.41381  1.0000
  H   H154      1.0  0.27305  0.33009  0.39935  1.0000
  H   H155      1.0  0.30607  0.35486  0.41231  1.0000
  H   H156      1.0  0.33477  0.34122  0.43927  1.0000
  H   H157      1.0  0.33947  0.42346  0.30254  1.0000
  C   C189      1.0  0.00007  0.14639  0.43195  1.0000
  H   H158      1.0  0.32138  0.38517  0.30528  1.0000
  C   C190      1.0  0.33027  0.23664  0.24327  1.0000
  H   H159      1.0  0.03349  0.00957  0.48440  1.0000
  H   H160      1.0  0.13014  0.98973  0.39856  1.0000
  H   H161      1.0  0.38506  0.14720  0.30613  1.0000
  C   C191      1.0  0.23316  0.44116  0.32863  1.0000
  C   C192      1.0  0.26091  0.18530  0.29214  1.0000
  C   C193      1.0  0.27670  0.19987  0.28086  1.0000
  C   C194      1.0  0.27752  0.22249  0.28558  1.0000
  C   C195      1.0  0.26245  0.23055  0.30148  1.0000
  C   C196      1.0  0.24678  0.21595  0.31321  1.0000
  C   C197      1.0  0.24594  0.19327  0.30822  1.0000
  P   P6        1.0  0.22724  0.22670  0.33361  1.0000
  C   C198      1.0  0.20057  0.23644  0.32085  1.0000
  C   C199      1.0  0.21861  0.20500  0.35324  1.0000
  C   C200      1.0  0.20076  0.18912  0.34771  1.0000
  C   C201      1.0  0.19337  0.17250  0.36277  1.0000
  C   C202      1.0  0.20375  0.17156  0.38352  1.0000
  C   C203      1.0  0.22157  0.18725  0.38919  1.0000
  C   C204      1.0  0.22899  0.20395  0.37413  1.0000
  C   C205      1.0  0.17967  0.23778  0.33327  1.0000
  C   C206      1.0  0.15889  0.24520  0.32354  1.0000
  C   C207      1.0  0.15889  0.25158  0.30142  1.0000
  C   C208      1.0  0.17967  0.25056  0.28904  1.0000
  C   C209      1.0  0.20043  0.24291  0.29865  1.0000
  C   C210      1.0  0.24337  0.24940  0.34670  1.0000
  C   C211      1.0  0.26745  0.24732  0.35210  1.0000
  C   C212      1.0  0.28087  0.26552  0.35997  1.0000
  C   C213      1.0  0.27033  0.28586  0.36268  1.0000
  C   C214      1.0  0.24624  0.28793  0.35790  1.0000
  C   C215      1.0  0.23279  0.26980  0.34988  1.0000
  H   H162      1.0  0.25934  0.16800  0.28764  1.0000
  H   H163      1.0  0.28739  0.19384  0.26769  1.0000
  H   H164      1.0  0.28904  0.23400  0.27622  1.0000
  H   H165      1.0  0.26278  0.24826  0.30427  1.0000
  H   H166      1.0  0.23332  0.18174  0.31613  1.0000
  H   H167      1.0  0.19248  0.18959  0.33169  1.0000
  H   H168      1.0  0.17947  0.16039  0.35834  1.0000
  H   H169      1.0  0.19788  0.15867  0.39518  1.0000
  H   H170      1.0  0.22951  0.18650  0.40533  1.0000
  H   H171      1.0  0.24265  0.21600  0.37893  1.0000
  H   H172      1.0  0.17934  0.23291  0.35044  1.0000
  H   H173      1.0  0.14274  0.24581  0.33311  1.0000
  C   C216      1.0  0.00852  0.14371  0.30548  1.0000
  H   H174      1.0  0.17952  0.25523  0.27181  1.0000
  H   H175      1.0  0.21617  0.24178  0.28862  1.0000
  H   H176      1.0  0.27604  0.23182  0.34950  1.0000
  H   H177      1.0  0.29963  0.26408  0.36332  1.0000
  H   H178      1.0  0.28103  0.30021  0.36786  1.0000
  H   H179      1.0  0.23819  0.30382  0.35970  1.0000
  H   H180      1.0  0.21438  0.27200  0.34561  1.0000
  C   C217      1.0  0.19525  0.44156  0.34735  1.0000
  H   H181      1.0  0.35994  0.46563  0.44543  1.0000
  C   C218      1.0  0.05364  0.08871  0.46501  1.0000
  C   C219      1.0  0.01471  0.04809  0.37482  1.0000
  H   H182      1.0  0.01784  0.06352  0.38341  1.0000
  C   C220      1.0  0.01581  0.12183  0.27345  1.0000
  C   C221      1.0  0.08811  0.02128  0.42443  1.0000
  C   C222      1.0  0.28688  0.45957  0.37404  1.0000
  P   P7        1.0  0.27629  0.45669  0.34621  1.0000
  C   C223      1.0  0.34907  0.25528  0.47672  1.0000
  C   C224      1.0  0.40441  0.47701  0.42448  1.0000
  C   C225      1.0  0.38414  0.14984  0.27089  1.0000
  C   C226      1.0  0.01795  0.09325  0.44357  1.0000
  H   H183      1.0  0.08594  0.18697  0.36881  1.0000
  H   H184      1.0  0.41342  0.27800  0.29211  1.0000
  C   C227      1.0  0.04127  0.08628  0.44534  1.0000
  C   C228      1.0  0.31192  0.43795  0.32138  1.0000
  H   H185      1.0  0.47894  0.34408  0.39243  1.0000
  P   P8        1.0  0.43780  0.32105  0.29963  1.0000
  C   C229      1.0  0.06420  0.16048  0.35520  1.0000
  H   H186      1.0  0.34404  0.15995  0.31082  1.0000
  C   C230      1.0  0.42165  0.36423  0.29760  1.0000
  H   H187      1.0  0.11461  0.44016  0.25172  1.0000
  H   H188      1.0  0.47812  0.35046  0.28495  1.0000
  H   H189      1.0  0.02771  0.11595  0.26108  1.0000
  P   P9        1.0  0.05589  0.14349  0.29093  1.0000
  C   C231      1.0  0.29177  0.39480  0.32473  1.0000
  C   C232      1.0  0.42897  0.46667  0.31614  1.0000
  C   C233      1.0  0.02905  0.00720  0.46733  1.0000
  C   C234      1.0  0.31269  0.39886  0.31277  1.0000
  C   C235      1.0  0.46633  0.31015  0.30672  1.0000
  H   H190      1.0  0.47572  0.33681  0.32873  1.0000
  H   H191      1.0  0.39612  0.26086  0.25897  1.0000
  C   C236      1.0  0.09547  0.03629  0.46040  1.0000
  C   C237      1.0  0.47409  0.29054  0.29745  1.0000
  C   C238      1.0  0.47258  0.41808  0.39957  1.0000
  C   C239      1.0  0.48015  0.35467  0.37793  1.0000
  H   H192      1.0  0.01226  0.99874  0.40636  1.0000
  H   H193      1.0  0.40072  0.36524  0.47518  1.0000
  C   C240      1.0  0.35148  0.15865  0.29453  1.0000
  H   H194      1.0  0.11739  0.07071  0.29091  1.0000
  C   C241      1.0  0.06569  0.09813  0.29078  1.0000
  H   H195      1.0  0.08997  0.40582  0.24520  1.0000
  H   H196      1.0  0.09456  0.05609  0.43099  1.0000
  H   H197      1.0  0.48229  0.39086  0.27868  1.0000
  H   H198      1.0  0.43389  0.33409  0.44588  1.0000
  H   H199      1.0  0.14307  0.07444  0.47663  1.0000
  H   H200      1.0  0.30939  0.42912  0.41627  1.0000
  C   C242      1.0  0.45816  0.44441  0.33427  1.0000
  C   C243      1.0  0.11743  0.43059  0.23715  1.0000
  C   C244      1.0  0.09974  0.12408  0.28926  1.0000
  C   C245      1.0  0.40521  0.27704  0.25778  1.0000
  C   C246      1.0  0.01718  0.00088  0.42337  1.0000
  C   C247      1.0  0.08689  0.99981  0.43352  1.0000
  H   H201      1.0  0.01233  0.03624  0.42203  1.0000
  C   C248      1.0  0.11496  0.10632  0.28930  1.0000
  H   H202      1.0  0.04337  0.01322  0.34173  1.0000
  C   C249      1.0  0.29069  0.43409  0.33317  1.0000
  C   C250      1.0  0.01699  0.02215  0.43221  1.0000
  H   H203      1.0  0.08641  0.02381  0.40688  1.0000
  H   H204      1.0  0.46302  0.28123  0.28613  1.0000
  C   C251      1.0  0.40906  0.32005  0.46980  1.0000
  C   C252      1.0  0.33201  0.21364  0.24600  1.0000
  H   H205      1.0  0.18258  0.03226  0.47799  1.0000
  S   S39       1.0  0.28781  0.27995  0.25174  1.0000
  C   C253      1.0  0.07962  0.17920  0.35394  1.0000
  C   C254      1.0  0.34730  0.16229  0.25496  1.0000
  H   H206      1.0  0.23916  0.46346  0.37942  1.0000
  C   C255      1.0  0.41498  0.28683  0.27651  1.0000
  C   C256      1.0  0.38311  0.37170  0.47487  1.0000
  H   H207      1.0  0.10409  0.99445  0.32121  1.0000
  C   C257      1.0  0.02914  0.01964  0.35144  1.0000
  C   C258      1.0  0.44596  0.39681  0.28711  1.0000
  H   H208      1.0  0.14277  0.25714  0.29378  1.0000
  C   C259      1.0  0.20863  0.43652  0.32894  1.0000
  C   C260      1.0  0.06426  0.15815  0.31549  1.0000
  C   C261      1.0  0.32281  0.42040  0.31120  1.0000
  C   C262      1.0  0.42638  0.30800  0.27514  1.0000
  H   H209      1.0  0.28441  0.37794  0.32645  1.0000
  H   H210      1.0  0.04573  0.13471  0.33751  1.0000
  H   H211      1.0  0.29588  0.42512  0.37818  1.0000
  H   H212      1.0  0.10044  0.20117  0.33261  1.0000
  C   C263      1.0  0.33792  0.16410  0.27617  1.0000
  H   H213      1.0  0.32007  0.16966  0.27852  1.0000
  H   H214      1.0  0.42507  0.43128  0.32116  1.0000
  C   C264      1.0  0.30280  0.44335  0.40742  1.0000
  C   C265      1.0  0.34760  0.23608  0.43535  1.0000
  H   H215      1.0  0.05009  0.07984  0.43113  1.0000
  H   H216      1.0  0.46375  0.42818  0.33959  1.0000
  C   C266      1.0  0.20641  0.45127  0.36546  1.0000
  C   C267      1.0  0.00660  0.00895  0.35162  1.0000
  H   H217      1.0  0.14363  0.01291  0.47274  1.0000
  H   H218      1.0  0.32043  0.45436  0.32030  1.0000
  H   H219      1.0  0.45545  0.41452  0.40727  1.0000
  C   C268      1.0  0.42412  0.38719  0.29389  1.0000
  C   C269      1.0  0.08763  0.18729  0.33354  1.0000
  H   H220      1.0  0.05072  0.04739  0.36282  1.0000
  C   C270      1.0  0.47231  0.46362  0.33836  1.0000
  C   C271      1.0  0.06061  0.16177  0.26743  1.0000
  C   C272      1.0  0.08013  0.17675  0.31438  1.0000
  C   C273      1.0  0.10183  0.12414  0.47815  1.0000
  H   H221      1.0  0.43703  0.33530  0.25314  1.0000
  C   C274      1.0  0.30206  0.46385  0.41767  1.0000
  C   C275      1.0  0.07497  0.12015  0.28976  1.0000
  C   C276      1.0  0.02964  0.98600  0.45847  1.0000
  H   H222      1.0  0.44793  0.41462  0.28442  1.0000
  C   C277      1.0  0.41609  0.32710  0.44874  1.0000
  C   C278      1.0  0.11935  0.01148  0.37222  1.0000
  C   C279      1.0  0.05689  0.14974  0.33611  1.0000
  H   H223      1.0  0.40456  0.35706  0.30259  1.0000
  C   C280      1.0  0.44110  0.35073  0.29487  1.0000
  C   C281      1.0  0.23095  0.45591  0.36521  1.0000
  H   H224      1.0  0.33428  0.20692  0.26233  1.0000
  H   H225      1.0  0.26506  0.40866  0.34473  1.0000
  H   H226      1.0  0.01639  0.14251  0.44029  1.0000
  C   C282      1.0  0.35455  0.44612  0.47487  1.0000
  H   H227      1.0  0.17624  0.43795  0.34760  1.0000
  H   H228      1.0  0.40206  0.14429  0.26883  1.0000
  C   C283      1.0  0.48475  0.42112  0.47066  1.0000
  C   C284      1.0  0.29520  0.44117  0.38572  1.0000
  C   C285      1.0  0.10971  0.99345  0.33813  1.0000
  H   H229      1.0  0.06839  0.98776  0.36106  1.0000
  H   H230      1.0  0.08477  0.98561  0.42298  1.0000
  H   H231      1.0  0.44706  0.41504  0.46619  1.0000
  C   C286      1.0  0.29361  0.14124  0.24857  1.0000
  C   C287      1.0  0.28090  0.41228  0.33505  1.0000
  C   C288      1.0  0.47540  0.43554  0.38425  1.0000
  H   H232      1.0  0.05844  0.15389  0.37105  1.0000
  C   C289      1.0  0.40692  0.28822  0.23753  1.0000
  H   H233      1.0  0.30737  0.13235  0.25689  1.0000
  C   C290      1.0  0.46079  0.42315  0.47602  1.0000
  H   H234      1.0  0.09054  0.13823  0.47850  1.0000
  H   H235      1.0  0.30818  0.46551  0.43441  1.0000
  C   C291      1.0  0.35312  0.23267  0.47458  1.0000
  C   C292      1.0  0.99167  0.11541  0.27266  1.0000
  H   H236      1.0  0.04683  0.09451  0.29253  1.0000
  C   C293      1.0  0.36409  0.46426  0.46273  1.0000
  C   C294      1.0  0.43641  0.44601  0.32351  1.0000
  H   H237      1.0  0.42138  0.32168  0.48337  1.0000
  H   H238      1.0  0.24911  0.48231  0.31342  1.0000
  P   P10       1.0  0.34013  0.29775  0.46071  1.0000
  C   C295      1.0  0.34355  0.25870  0.43745  1.0000
  C   C296      1.0  0.38593  0.31145  0.47352  1.0000
  H   H239      1.0  0.35556  0.20556  0.45227  1.0000
  C   C297      1.0  0.42826  0.31902  0.25470  1.0000
  C   C298      1.0  0.26984  0.13427  0.25186  1.0000
  C   C299      1.0  0.37856  0.48054  0.47292  1.0000
  H   H240      1.0  0.19604  0.45522  0.37973  1.0000
  C   C300      1.0  0.34359  0.26830  0.45823  1.0000
  C   C301      1.0  0.35225  0.22305  0.45392  1.0000
  C   C302      1.0  0.01962  0.10568  0.48105  1.0000
  C   C303      1.0  0.99195  0.03789  0.37445  1.0000
  H   H241      1.0  0.34365  0.43350  0.46680  1.0000
  C   C304      1.0  0.40789  0.30803  0.36015  1.0000
  C   C305      1.0  0.46288  0.36047  0.28760  1.0000
  C   C306      1.0  0.41853  0.30915  0.23599  1.0000
  C   C307      1.0  0.12426  0.99066  0.38172  1.0000
  H   H242      1.0  0.48463  0.39136  0.32534  1.0000
  H   H243      1.0  0.03785  0.18674  0.27983  1.0000
  H   H244      1.0  0.23325  0.14025  0.24382  1.0000
  H   H245      1.0  0.07389  0.06344  0.29227  1.0000
  C   C308      1.0  0.07510  0.15594  0.24987  1.0000
  C   C309      1.0  0.28615  0.48014  0.38448  1.0000
  C   C310      1.0  0.98975  0.09376  0.33789  1.0000
  S   S40       1.0  0.21893  0.25409  0.24047  1.0000
  H   H246      1.0  0.99029  0.08652  0.32182  1.0000
  C   C311      1.0  0.48134  0.32172  0.32133  1.0000
  C   C312      1.0  0.04290  0.09854  0.48280  1.0000
  H   H247      1.0  0.41204  0.46776  0.30785  1.0000
  C   C313      1.0  0.05295  0.19667  0.24863  1.0000
  C   C314      1.0  0.98845  0.11255  0.37915  1.0000
  H   H248      1.0  0.98791  0.11987  0.39507  1.0000
  C   C315      1.0  0.28240  0.48254  0.33130  1.0000
  H   H249      1.0  0.04431  0.21240  0.24810  1.0000
  Fe  Fe20      1.0  0.22344  0.21718  0.23691  1.0000
  C   C316      1.0  0.98788  0.01784  0.36340  1.0000
  Fe  Fe21      1.0  0.39465  0.38810  0.59540  1.0000
  S   S41       1.0  0.37835  0.35589  0.58347  1.0000
  S   S42       1.0  0.43028  0.39267  0.61239  1.0000
  Fe  Fe22      1.0  0.35480  0.41570  0.57730  1.0000
  S   S43       1.0  0.33527  0.38543  0.56390  1.0000
  S   S44       1.0  0.34355  0.45034  0.56713  1.0000
  Fe  Fe23      1.0  0.34365  0.36817  0.59628  1.0000
  S   S45       1.0  0.31411  0.34442  0.61106  1.0000
  Fe  Fe24      1.0  0.37104  0.37537  0.55246  1.0000
  S   S46       1.0  0.38320  0.36389  0.51924  1.0000
  S   S47       1.0  0.36060  0.39951  0.61041  1.0000
  S   S48       1.0  0.38980  0.40642  0.56373  1.0000
  Fe  Fe25      1.0  0.07032  0.09075  0.59358  1.0000
  S   S49       1.0  0.08693  0.12467  0.58684  1.0000
  S   S50       1.0  0.03271  0.08086  0.60486  1.0000
  Fe  Fe26      1.0  0.11609  0.06749  0.58315  1.0000
  S   S51       1.0  0.13649  0.09987  0.57534  1.0000
  S   S52       1.0  0.13285  0.03419  0.57776  1.0000
  Fe  Fe27      1.0  0.11912  0.11328  0.60564  1.0000
  S   S53       1.0  0.13569  0.13168  0.63557  1.0000
  Fe  Fe28      1.0  0.10322  0.10900  0.55716  1.0000
  S   S54       1.0  0.09910  0.12506  0.52316  1.0000
  S   S55       1.0  0.10100  0.07998  0.61436  1.0000
  S   S56       1.0  0.08444  0.07601  0.56300  1.0000
  Fe  Fe29      1.0  0.25654  0.26581  0.71369  1.0000
  S   S57       1.0  0.21675  0.26404  0.70838  1.0000
  S   S58       1.0  0.28517  0.29177  0.70095  1.0000
  Fe  Fe30      1.0  0.22033  0.22708  0.70335  1.0000
  S   S59       1.0  0.20736  0.20895  0.67200  1.0000
  S   S60       1.0  0.26018  0.22953  0.70707  1.0000
  C   C317      1.0  0.12327  0.09579  0.49728  1.0000
  C   C318      1.0  0.07747  0.15264  0.64017  1.0000
  H   H250      1.0  0.40280  0.39866  0.65290  1.0000
  H   H251      1.0  0.03122  0.04840  0.55438  1.0000
  H   H252      1.0  0.12872  0.08790  0.51241  1.0000
  H   H253      1.0  0.37098  0.43172  0.64460  1.0000
  C   C319      1.0  0.11897  0.00786  0.58409  1.0000
  C   C320      1.0  0.10083  0.00530  0.59970  1.0000
  C   C321      1.0  0.35862  0.44450  0.49742  1.0000
  H   H254      1.0  0.09400  0.01980  0.60733  1.0000
  C   C322      1.0  0.15593  0.15318  0.64532  1.0000
  C   C323      1.0  0.15546  0.15876  0.66767  1.0000
  C   C324      1.0  0.17091  0.17565  0.67616  1.0000
  C   C325      1.0  0.18725  0.18729  0.66244  1.0000
  C   C326      1.0  0.18777  0.18167  0.64012  1.0000
  C   C327      1.0  0.17234  0.16478  0.63163  1.0000
  H   H255      1.0  0.14291  0.15002  0.67850  1.0000
  H   H256      1.0  0.17010  0.17969  0.69333  1.0000
  H   H257      1.0  0.20025  0.19046  0.62926  1.0000
  H   H258      1.0  0.17322  0.16069  0.61449  1.0000
  H   H259      1.0  0.38086  0.30611  0.48997  1.0000
  C   C328      1.0  0.00680  0.09503  0.59761  1.0000
  C   C329      1.0  0.00737  0.11302  0.58277  1.0000
  C   C330      1.0  0.04554  0.04811  0.52165  1.0000
  H   H260      1.0  0.02412  0.11893  0.57567  1.0000
  C   C331      1.0  0.38200  0.47916  0.49573  1.0000
  C   C332      1.0  0.47824  0.38633  0.60943  1.0000
  C   C333      1.0  0.43985  0.46642  0.59917  1.0000
  H   H261      1.0  0.04096  0.20747  0.63865  1.0000
  H   H262      1.0  0.36693  0.46021  0.60846  1.0000
  H   H263      1.0  0.19012  0.05489  0.51106  1.0000
  H   H264      1.0  0.33847  0.38462  0.50929  1.0000
  H   H265      1.0  0.07355  0.12015  0.65535  1.0000
  C   C334      1.0  0.30625  0.33044  0.63650  1.0000
  C   C335      1.0  0.28488  0.31744  0.63781  1.0000
  C   C336      1.0  0.27815  0.30554  0.65723  1.0000
  C   C337      1.0  0.29261  0.30655  0.67586  1.0000
  C   C338      1.0  0.31381  0.31986  0.67468  1.0000
  C   C339      1.0  0.32060  0.33166  0.65519  1.0000
  H   H266      1.0  0.27336  0.31661  0.62366  1.0000
  H   H267      1.0  0.26166  0.29572  0.65787  1.0000
  H   H268      1.0  0.32514  0.32094  0.68895  1.0000
  H   H269      1.0  0.33691  0.34170  0.65456  1.0000
  C   C340      1.0  0.45442  0.37172  0.57968  1.0000
  C   C341      1.0  0.45594  0.38301  0.59946  1.0000
  C   C342      1.0  0.46158  0.33377  0.68518  1.0000
  H   H270      1.0  0.43739  0.36931  0.57168  1.0000
  H   H271      1.0  0.11214  0.20540  0.69342  1.0000
  C   C343      1.0  0.37209  0.46114  0.50789  1.0000
  C   C344      1.0  0.30927  0.31429  0.52826  1.0000
  H   H272      1.0  0.30222  0.31825  0.54421  1.0000
  H   H273      1.0  0.03229  0.11334  0.64199  1.0000
  C   C345      1.0  0.10521  0.20265  0.63798  1.0000
  C   C346      1.0  0.43375  0.31808  0.71210  1.0000
  H   H274      1.0  0.01232  0.11423  0.49476  1.0000
  H   H275      1.0  0.14127  0.99074  0.56191  1.0000
  H   H276      1.0  0.37424  0.46025  0.52556  1.0000
  C   C347      1.0  0.14253  0.22185  0.64741  1.0000
  H   H277      1.0  0.14465  0.03145  0.63232  1.0000
  C   C348      1.0  0.38475  0.44323  0.65036  1.0000
  C   C349      1.0  0.13737  0.21872  0.66966  1.0000
  C   C350      1.0  0.35565  0.47525  0.57833  1.0000
  C   C351      1.0  0.03121  0.14484  0.62481  1.0000
  H   H278      1.0  0.30694  0.17603  0.72245  1.0000
  H   H279      1.0  0.15928  0.22996  0.64249  1.0000
  C   C352      1.0  0.09991  0.20000  0.66039  1.0000
  C   C353      1.0  0.42012  0.47318  0.66510  1.0000
  H   H280      1.0  0.47335  0.35340  0.55568  1.0000
  C   C354      1.0  0.46310  0.30429  0.62021  1.0000
  C   C355      1.0  0.05892  0.02494  0.55162  1.0000
  C   C356      1.0  0.18525  0.99466  0.61637  1.0000
  H   H281      1.0  0.47984  0.29615  0.61883  1.0000
  H   H282      1.0  0.18844  0.12137  0.70293  1.0000
  C   C357      1.0  0.31123  0.47003  0.62005  1.0000
  C   C358      1.0  0.15515  0.04818  0.52443  1.0000
  C   C359      1.0  0.32639  0.32856  0.51830  1.0000
  C   C360      1.0  0.05762  0.25015  0.59220  1.0000
  H   H283      1.0  0.03579  0.17604  0.60761  1.0000
  C   C361      1.0  0.42343  0.45769  0.55658  1.0000
  C   C362      1.0  0.44437  0.44620  0.58922  1.0000
  H   H284      1.0  0.45337  0.43330  0.59808  1.0000
  H   H285      1.0  0.45761  0.44223  0.66636  1.0000
  C   C363      1.0  0.17493  0.01503  0.61976  1.0000
  H   H286      1.0  0.15015  0.22441  0.68184  1.0000
  C   C364      1.0  0.40482  0.44816  0.63736  1.0000
  C   C365      1.0  0.37089  0.37427  0.49467  1.0000
  C   C366      1.0  0.32814  0.30407  0.48721  1.0000
  C   C367      1.0  0.41862  0.47776  0.56639  1.0000
  C   C368      1.0  0.12759  0.98884  0.57430  1.0000
  H   H287      1.0  0.08340  0.19178  0.66571  1.0000
  C   C369      1.0  0.42707  0.48227  0.58746  1.0000
  C   C370      1.0  0.22544  0.16508  0.71596  1.0000
  C   C371      1.0  0.14138  0.99600  0.63759  1.0000
  C   C372      1.0  0.33556  0.32359  0.49776  1.0000
  H   H288      1.0  0.33262  0.34354  0.52648  1.0000
  C   C373      1.0  0.11604  0.20788  0.67615  1.0000
  H   H289      1.0  0.09558  0.15512  0.64577  1.0000
  H   H290      1.0  0.12407  0.99651  0.64528  1.0000
  C   C374      1.0  0.42237  0.46362  0.64441  1.0000
  C   C375      1.0  0.03734  0.25276  0.60496  1.0000
  C   C376      1.0  0.43651  0.44201  0.56793  1.0000
  H   H291      1.0  0.06240  0.26228  0.57945  1.0000
  C   C377      1.0  0.31045  0.29007  0.49702  1.0000
  H   H292      1.0  0.36680  0.44929  0.68070  1.0000
  C   C378      1.0  0.06498  0.13280  0.64570  1.0000
  H   H293      1.0  0.46733  0.45358  0.52214  1.0000
  C   C379      1.0  0.30055  0.47846  0.60119  1.0000
  H   H294      1.0  0.05834  0.01998  0.56877  1.0000
  H   H295      1.0  0.23550  0.17886  0.70827  1.0000
  C   C380      1.0  0.06692  0.16877  0.62694  1.0000
  C   C381      1.0  0.19883  0.13275  0.71302  1.0000
  P   P11       1.0  0.08424  0.19294  0.61754  1.0000
  C   C382      1.0  0.13295  0.03743  0.52145  1.0000
  H   H296      1.0  0.32286  0.47693  0.65289  1.0000
  H   H297      1.0  0.08771  0.23037  0.58616  1.0000
  H   H298      1.0  0.41625  0.31135  0.71654  1.0000
  C   C383      1.0  0.04369  0.04088  0.54349  1.0000
  H   H299      1.0  0.35724  0.22269  0.48892  1.0000
  C   C384      1.0  0.09888  0.18438  0.59299  1.0000
  C   C385      1.0  0.08697  0.18468  0.57278  1.0000
  C   C386      1.0  0.09792  0.17683  0.55402  1.0000
  C   C387      1.0  0.12066  0.16844  0.55536  1.0000
  C   C388      1.0  0.13234  0.16758  0.57552  1.0000
  C   C389      1.0  0.12140  0.17534  0.59428  1.0000
  C   C390      1.0  0.04181  0.12894  0.63811  1.0000
  H   H300      1.0  0.13069  0.21680  0.61445  1.0000
  P   P12       1.0  0.09970  0.01116  0.49856  1.0000
  C   C391      1.0  0.04559  0.21912  0.62544  1.0000
  H   H301      1.0  0.98683  0.13779  0.56623  1.0000
  H   H302      1.0  0.06902  0.19036  0.57162  1.0000
  H   H303      1.0  0.08852  0.17644  0.53853  1.0000
  H   H304      1.0  0.12882  0.16183  0.54091  1.0000
  H   H305      1.0  0.14952  0.16021  0.57676  1.0000
  H   H306      1.0  0.13019  0.17367  0.60991  1.0000
  H   H307      1.0  0.21272  0.15198  0.68539  1.0000
  C   C392      1.0  0.34049  0.26847  0.70373  1.0000
  C   C393      1.0  0.36856  0.27807  0.69704  1.0000
  C   C394      1.0  0.38306  0.25949  0.66123  1.0000
  C   C395      1.0  0.36147  0.24134  0.65159  1.0000
  C   C396      1.0  0.33481  0.23707  0.66477  1.0000
  C   C397      1.0  0.32552  0.24949  0.68815  1.0000
  P   P13       1.0  0.31305  0.21864  0.65212  1.0000
  C   C398      1.0  0.29071  0.23614  0.64074  1.0000
  C   C399      1.0  0.32679  0.20309  0.63092  1.0000
  C   C400      1.0  0.31826  0.20347  0.60930  1.0000
  C   C401      1.0  0.32885  0.19079  0.59330  1.0000
  C   C402      1.0  0.34781  0.17750  0.59881  1.0000
  C   C403      1.0  0.35612  0.17677  0.62037  1.0000
  C   C404      1.0  0.34556  0.18941  0.63641  1.0000
  C   C405      1.0  0.26671  0.23340  0.64689  1.0000
  C   C406      1.0  0.24978  0.24715  0.63775  1.0000
  C   C407      1.0  0.25666  0.26375  0.62249  1.0000
  C   C408      1.0  0.28054  0.26678  0.61650  1.0000
  C   C409      1.0  0.29755  0.25318  0.62573  1.0000
  C   C410      1.0  0.30073  0.19746  0.67072  1.0000
  C   C411      1.0  0.30955  0.19480  0.69209  1.0000
  C   C412      1.0  0.30043  0.17767  0.70580  1.0000
  C   C413      1.0  0.28260  0.16294  0.69831  1.0000
  C   C414      1.0  0.27394  0.16524  0.67697  1.0000
  C   C415      1.0  0.28309  0.18230  0.66317  1.0000
  H   H308      1.0  0.33168  0.27500  0.71788  1.0000
  H   H309      1.0  0.37692  0.29034  0.70784  1.0000
  H   H310      1.0  0.39956  0.26154  0.65180  1.0000
  H   H311      1.0  0.36482  0.23296  0.63648  1.0000
  H   H312      1.0  0.30756  0.24529  0.69349  1.0000
  H   H313      1.0  0.30329  0.21324  0.60474  1.0000
  H   H314      1.0  0.32218  0.19112  0.57665  1.0000
  H   H315      1.0  0.35592  0.16761  0.58641  1.0000
  H   H316      1.0  0.37064  0.16628  0.62471  1.0000
  H   H317      1.0  0.35198  0.18850  0.65313  1.0000
  H   H318      1.0  0.26084  0.22098  0.65892  1.0000
  H   H319      1.0  0.23135  0.24507  0.64285  1.0000
  H   H320      1.0  0.24357  0.27466  0.61577  1.0000
  H   H321      1.0  0.28598  0.28011  0.60518  1.0000
  H   H322      1.0  0.31604  0.25603  0.62124  1.0000
  H   H323      1.0  0.32335  0.20582  0.69840  1.0000
  C   C416      1.0  0.06563  0.21609  0.61231  1.0000
  H   H324      1.0  0.27534  0.14994  0.70917  1.0000
  H   H325      1.0  0.25995  0.15395  0.67119  1.0000
  H   H326      1.0  0.27623  0.18381  0.64665  1.0000
  C   C417      1.0  0.12861  0.02434  0.50303  1.0000
  C   C418      1.0  0.36588  0.47555  0.59916  1.0000
  C   C419      1.0  0.45451  0.43502  0.49446  1.0000
  H   H327      1.0  0.28763  0.28425  0.52516  1.0000
  C   C420      1.0  0.43940  0.32332  0.69014  1.0000
  H   H328      1.0  0.03422  0.06098  0.51561  1.0000
  P   P14       1.0  0.41714  0.31989  0.66908  1.0000
  C   C421      1.0  0.39830  0.29527  0.67328  1.0000
  C   C422      1.0  0.40035  0.34467  0.67054  1.0000
  C   C423      1.0  0.37971  0.34505  0.68345  1.0000
  C   C424      1.0  0.36707  0.36449  0.68478  1.0000
  C   C425      1.0  0.37522  0.38378  0.67362  1.0000
  C   C426      1.0  0.39626  0.38374  0.66147  1.0000
  C   C427      1.0  0.40889  0.36433  0.66010  1.0000
  C   C428      1.0  0.37045  0.29633  0.66240  1.0000
  C   C429      1.0  0.34966  0.27513  0.66630  1.0000
  C   C430      1.0  0.36734  0.24301  0.68986  1.0000
  C   C431      1.0  0.39620  0.24955  0.69672  1.0000
  C   C432      1.0  0.40984  0.27403  0.68853  1.0000
  C   C433      1.0  0.43076  0.31701  0.64255  1.0000
  C   C434      1.0  0.45183  0.30550  0.64056  1.0000
  C   C435      1.0  0.45065  0.32165  0.72858  1.0000
  C   C436      1.0  0.45305  0.31397  0.60162  1.0000
  C   C437      1.0  0.43147  0.32444  0.60330  1.0000
  C   C438      1.0  0.42030  0.32596  0.62366  1.0000
  H   H329      1.0  0.02633  0.26685  0.60204  1.0000
  C   C439      1.0  0.12643  0.21407  0.63161  1.0000
  H   H330      1.0  0.31714  0.45313  0.62035  1.0000
  C   C440      1.0  0.21250  0.15001  0.70308  1.0000
  H   H331      1.0  0.37318  0.33039  0.69241  1.0000
  H   H332      1.0  0.35076  0.36448  0.69423  1.0000
  H   H333      1.0  0.36524  0.39872  0.67439  1.0000
  C   C441      1.0  0.10869  0.11401  0.49799  1.0000
  H   H334      1.0  0.42530  0.36467  0.65080  1.0000
  H   H335      1.0  0.36565  0.31072  0.65279  1.0000
  H   H336      1.0  0.33202  0.27727  0.65918  1.0000
  H   H337      1.0  0.35971  0.22711  0.69594  1.0000
  H   H338      1.0  0.40594  0.23785  0.70652  1.0000
  H   H339      1.0  0.42817  0.27627  0.69358  1.0000
  H   H340      1.0  0.45987  0.29787  0.65478  1.0000
  C   C442      1.0  0.03139  0.23730  0.62163  1.0000
  C   C443      1.0  0.16885  0.03342  0.49030  1.0000
  H   H341      1.0  0.42367  0.33183  0.58883  1.0000
  H   H342      1.0  0.40375  0.33444  0.62461  1.0000
  H   H343      1.0  0.18352  0.03033  0.61363  1.0000
  C   C444      1.0  0.06252  0.03935  0.50787  1.0000
  C   C445      1.0  0.30117  0.29512  0.51754  1.0000
  H   H344      1.0  0.43961  0.42606  0.56071  1.0000
  H   H345      1.0  0.30382  0.27530  0.48881  1.0000
  H   H346      1.0  0.02288  0.02501  0.58932  1.0000
  C   C446      1.0  0.07584  0.01613  0.53790  1.0000
  C   C447      1.0  0.40014  0.46803  0.67812  1.0000
  H   H347      1.0  0.41632  0.45391  0.54053  1.0000
  H   H348      1.0  0.35089  0.43060  0.50692  1.0000
  P   P15       1.0  0.44801  0.47071  0.62751  1.0000
  H   H349      1.0  0.11921  0.03967  0.53349  1.0000
  C   C448      1.0  0.17308  0.04623  0.50886  1.0000
  C   C449      1.0  0.98747  0.03552  0.58347  1.0000
  H   H350      1.0  0.48199  0.47181  0.56490  1.0000
  H   H351      1.0  0.15825  0.05820  0.53881  1.0000
  C   C450      1.0  0.04387  0.16448  0.61885  1.0000
  C   C451      1.0  0.07769  0.02313  0.51586  1.0000
  H   H352      1.0  0.40640  0.44005  0.62175  1.0000
  H   H353      1.0  0.29823  0.46801  0.58700  1.0000
  C   C452      1.0  0.38237  0.45317  0.67069  1.0000
  C   C453      1.0  0.07184  0.23196  0.59595  1.0000
  H   H354      1.0  0.47951  0.39507  0.62470  1.0000
  H   H355      1.0  0.08785  0.00418  0.54468  1.0000
  H   H356      1.0  0.46585  0.33939  0.66862  1.0000
  H   H357      1.0  0.35052  0.26262  0.49276  1.0000
  H   H358      1.0  0.01580  0.23943  0.63167  1.0000
  C   C454      1.0  0.47237  0.45342  0.63504  1.0000
  H   H359      1.0  0.01113  0.98539  0.59222  1.0000
  H   H360      1.0  0.01341  0.14158  0.61859  1.0000
  C   C455      1.0  0.34818  0.38281  0.49417  1.0000
  C   C456      1.0  0.47221  0.44488  0.50755  1.0000
  C   C457      1.0  0.47235  0.44155  0.65507  1.0000
  C   C458      1.0  0.15301  0.01570  0.63038  1.0000
  H   H361      1.0  0.46207  0.31352  0.58593  1.0000
  C   C459      1.0  0.47484  0.36279  0.57059  1.0000
  H   H362      1.0  0.39838  0.47566  0.69395  1.0000
  H   H363      1.0  0.43592  0.43607  0.49886  1.0000
  H   H364      1.0  0.20213  0.99445  0.60790  1.0000
  H   H365      1.0  0.34844  0.33499  0.49010  1.0000
  H   H366      1.0  0.48502  0.43099  0.56345  1.0000
  H   H367      1.0  0.05301  0.10141  0.49772  1.0000
  C   C460      1.0  0.00443  0.01968  0.58724  1.0000
  C   C461      1.0  0.99753  0.99718  0.58906  1.0000
  C   C462      1.0  0.31457  0.48350  0.63828  1.0000
  H   H368      1.0  0.99302  0.05286  0.58179  1.0000
  H   H369      1.0  0.06374  0.04544  0.49116  1.0000
  C   C463      1.0  0.47846  0.33730  0.70168  1.0000
  C   C464      1.0  0.47307  0.33108  0.72335  1.0000
  C   C465      1.0  0.14671  0.02250  0.48738  1.0000
  Fe  Fe31      1.0  0.35218  0.06699  0.85325  1.0000
  S   S61       1.0  0.38684  0.07024  0.87056  1.0000
  S   S62       1.0  0.33597  0.03319  0.84362  1.0000
  Fe  Fe32      1.0  0.34639  0.11786  0.85137  1.0000
  S   S63       1.0  0.38135  0.12450  0.86941  1.0000
  S   S64       1.0  0.31917  0.14468  0.84282  1.0000
  Fe  Fe33      1.0  0.39593  0.09858  0.84759  1.0000
  S   S65       1.0  0.43224  0.09746  0.83137  1.0000
  Fe  Fe34      1.0  0.37012  0.09555  0.89157  1.0000
  S   S66       1.0  0.38168  0.08747  0.92652  1.0000
  S   S67       1.0  0.36199  0.09372  0.82810  1.0000
  S   S68       1.0  0.33427  0.09052  0.87557  1.0000
  Fe  Fe35      1.0  0.06625  0.36479  0.86785  1.0000
  S   S69       1.0  0.08109  0.37752  0.83553  1.0000
  S   S70       1.0  0.02963  0.34907  0.87464  1.0000
  Fe  Fe36      1.0  0.10968  0.38033  0.89348  1.0000
  S   S71       1.0  0.12783  0.39479  0.86318  1.0000
  S   S72       1.0  0.12722  0.38534  0.92666  1.0000
  Fe  Fe37      1.0  0.09225  0.40800  0.85461  1.0000
  S   S73       1.0  0.08226  0.44235  0.84251  1.0000
  Fe  Fe38      1.0  0.11582  0.36294  0.84634  1.0000
  S   S74       1.0  0.14419  0.34746  0.82397  1.0000
  S   S75       1.0  0.07517  0.39589  0.88602  1.0000
  S   S76       1.0  0.09989  0.34790  0.87765  1.0000
  H   H370      1.0  0.02924  0.36573  0.79054  1.0000
  C   C466      1.0  0.38296  0.09145  0.97105  1.0000
  S   S77       1.0  0.28081  0.19679  0.75710  1.0000
  H   H371      1.0  0.36106  0.01749  0.92947  1.0000
  S   S78       1.0  0.18373  0.26610  0.76827  1.0000
  C   C467      1.0  0.21854  0.05905  0.95277  1.0000
  C   C468      1.0  0.09542  0.46741  0.85244  1.0000
  H   H372      1.0  0.12443  0.45211  0.86887  1.0000
  C   C469      1.0  0.15453  0.32488  0.80792  1.0000
  C   C470      1.0  0.17687  0.32709  0.79739  1.0000
  C   C471      1.0  0.18593  0.30966  0.78488  1.0000
  C   C472      1.0  0.17289  0.28946  0.78281  1.0000
  C   C473      1.0  0.15057  0.28727  0.79334  1.0000
  C   C474      1.0  0.14139  0.30481  0.80553  1.0000
  H   H373      1.0  0.18727  0.34248  0.79885  1.0000
  H   H374      1.0  0.20310  0.31181  0.77701  1.0000
  H   H375      1.0  0.14016  0.27188  0.79193  1.0000
  H   H376      1.0  0.12402  0.30282  0.81295  1.0000
  H   H377      1.0  0.29864  0.15844  0.94480  1.0000
  H   H378      1.0  0.03081  0.34464  0.82566  1.0000
  C   C475      1.0  0.12276  0.38491  0.97138  1.0000
  C   C476      1.0  0.11410  0.37596  0.95172  1.0000
  C   C477      1.0  0.09643  0.35897  0.95261  1.0000
  H   H379      1.0  0.98694  0.40462  0.83160  1.0000
  C   C478      1.0  0.15836  0.44381  0.95822  1.0000
  H   H380      1.0  0.13633  0.39810  0.97078  1.0000
  H   H381      1.0  0.08965  0.35187  0.93759  1.0000
  C   C479      1.0  0.01902  0.44194  0.86143  1.0000
  C   C480      1.0  0.00430  0.36366  0.86660  1.0000
  H   H382      1.0  0.02336  0.38735  0.84560  1.0000
  C   C481      1.0  0.45947  0.10258  0.84526  1.0000
  C   C482      1.0  0.16484  0.13197  0.79435  1.0000
  C   C483      1.0  0.41589  0.01606  0.90962  1.0000
  C   C484      1.0  0.29302  0.01668  0.91541  1.0000
  H   H383      1.0  0.44474  0.12162  0.87097  1.0000
  C   C485      1.0  0.30956  0.15967  0.81880  1.0000
  C   C486      1.0  0.29109  0.17468  0.82074  1.0000
  C   C487      1.0  0.28240  0.18644  0.80227  1.0000
  C   C488      1.0  0.29177  0.18320  0.78136  1.0000
  C   C489      1.0  0.31039  0.16837  0.77944  1.0000
  C   C490      1.0  0.31931  0.15682  0.79795  1.0000
  H   H384      1.0  0.28344  0.17722  0.83670  1.0000
  H   H385      1.0  0.26845  0.19802  0.80420  1.0000
  H   H386      1.0  0.31800  0.16572  0.76349  1.0000
  H   H387      1.0  0.33353  0.14548  0.79603  1.0000
  H   H388      1.0  0.03298  0.43351  0.85309  1.0000
  C   C491      1.0  0.37422  0.10026  0.95130  1.0000
  C   C492      1.0  0.35968  0.11845  0.95192  1.0000
  C   C493      1.0  0.35346  0.12735  0.97222  1.0000
  H   H389      1.0  0.35312  0.12559  0.93681  1.0000
  H   H390      1.0  0.19424  0.35951  0.97152  1.0000
  C   C494      1.0  0.44816  0.12057  0.92873  1.0000
  C   C495      1.0  0.43610  0.12518  0.96638  1.0000
  H   H391      1.0  0.42263  0.13015  0.97767  1.0000
  H   H392      1.0  0.18568  0.42039  0.96403  1.0000
  H   H393      1.0  0.33128  0.06883  0.93162  1.0000
  P   P16       1.0  0.21063  0.14341  0.77851  1.0000
  C   C496      1.0  0.20581  0.17092  0.78862  1.0000
  C   C497      1.0  0.18674  0.12432  0.78726  1.0000
  H   H394      1.0  0.12965  0.12286  0.80617  1.0000
  H   H395      1.0  0.99317  0.36259  0.76726  1.0000
  C   C498      1.0  0.14993  0.09402  0.80025  1.0000
  C   C499      1.0  0.17167  0.08628  0.79328  1.0000
  C   C500      1.0  0.19001  0.10134  0.78681  1.0000
  C   C501      1.0  0.21939  0.17977  0.80592  1.0000
  C   C502      1.0  0.21587  0.20135  0.81301  1.0000
  C   C503      1.0  0.19875  0.21423  0.80293  1.0000
  C   C504      1.0  0.18509  0.20552  0.78582  1.0000
  C   C505      1.0  0.18869  0.18404  0.77856  1.0000
  C   C506      1.0  0.23792  0.13244  0.78888  1.0000
  C   C507      1.0  0.23940  0.12579  0.81101  1.0000
  C   C508      1.0  0.26014  0.11666  0.81915  1.0000
  C   C509      1.0  0.27933  0.11368  0.80518  1.0000
  C   C510      1.0  0.27792  0.12004  0.78311  1.0000
  C   C511      1.0  0.25740  0.12956  0.77498  1.0000
  C   C512      1.0  0.17702  0.42310  0.92974  1.0000
  C   C513      1.0  0.98975  0.47052  0.86158  1.0000
  H   H396      1.0  0.18939  0.41084  0.92479  1.0000
  C   C514      1.0  0.38651  0.00787  0.81182  1.0000
  C   C515      1.0  0.46948  0.11191  0.93590  1.0000
  H   H397      1.0  0.44630  0.31729  0.74547  1.0000
  H   H398      1.0  0.29168  0.14383  0.98268  1.0000
  H   H399      1.0  0.13570  0.08234  0.80520  1.0000
  H   H400      1.0  0.17432  0.06858  0.79282  1.0000
  H   H401      1.0  0.20672  0.09506  0.78131  1.0000
  H   H402      1.0  0.23313  0.17036  0.81364  1.0000
  H   H403      1.0  0.22679  0.20827  0.82601  1.0000
  H   H404      1.0  0.19634  0.23115  0.80799  1.0000
  H   H405      1.0  0.17232  0.21583  0.77763  1.0000
  H   H406      1.0  0.17843  0.17783  0.76480  1.0000
  H   H407      1.0  0.22463  0.12792  0.82203  1.0000
  C   C516      1.0  0.47284  0.01724  0.84711  1.0000
  H   H408      1.0  0.29563  0.10713  0.81165  1.0000
  C   C517      1.0  0.36745  0.99437  0.95586  1.0000
  C   C518      1.0  0.44115  0.06138  0.93026  1.0000
  C   C519      1.0  0.20435  0.30069  0.93845  1.0000
  C   C520      1.0  0.18807  0.28614  0.94921  1.0000
  C   C521      1.0  0.17058  0.27459  0.93725  1.0000
  C   C522      1.0  0.16921  0.27766  0.91451  1.0000
  C   C523      1.0  0.18537  0.29241  0.90358  1.0000
  C   C524      1.0  0.20304  0.30380  0.91571  1.0000
  P   P17       1.0  0.18286  0.29792  0.87446  1.0000
  C   C525      1.0  0.18479  0.32779  0.87074  1.0000
  C   C526      1.0  0.20568  0.28490  0.85898  1.0000
  C   C527      1.0  0.20308  0.28287  0.83623  1.0000
  C   C528      1.0  0.22039  0.27282  0.82385  1.0000
  C   C529      1.0  0.24036  0.26445  0.83415  1.0000
  C   C530      1.0  0.24304  0.26621  0.85684  1.0000
  C   C531      1.0  0.22578  0.27642  0.86926  1.0000
  C   C532      1.0  0.17367  0.34130  0.88587  1.0000
  C   C533      1.0  0.17509  0.36441  0.88333  1.0000
  C   C534      1.0  0.18743  0.37423  0.86555  1.0000
  C   C535      1.0  0.19855  0.36094  0.85044  1.0000
  C   C536      1.0  0.19732  0.33780  0.85302  1.0000
  C   C537      1.0  0.15446  0.28702  0.86481  1.0000
  C   C538      1.0  0.15164  0.26449  0.85942  1.0000
  C   C539      1.0  0.12963  0.25581  0.85226  1.0000
  C   C540      1.0  0.11024  0.26949  0.85065  1.0000
  C   C541      1.0  0.11288  0.29186  0.85608  1.0000
  C   C542      1.0  0.13495  0.30065  0.86295  1.0000
  H   H409      1.0  0.21779  0.30978  0.94775  1.0000
  H   H410      1.0  0.18886  0.28393  0.96685  1.0000
  H   H411      1.0  0.15787  0.26341  0.94563  1.0000
  H   H412      1.0  0.15529  0.26877  0.90566  1.0000
  H   H413      1.0  0.21555  0.31538  0.90759  1.0000
  H   H414      1.0  0.18765  0.28923  0.82803  1.0000
  H   H415      1.0  0.21830  0.27160  0.80622  1.0000
  H   H416      1.0  0.25378  0.25668  0.82448  1.0000
  H   H417      1.0  0.25857  0.25971  0.86478  1.0000
  H   H418      1.0  0.22820  0.27758  0.88678  1.0000
  H   H419      1.0  0.16342  0.33397  0.89935  1.0000
  H   H420      1.0  0.16597  0.37470  0.89476  1.0000
  H   H421      1.0  0.18779  0.39210  0.86312  1.0000
  H   H422      1.0  0.20743  0.36851  0.83626  1.0000
  H   H423      1.0  0.20560  0.32792  0.84080  1.0000
  H   H424      1.0  0.16647  0.25366  0.86062  1.0000
  H   H425      1.0  0.12767  0.23853  0.84776  1.0000
  H   H426      1.0  0.09324  0.26287  0.84487  1.0000
  H   H427      1.0  0.09802  0.30263  0.85433  1.0000
  H   H428      1.0  0.13680  0.31816  0.86627  1.0000
  H   H429      1.0  0.01406  0.46497  0.83480  1.0000
  H   H430      1.0  0.41841  0.99888  0.94070  1.0000
  C   C543      1.0  0.43146  0.12710  0.94394  1.0000
  H   H431      1.0  0.40156  0.06258  0.81723  1.0000
  H   H432      1.0  0.01959  0.42036  0.88985  1.0000
  H   H433      1.0  0.17349  0.35453  0.93621  1.0000
  H   H434      1.0  0.34252  0.04704  0.89964  1.0000
  H   H435      1.0  0.36912  0.02101  0.87828  1.0000
  C   C544      1.0  0.03174  0.38688  0.96824  1.0000
  C   C545      1.0  0.28632  0.02911  0.93335  1.0000
  H   H436      1.0  0.42494  0.06407  0.93925  1.0000
  C   C546      1.0  0.16303  0.43347  0.91400  1.0000
  H   H437      1.0  0.39465  0.07771  0.97066  1.0000
  C   C547      1.0  0.29890  0.12599  0.93063  1.0000
  H   H438      1.0  0.27075  0.02364  0.94268  1.0000
  C   C548      1.0  0.00825  0.45984  0.85113  1.0000
  H   H439      1.0  0.18727  0.11714  0.74319  1.0000
  C   C549      1.0  0.43729  0.00051  0.87933  1.0000
  C   C550      1.0  0.45752  0.11654  0.97384  1.0000
  H   H440      1.0  0.42735  0.07430  0.89992  1.0000
  H   H441      1.0  0.12272  0.30900  0.96704  1.0000
  C   C551      1.0  0.25902  0.06071  0.96661  1.0000
  H   H442      1.0  0.05788  0.38640  0.94240  1.0000
  H   H443      1.0  0.15692  0.44786  0.97537  1.0000
  C   C552      1.0  0.32032  0.05441  0.92715  1.0000
  H   H444      1.0  0.30187  0.13236  0.91406  1.0000
  H   H445      1.0  0.41470  0.13338  0.93832  1.0000
  C   C553      1.0  0.01514  0.34307  0.81539  1.0000
  C   C554      1.0  0.31309  0.02331  0.90313  1.0000
  C   C555      1.0  0.14653  0.11685  0.80080  1.0000
  H   H446      1.0  0.06501  0.44235  0.89732  1.0000
  H   H447      1.0  0.34222  0.14144  0.97262  1.0000
  C   C556      1.0  0.29956  0.04845  0.93897  1.0000
  C   C557      1.0  0.02227  0.38381  0.92963  1.0000
  C   C558      1.0  0.00611  0.38159  0.85170  1.0000
  C   C559      1.0  0.09831  0.47517  0.93153  1.0000
  H   H448      1.0  0.44083  0.07497  0.97869  1.0000
  C   C560      1.0  0.40453  0.99876  0.82441  1.0000
  H   H449      1.0  0.02801  0.38234  0.91276  1.0000
  C   C561      1.0  0.14660  0.44888  0.92036  1.0000
  C   C562      1.0  0.42183  0.01263  0.83447  1.0000
  H   H450      1.0  0.36440  0.05054  0.95297  1.0000
  C   C563      1.0  0.42266  0.01669  0.88757  1.0000
  C   C564      1.0  0.48213  0.05030  0.92942  1.0000
  H   H451      1.0  0.13602  0.45678  0.90795  1.0000
  C   C565      1.0  0.46083  0.05271  0.94089  1.0000
  C   C566      1.0  0.14723  0.33099  0.94928  1.0000
  H   H452      1.0  0.37295  0.99712  0.80451  1.0000
  C   C567      1.0  0.40248  0.04476  0.81922  1.0000
  C   C568      1.0  0.38544  0.03087  0.80928  1.0000
  C   C569      1.0  0.01423  0.35500  0.79561  1.0000
  C   C570      1.0  0.36985  0.98514  0.87813  1.0000
  C   C571      1.0  0.03909  0.38598  0.94637  1.0000
  H   H453      1.0  0.44441  0.12198  0.91136  1.0000
  H   H454      1.0  0.45938  0.04820  0.95799  1.0000
  H   H455      1.0  0.41624  0.02971  0.87698  1.0000
  H   H456      1.0  0.32702  0.98857  0.82881  1.0000
  C   C572      1.0  0.36475  0.01555  0.94681  1.0000
  C   C573      1.0  0.99060  0.38390  0.95655  1.0000
  H   H457      1.0  0.13779  0.32934  0.93388  1.0000
  H   H458      1.0  0.40435  0.02855  0.91567  1.0000
  C   C574      1.0  0.36687  0.03418  0.95999  1.0000
  H   H459      1.0  0.37107  0.03796  0.80006  1.0000
  C   C575      1.0  0.20985  0.05664  0.97418  1.0000
  C   C576      1.0  0.08817  0.35052  0.97306  1.0000
  C   C577      1.0  0.48284  0.05513  0.90680  1.0000
  C   C578      1.0  0.29717  0.10306  0.93467  1.0000
  C   C579      1.0  0.44239  0.06705  0.90798  1.0000
  H   H460      1.0  0.07494  0.33698  0.97364  1.0000
  C   C580      1.0  0.16733  0.34523  0.95062  1.0000
  C   C581      1.0  0.01149  0.43456  0.88220  1.0000
  H   H461      1.0  0.43330  0.04697  0.83973  1.0000
  C   C582      1.0  0.34718  0.00741  0.85261  1.0000
  C   C583      1.0  0.08893  0.45578  0.92176  1.0000
  C   C584      1.0  0.36288  0.00603  0.87029  1.0000
  H   H462      1.0  0.46484  0.02872  0.81411  1.0000
  C   C585      1.0  0.46305  0.06346  0.89615  1.0000
  H   H463      1.0  0.26162  0.11224  0.83637  1.0000
  C   C586      1.0  0.46076  0.11510  0.86430  1.0000
  C   C587      1.0  0.11613  0.46758  0.86506  1.0000
  H   H464      1.0  0.09573  0.43969  0.92600  1.0000
  H   H465      1.0  0.16456  0.42929  0.89688  1.0000
  C   C588      1.0  0.32683  0.04205  0.90910  1.0000
  H   H466      1.0  0.25704  0.13478  0.75795  1.0000
  C   C589      1.0  0.33918  0.98768  0.84248  1.0000
  S   S79       1.0  0.25358  0.25938  0.75049  1.0000
  C   C590      1.0  0.42050  0.03577  0.83192  1.0000
  C   C591      1.0  0.14378  0.45381  0.94255  1.0000
  C   C592      1.0  0.07135  0.45715  0.90565  1.0000
  P   P18       1.0  0.44535  0.00095  0.85066  1.0000
  H   H467      1.0  0.46397  0.06771  0.87880  1.0000
  C   C593      1.0  0.37223  0.99159  0.97835  1.0000
  H   H468      1.0  0.04505  0.38765  0.98108  1.0000
  H   H469      1.0  0.28257  0.00201  0.91083  1.0000
  C   C594      1.0  0.29696  0.14069  0.94791  1.0000
  C   C595      1.0  0.29299  0.13246  0.96922  1.0000
  C   C596      1.0  0.42386  0.99940  0.92369  1.0000
  C   C597      1.0  0.47403  0.10955  0.95834  1.0000
  H   H470      1.0  0.16173  0.14952  0.79494  1.0000
  C   C598      1.0  0.29139  0.10954  0.97332  1.0000
  C   C599      1.0  0.17482  0.42839  0.95184  1.0000
  H   H471      1.0  0.48228  0.10675  0.92396  1.0000
  C   C600      1.0  0.47769  0.02883  0.82730  1.0000
  H   H472      1.0  0.42104  0.98974  0.98470  1.0000
  C   C601      1.0  0.48048  0.09460  0.83645  1.0000
  H   H473      1.0  0.24951  0.06368  0.93235  1.0000
  H   H474      1.0  0.47963  0.08510  0.82160  1.0000
  H   H475      1.0  0.29801  0.09215  0.92086  1.0000
  C   C602      1.0  0.22510  0.16269  0.73878  1.0000
  C   C603      1.0  0.24303  0.06130  0.94900  1.0000
  H   H476      1.0  0.29312  0.11828  0.77248  1.0000
  H   H477      1.0  0.20629  0.05945  0.93910  1.0000
  C   C604      1.0  0.19818  0.13048  0.73589  1.0000
  P   P19       1.0  0.29044  0.06504  0.96158  1.0000
  P   P20       1.0  0.12251  0.47362  0.95090  1.0000
  H   H478      1.0  0.29052  0.02209  0.98436  1.0000
  H   H479      1.0  0.23545  0.17436  0.74856  1.0000
  H   H480      1.0  0.05012  0.47882  0.88611  1.0000
  Fe  Fe39      1.0  0.25496  0.22277  0.74330  1.0000
  C   C605      1.0  0.30665  0.05529  0.98519  1.0000
  H   H481      1.0  0.98735  0.43931  0.90887  1.0000
  H   H482      1.0  0.31793  0.01396  0.88894  1.0000
  C   C606      1.0  0.29412  0.09461  0.95618  1.0000
  C   C607      1.0  0.99562  0.32969  0.82239  1.0000
  Fe  Fe40      1.0  0.21387  0.25569  0.74479  1.0000
  C   C608      1.0  0.17883  0.34820  0.97071  1.0000
  H   H483      1.0  0.19087  0.05508  0.97712  1.0000
  C   C609      1.0  0.10975  0.46452  0.97689  1.0000
  C   C610      1.0  0.06287  0.47777  0.89935  1.0000
  C   C611      1.0  0.21128  0.14554  0.74894  1.0000
  C   C612      1.0  0.13868  0.31961  0.96800  1.0000
  C   C613      1.0  0.99390  0.35325  0.78256  1.0000
  H   H484      1.0  0.10785  0.42976  0.96835  1.0000
  C   C614      1.0  0.00741  0.38616  0.97348  1.0000
  H   H485      1.0  0.99674  0.32120  0.83807  1.0000
  C   C615      1.0  0.99805  0.38280  0.93471  1.0000
  C   C616      1.0  0.99331  0.44524  0.89285  1.0000
  C   C617      1.0  0.37239  0.03172  0.98216  1.0000
  H   H486      1.0  0.48395  0.13063  0.88820  1.0000
  C   C618      1.0  0.48298  0.12016  0.87401  1.0000
  C   C619      1.0  0.10478  0.44177  0.98093  1.0000
  S   S80       1.0  0.21514  0.21848  0.73916  1.0000
  H   H487      1.0  0.48616  0.33387  0.73613  1.0000
  Fe  Fe41      1.0  0.35606  0.85648  0.09770  1.0000
  S   S81       1.0  0.32995  0.87791  0.08009  1.0000
  S   S82       1.0  0.34745  0.82836  0.12354  1.0000
  Fe  Fe42      1.0  0.39902  0.88075  0.07413  1.0000
  S   S83       1.0  0.37526  0.90345  0.05553  1.0000
  S   S84       1.0  0.43730  0.89113  0.06534  1.0000
  Fe  Fe43      1.0  0.35556  0.90677  0.08689  1.0000
  S   S85       1.0  0.34279  0.93968  0.09958  1.0000
  Fe  Fe44      1.0  0.35215  0.87310  0.04973  1.0000
  S   S86       1.0  0.33493  0.87047  0.01598  1.0000
  S   S87       1.0  0.38059  0.88584  0.10619  1.0000
  S   S88       1.0  0.37684  0.84979  0.06653  1.0000
  Fe  Fe45      1.0  0.09068  0.56177  0.09523  1.0000
  S   S89       1.0  0.07517  0.57279  0.06334  1.0000
  S   S90       1.0  0.08074  0.52680  0.10797  1.0000
  Fe  Fe46      1.0  0.11659  0.60751  0.10320  1.0000
  S   S91       1.0  0.10305  0.62157  0.07101  1.0000
  S   S92       1.0  0.14325  0.62294  0.12863  1.0000
  Fe  Fe47      1.0  0.06770  0.60449  0.08007  1.0000
  S   S93       1.0  0.03308  0.62028  0.07043  1.0000
  Fe  Fe48      1.0  0.11102  0.58866  0.05623  1.0000
  S   S94       1.0  0.12693  0.58012  0.02328  1.0000
  S   S95       1.0  0.08040  0.59251  0.11300  1.0000
  S   S96       1.0  0.12734  0.57559  0.08744  1.0000
  Fe  Fe49      1.0  0.25218  0.76059  0.21110  1.0000
  S   S97       1.0  0.21230  0.75633  0.21417  1.0000
  S   S98       1.0  0.26292  0.79010  0.18745  1.0000
  Fe  Fe50      1.0  0.21606  0.71950  0.21020  1.0000
  S   S99       1.0  0.19006  0.70395  0.18438  1.0000
  S   S100      1.0  0.25577  0.72396  0.20577  1.0000
  C   C620      1.0  0.13581  0.64114  0.21562  1.0000
  H   H488      1.0  0.03735  0.52866  0.98814  1.0000
  H   H489      1.0  0.46395  0.96191  0.03562  1.0000
  C   C621      1.0  0.15527  0.64573  0.14448  1.0000
  C   C622      1.0  0.14867  0.66775  0.14114  1.0000
  C   C623      1.0  0.15952  0.68521  0.15337  1.0000
  C   C624      1.0  0.17696  0.68107  0.16936  1.0000
  C   C625      1.0  0.18309  0.65902  0.17307  1.0000
  C   C626      1.0  0.17249  0.64160  0.16067  1.0000
  H   H490      1.0  0.13564  0.67140  0.12875  1.0000
  H   H491      1.0  0.15448  0.70209  0.15031  1.0000
  H   H492      1.0  0.19594  0.65535  0.18560  1.0000
  H   H493      1.0  0.17775  0.62474  0.16361  1.0000
  P   P21       1.0  0.07725  0.62212  0.17981  1.0000
  C   C627      1.0  0.26631  0.72312  0.14538  1.0000
  C   C628      1.0  0.00512  0.61257  0.08221  1.0000
  C   C629      1.0  0.00315  0.59906  0.10105  1.0000
  H   H494      1.0  0.07625  0.84362  0.16354  1.0000
  H   H495      1.0  0.01901  0.59290  0.10859  1.0000
  C   C630      1.0  0.10383  0.66145  0.18737  1.0000
  C   C631      1.0  0.09247  0.50322  0.09558  1.0000
  C   C632      1.0  0.11070  0.50528  0.08001  1.0000
  H   H496      1.0  0.08894  0.77532  0.15143  1.0000
  H   H497      1.0  0.11774  0.52161  0.07511  1.0000
  C   C633      1.0  0.11721  0.59148  0.99798  1.0000
  H   H498      1.0  0.05283  0.59716  0.02704  1.0000
  C   C634      1.0  0.01114  0.49846  0.09772  1.0000
  C   C635      1.0  0.40223  0.92638  0.20247  1.0000
  H   H499      1.0  0.38039  0.85038  0.00682  1.0000
  C   C636      1.0  0.35386  0.96641  0.09076  1.0000
  C   C637      1.0  0.05112  0.58272  0.99499  1.0000
  C   C638      1.0  0.42792  0.94886  0.03391  1.0000
  H   H500      1.0  0.41576  0.87160  0.13861  1.0000
  H   H501      1.0  0.14487  0.94615  0.19666  1.0000
  H   H502      1.0  0.37876  0.95478  0.06733  1.0000
  C   C639      1.0  0.34276  0.93485  0.01163  1.0000
  C   C640      1.0  0.32351  0.81799  0.14101  1.0000
  C   C641      1.0  0.30143  0.82787  0.14193  1.0000
  C   C642      1.0  0.28333  0.81917  0.15623  1.0000
  C   C643      1.0  0.28676  0.80032  0.16979  1.0000
  C   C644      1.0  0.30876  0.79033  0.16873  1.0000
  C   C645      1.0  0.32692  0.79913  0.15455  1.0000
  H   H503      1.0  0.29831  0.84227  0.13165  1.0000
  H   H504      1.0  0.26650  0.82715  0.15679  1.0000
  H   H505      1.0  0.31187  0.77586  0.17891  1.0000
  H   H506      1.0  0.34381  0.79123  0.15407  1.0000
  C   C646      1.0  0.02237  0.60763  0.00899  1.0000
  C   C647      1.0  0.47620  0.88448  0.16698  1.0000
  H   H507      1.0  0.11479  0.91497  0.19944  1.0000
  H   H508      1.0  0.13675  0.79327  0.21049  1.0000
  H   H509      1.0  0.38952  0.91241  0.20264  1.0000
  C   C648      1.0  0.43225  0.94002  0.09878  1.0000
  C   C649      1.0  0.09941  0.71675  0.14561  1.0000
  C   C650      1.0  0.10883  0.71367  0.12475  1.0000
  C   C651      1.0  0.12717  0.72794  0.11680  1.0000
  C   C652      1.0  0.13615  0.74531  0.12969  1.0000
  C   C653      1.0  0.12695  0.74839  0.15076  1.0000
  C   C654      1.0  0.10833  0.73410  0.15854  1.0000
  C   C655      1.0  0.41086  0.96844  0.11687  1.0000
  C   C656      1.0  0.33819  0.88053  0.15759  1.0000
  H   H510      1.0  0.11491  0.61107  0.21069  1.0000
  C   C657      1.0  0.19514  0.80487  0.13847  1.0000
  C   C658      1.0  0.17194  0.79841  0.14487  1.0000
  H   H511      1.0  0.09155  0.66966  0.17664  1.0000
  C   C659      1.0  0.24858  0.65924  0.17510  1.0000
  H   H512      1.0  0.13453  0.48794  0.05924  1.0000
  C   C660      1.0  0.21000  0.77261  0.15724  1.0000
  C   C661      1.0  0.19233  0.81251  0.22828  1.0000
  C   C662      1.0  0.06161  0.52535  0.01510  1.0000
  C   C663      1.0  0.30520  0.65021  0.13347  1.0000
  C   C664      1.0  0.43599  0.87472  0.99488  1.0000
  H   H513      1.0  0.10196  0.70020  0.11475  1.0000
  H   H514      1.0  0.13450  0.72547  0.10064  1.0000
  H   H515      1.0  0.15035  0.75617  0.12319  1.0000
  C   C665      1.0  0.08323  0.64418  0.13964  1.0000
  H   H516      1.0  0.19843  0.81977  0.12854  1.0000
  H   H517      1.0  0.15743  0.80833  0.13942  1.0000
  C   C666      1.0  0.13877  0.66377  0.21048  1.0000
  C   C667      1.0  0.17548  0.85112  0.20875  1.0000
  H   H518      1.0  0.06468  0.58809  0.21344  1.0000
  C   C668      1.0  0.13606  0.89513  0.22096  1.0000
  C   C669      1.0  0.43234  0.87525  0.14702  1.0000
  C   C670      1.0  0.37952  0.88037  0.16854  1.0000
  C   C671      1.0  0.12264  0.67395  0.19655  1.0000
  H   H519      1.0  0.44169  0.93428  0.08466  1.0000
  C   C672      1.0  0.11696  0.62860  0.20655  1.0000
  C   C673      1.0  0.10405  0.61066  0.99696  1.0000
  C   C674      1.0  0.24890  0.65504  0.19773  1.0000
  C   C675      1.0  0.00297  0.53766  0.09735  1.0000
  C   C676      1.0  0.04264  0.63286  0.14889  1.0000
  H   H520      1.0  0.33057  0.62354  0.09125  1.0000
  H   H521      1.0  0.48350  0.83856  0.10930  1.0000
  C   C677      1.0  0.09542  0.79122  0.15740  1.0000
  C   C678      1.0  0.01876  0.52150  0.01856  1.0000
  C   C679      1.0  0.21420  0.79210  0.14490  1.0000
  H   H522      1.0  0.39762  0.96017  0.14906  1.0000
  C   C680      1.0  0.32676  0.96658  0.04038  1.0000
  H   H523      1.0  0.23387  0.65254  0.16560  1.0000
  H   H524      1.0  0.02972  0.62434  0.15952  1.0000
  H   H525      1.0  0.30025  0.70191  0.10510  1.0000
  H   H526      1.0  0.04555  0.65784  0.09841  1.0000
  H   H527      1.0  0.08517  0.70567  0.15170  1.0000
  C   C681      1.0  0.40757  0.95442  0.13523  1.0000
  H   H528      1.0  0.32096  0.87199  0.15620  1.0000
  H   H529      1.0  0.12510  0.69144  0.19245  1.0000
  H   H530      1.0  0.10202  0.64448  0.14323  1.0000
  C   C682      1.0  0.43580  0.89491  0.15884  1.0000
  C   C683      1.0  0.12617  0.81506  0.17338  1.0000
  H   H531      1.0  0.42532  0.97189  0.08428  1.0000
  C   C684      1.0  0.29983  0.73623  0.11340  1.0000
  H   H532      1.0  0.10077  0.73636  0.17464  1.0000
  C   C685      1.0  0.03874  0.63732  0.20295  1.0000
  H   H533      1.0  0.17526  0.65949  0.09908  1.0000
  P   P22       1.0  0.37557  0.96420  0.99048  1.0000
  H   H534      1.0  0.23227  0.79723  0.14036  1.0000
  C   C686      1.0  0.05405  0.61978  0.20018  1.0000
  H   H535      1.0  0.29981  0.69124  0.17075  1.0000
  C   C687      1.0  0.42264  0.97851  0.99863  1.0000
  H   H536      1.0  0.10617  0.53888  0.14893  1.0000
  H   H537      1.0  0.36652  0.92928  0.14303  1.0000
  H   H538      1.0  0.01641  0.64015  0.12428  1.0000
  H   H539      1.0  0.44585  0.85355  0.09492  1.0000
  H   H540      1.0  0.35425  0.85279  0.17352  1.0000
  C   C688      1.0  0.35189  0.95691  0.00979  1.0000
  H   H541      1.0  0.18413  0.75088  0.17309  1.0000
  C   C689      1.0  0.02090  0.51768  0.04125  1.0000
  C   C690      1.0  0.29048  0.75203  0.12708  1.0000
  H   H542      1.0  0.17106  0.53235  0.98803  1.0000
  H   H543      1.0  0.32724  0.91044  0.14125  1.0000
  C   C691      1.0  0.27573  0.70709  0.13183  1.0000
  C   C692      1.0  0.43875  0.89671  0.00152  1.0000
  H   H544      1.0  0.22472  0.76265  0.16224  1.0000
  C   C693      1.0  0.11851  0.79406  0.16588  1.0000
  C   C694      1.0  0.03906  0.52523  0.00554  1.0000
  H   H545      1.0  0.34920  0.92194  0.00130  1.0000
  C   C695      1.0  0.13976  0.77588  0.21311  1.0000
  C   C696      1.0  0.07687  0.55752  0.16026  1.0000
  H   H546      1.0  0.24131  0.63689  0.12402  1.0000
  H   H547      1.0  0.29879  0.64227  0.07074  1.0000
  C   C697      1.0  0.35039  0.86511  0.99142  1.0000
  C   C698      1.0  0.05239  0.60137  0.21463  1.0000
  C   C699      1.0  0.04368  0.51756  0.05067  1.0000
  H   H548      1.0  0.27124  0.66602  0.09007  1.0000
  H   H549      1.0  0.20166  0.62891  0.10792  1.0000
  C   C700      1.0  0.06388  0.52142  0.03760  1.0000
  C   C701      1.0  0.18618  0.83527  0.19592  1.0000
  H   H550      1.0  0.18781  0.69836  0.10753  1.0000
  C   C702      1.0  0.46347  0.87980  0.07603  1.0000
  H   H551      1.0  0.33464  0.62860  0.13134  1.0000
  H   H552      1.0  0.26673  0.75768  0.15379  1.0000
  C   C703      1.0  0.44438  0.97780  0.00968  1.0000
  H   H553      1.0  0.30017  0.68348  0.21066  1.0000
  H   H554      1.0  0.23450  0.64533  0.20547  1.0000
  H   H555      1.0  0.31293  0.74139  0.10111  1.0000
  C   C704      1.0  0.43484  0.96267  0.20292  1.0000
  P   P23       1.0  0.99446  0.51528  0.05816  1.0000
  H   H556      1.0  0.22699  0.70679  0.12380  1.0000
  C   C705      1.0  0.29254  0.71382  0.11574  1.0000
  H   H557      1.0  0.01649  0.61815  0.02201  1.0000
  H   H558      1.0  0.06756  0.57419  0.99706  1.0000
  H   H559      1.0  0.32125  0.97863  0.05213  1.0000
  C   C706      1.0  0.11070  0.59187  0.16725  1.0000
  C   C707      1.0  0.10083  0.55436  0.15584  1.0000
  C   C708      1.0  0.19456  0.81594  0.20568  1.0000
  C   C709      1.0  0.32581  0.92886  0.02768  1.0000
  H   H560      1.0  0.25326  0.71833  0.15783  1.0000
  H   H561      1.0  0.42957  0.90194  0.01606  1.0000
  H   H562      1.0  0.39168  0.93854  0.02820  1.0000
  C   C710      1.0  0.28561  0.68090  0.17804  1.0000
  C   C711      1.0  0.40616  0.94973  0.02305  1.0000
  P   P24       1.0  0.13815  0.77103  0.16741  1.0000
  C   C712      1.0  0.28598  0.67646  0.20060  1.0000
  H   H563      1.0  0.44772  0.84522  0.13620  1.0000
  H   H564      1.0  0.42996  0.93693  0.04723  1.0000
  C   C713      1.0  0.42327  0.96125  0.09868  1.0000
  H   H565      1.0  0.15373  0.71426  0.22446  1.0000
  C   C714      1.0  0.31800  0.94464  0.04217  1.0000
  H   H566      1.0  0.09923  0.61872  0.01191  1.0000
  H   H567      1.0  0.14765  0.72746  0.18661  1.0000
  C   C715      1.0  0.43244  0.94980  0.18416  1.0000
  H   H568      1.0  0.04033  0.65206  0.19253  1.0000
  C   C716      1.0  0.14844  0.93152  0.20654  1.0000
  C   C717      1.0  0.27374  0.74546  0.14304  1.0000
  H   H569      1.0  0.06378  0.54445  0.15658  1.0000
  C   C718      1.0  0.42864  0.92581  0.11691  1.0000
  C   C719      1.0  0.06976  0.57788  0.16815  1.0000
  H   H570      1.0  0.05102  0.58040  0.17054  1.0000
  C   C720      1.0  0.41658  0.93300  0.13547  1.0000
  C   C721      1.0  0.16775  0.77929  0.15809  1.0000
  C   C722      1.0  0.08670  0.59514  0.17193  1.0000
  C   C723      1.0  0.01914  0.52036  0.12993  1.0000
  C   C724      1.0  0.11772  0.57155  0.15928  1.0000
  C   C725      1.0  0.45053  0.86028  0.14545  1.0000
  H   H571      1.0  0.12397  0.60523  0.16885  1.0000
  C   C726      1.0  0.34368  0.97268  0.02437  1.0000
  H   H572      1.0  0.08846  0.65946  0.10772  1.0000
  P   P25       1.0  0.41286  0.91510  0.15948  1.0000
  H   H573      1.0  0.30572  0.93971  0.05524  1.0000
  C   C727      1.0  0.00283  0.51725  0.08662  1.0000
  H   H574      1.0  0.99434  0.61625  0.98701  1.0000
  C   C728      1.0  0.41602  0.93161  0.18377  1.0000
  C   C729      1.0  0.34172  0.90213  0.14921  1.0000
  C   C730      1.0  0.37147  0.96922  0.07465  1.0000
  C   C731      1.0  0.05146  0.65169  0.11423  1.0000
  C   C732      1.0  0.38349  0.90173  0.15923  1.0000
  H   H575      1.0  0.39385  0.87166  0.17617  1.0000
  C   C733      1.0  0.45791  0.89938  0.16885  1.0000
  C   C734      1.0  0.13151  0.91394  0.20809  1.0000
  H   H576      1.0  0.06247  0.80674  0.15003  1.0000
  H   H577      1.0  0.07735  0.52899  0.00520  1.0000
  H   H578      1.0  0.47745  0.91657  0.12583  1.0000
  C   C735      1.0  0.11100  0.83285  0.17255  1.0000
  H   H579      1.0  0.16968  0.86617  0.20086  1.0000
  H   H580      1.0  0.31930  0.91176  0.02942  1.0000
  H   H581      1.0  0.14955  0.49596  0.98646  1.0000
  H   H582      1.0  0.29634  0.76938  0.12543  1.0000
  H   H583      1.0  0.30729  0.65208  0.15095  1.0000
  C   C736      1.0  0.18689  0.76613  0.16364  1.0000
  C   C737      1.0  0.06680  0.63450  0.15463  1.0000
  C   C738      1.0  0.17336  0.84783  0.23156  1.0000
  C   C739      1.0  0.36421  0.91279  0.15019  1.0000
  C   C740      1.0  0.03501  0.64169  0.12886  1.0000
  C   C741      1.0  0.35702  0.86972  0.16740  1.0000
  C   C742      1.0  0.07559  0.65275  0.11953  1.0000
  C   C743      1.0  0.08029  0.80907  0.15655  1.0000
  C   C744      1.0  0.47254  0.86498  0.15520  1.0000
  C   C745      1.0  0.14095  0.76124  0.19550  1.0000
  C   C746      1.0  0.37219  0.85480  0.99141  1.0000
  C   C747      1.0  0.04291  0.59572  0.01190  1.0000
  C   C748      1.0  0.46279  0.86138  0.09030  1.0000
  H   H584      1.0  0.44340  0.95403  0.16997  1.0000
  H   H585      1.0  0.47224  0.62499  0.23360  1.0000
  C   C749      1.0  0.44704  0.96289  0.02727  1.0000
  C   C750      1.0  0.10121  0.63854  0.19187  1.0000
  H   H586      1.0  0.13614  0.56949  0.15491  1.0000
  H   H587      1.0  0.43509  0.90918  0.11610  1.0000
  H   H588      1.0  0.02580  0.52163  0.14650  1.0000
  C   C751      1.0  0.19979  0.68508  0.11072  1.0000
  C   C752      1.0  0.19269  0.66321  0.10597  1.0000
  C   C753      1.0  0.20766  0.64592  0.11094  1.0000
  C   C754      1.0  0.22998  0.65052  0.12018  1.0000
  C   C755      1.0  0.23751  0.67253  0.12454  1.0000
  C   C756      1.0  0.22206  0.68976  0.12008  1.0000
  P   P26       1.0  0.26672  0.67815  0.13595  1.0000
  C   C757      1.0  0.26692  0.67227  0.16509  1.0000
  C   C758      1.0  0.28718  0.66088  0.12198  1.0000
  C   C759      1.0  0.28500  0.65792  0.09927  1.0000
  C   C760      1.0  0.30061  0.64451  0.08825  1.0000
  C   C761      1.0  0.31850  0.63396  0.09980  1.0000
  C   C762      1.0  0.32079  0.63682  0.12238  1.0000
  H   H589      1.0  0.18306  0.94395  0.21663  1.0000
  C   C763      1.0  0.40329  0.96454  0.00538  1.0000
  C   C764      1.0  0.14915  0.73131  0.22134  1.0000
  C   C765      1.0  0.45362  0.91171  0.98965  1.0000
  H   H590      1.0  0.44746  0.97673  0.20309  1.0000
  C   C766      1.0  0.26757  0.66365  0.21047  1.0000
  H   H591      1.0  0.46132  0.91451  0.17775  1.0000
  H   H592      1.0  0.00137  0.52215  0.01107  1.0000
  C   C767      1.0  0.08805  0.82986  0.16415  1.0000
  H   H593      1.0  0.10644  0.49752  0.98986  1.0000
  H   H594      1.0  0.08134  0.52208  0.04512  1.0000
  C   C768      1.0  0.14310  0.76818  0.23461  1.0000
  H   H595      1.0  0.15379  0.67335  0.21700  1.0000
  H   H596      1.0  0.04610  0.51528  0.06816  1.0000
  H   H597      1.0  0.00549  0.56189  0.04617  1.0000
  H   H598      1.0  0.18846  0.83810  0.17845  1.0000
  C   C769      1.0  0.12020  0.48616  0.07105  1.0000
  C   C770      1.0  0.14574  0.73891  0.19986  1.0000
  H   H599      1.0  0.14387  0.81762  0.17994  1.0000
  H   H600      1.0  0.42464  0.86309  0.00427  1.0000
  C   C771      1.0  0.42094  0.95744  0.22143  1.0000
  H   H601      1.0  0.20331  0.80386  0.19585  1.0000
  H   H602      1.0  0.45594  0.92868  0.99498  1.0000
  C   C772      1.0  0.40467  0.93930  0.22121  1.0000
  H   H603      1.0  0.14835  0.63329  0.22642  1.0000
  C   C773      1.0  0.16996  0.93029  0.21781  1.0000
  H   H604      1.0  0.11703  0.84896  0.17848  1.0000
  C   C774      1.0  0.01916  0.50002  0.11933  1.0000
  C   C775      1.0  0.17455  0.91153  0.23072  1.0000
  C   C776      1.0  0.01106  0.53915  0.11896  1.0000
  H   H605      1.0  0.12277  0.88164  0.22206  1.0000
  C   C777      1.0  0.00990  0.60645  0.98921  1.0000
  H   H606      1.0  0.01144  0.55498  0.12706  1.0000
  C   C778      1.0  0.15756  0.89386  0.23247  1.0000
  H   H607      1.0  0.48629  0.90383  0.05877  1.0000
  C   C779      1.0  0.02116  0.63592  0.21918  1.0000
  C   C780      1.0  0.48559  0.88961  0.06985  1.0000
  H   H608      1.0  0.26764  0.66076  0.22808  1.0000
  C   C781      1.0  0.48412  0.85290  0.09836  1.0000
  H   H609      1.0  0.48193  0.95569  0.11327  1.0000
  H   H610      1.0  0.99714  0.55251  0.08909  1.0000
  H   H611      1.0  0.00916  0.64937  0.22103  1.0000
  C   C782      1.0  0.03482  0.60003  0.23088  1.0000
  C   C783      1.0  0.01912  0.61723  0.23307  1.0000
  H   H612      1.0  0.02591  0.48557  0.12767  1.0000
  H   H613      1.0  0.33082  0.98339  0.11248  1.0000
  H   H614      1.0  0.39388  0.93525  0.23555  1.0000
  Fe  Fe51      1.0  0.39833  0.59343  0.35398  1.0000
  S   S101      1.0  0.36343  0.58181  0.33893  1.0000
  S   S102      1.0  0.43345  0.58972  0.33655  1.0000
  Fe  Fe52      1.0  0.37584  0.60544  0.39746  1.0000
  S   S103      1.0  0.33926  0.59505  0.38580  1.0000
  S   S104      1.0  0.38970  0.61773  0.43045  1.0000
  Fe  Fe53      1.0  0.35674  0.56533  0.37188  1.0000
  S   S105      1.0  0.34217  0.53037  0.37994  1.0000
  Fe  Fe54      1.0  0.34855  0.61268  0.35341  1.0000
  S   S106      1.0  0.31951  0.63443  0.33756  1.0000
  S   S107      1.0  0.39250  0.57471  0.38559  1.0000
  S   S108      1.0  0.38429  0.62516  0.36646  1.0000
  Fe  Fe55      1.0  0.07972  0.87856  0.35230  1.0000
  S   S109      1.0  0.11254  0.89573  0.33750  1.0000
  S   S110      1.0  0.04533  0.87713  0.33293  1.0000
  Fe  Fe56      1.0  0.10485  0.86647  0.39452  1.0000
  S   S111      1.0  0.13923  0.88230  0.38277  1.0000
  S   S112      1.0  0.09825  0.84952  0.42769  1.0000
  Fe  Fe57      1.0  0.11734  0.91057  0.37089  1.0000
  S   S113      1.0  0.12830  0.94536  0.38241  1.0000
  Fe  Fe58      1.0  0.13182  0.86583  0.35029  1.0000
  S   S114      1.0  0.16344  0.85118  0.33179  1.0000
  S   S115      1.0  0.08325  0.89542  0.38463  1.0000
  S   S116      1.0  0.09855  0.84794  0.36305  1.0000
  H   H615      1.0  0.44720  0.60181  0.25936  1.0000
  C   C784      1.0  0.45378  0.59701  0.44926  1.0000
  S   S117      1.0  0.28827  0.69788  0.25634  1.0000
  C   C785      1.0  0.99481  0.87305  0.38082  1.0000
  S   S118      1.0  0.18975  0.76676  0.27387  1.0000
  C   C786      1.0  0.07221  0.91136  0.46755  1.0000
  C   C787      1.0  0.17033  0.82737  0.31595  1.0000
  C   C788      1.0  0.19344  0.82583  0.30731  1.0000
  C   C789      1.0  0.19984  0.80746  0.29470  1.0000
  C   C790      1.0  0.18313  0.79023  0.29034  1.0000
  C   C791      1.0  0.16006  0.79168  0.29913  1.0000
  C   C792      1.0  0.15371  0.81001  0.31182  1.0000
  H   H616      1.0  0.20658  0.83897  0.31042  1.0000
  H   H617      1.0  0.21766  0.80674  0.28822  1.0000
  H   H618      1.0  0.14695  0.77849  0.29610  1.0000
  H   H619      1.0  0.13595  0.81070  0.31844  1.0000
  C   C793      1.0  0.11447  0.97258  0.34769  1.0000
  C   C794      1.0  0.12168  0.97108  0.36959  1.0000
  H   H620      1.0  0.47246  0.49308  0.37688  1.0000
  H   H621      1.0  0.11268  0.95769  0.33811  1.0000
  C   C795      1.0  0.43180  0.66181  0.47018  1.0000
  C   C796      1.0  0.01688  0.87451  0.36997  1.0000
  C   C797      1.0  0.01783  0.87541  0.34708  1.0000
  H   H622      1.0  0.29541  0.53954  0.30165  1.0000
  H   H623      1.0  0.03318  0.87479  0.37930  1.0000
  H   H624      1.0  0.42857  0.58171  0.42711  1.0000
  C   C798      1.0  0.23399  0.82598  0.44813  1.0000
  C   C799      1.0  0.12447  0.87865  0.45378  1.0000
  C   C800      1.0  0.10679  0.86172  0.45283  1.0000
  C   C801      1.0  0.09639  0.85346  0.47245  1.0000
  C   C802      1.0  0.19868  0.88129  0.39625  1.0000
  H   H625      1.0  0.13242  0.88520  0.43875  1.0000
  H   H626      1.0  0.08267  0.84039  0.47186  1.0000
  C   C803      1.0  0.31119  0.65186  0.31462  1.0000
  C   C804      1.0  0.32468  0.65420  0.29532  1.0000
  C   C805      1.0  0.31722  0.66804  0.27777  1.0000
  C   C806      1.0  0.29621  0.67999  0.27905  1.0000
  C   C807      1.0  0.28272  0.67765  0.29834  1.0000
  C   C808      1.0  0.29014  0.66374  0.31586  1.0000
  H   H627      1.0  0.34074  0.64516  0.29376  1.0000
  H   H628      1.0  0.32790  0.66956  0.26305  1.0000
  H   H629      1.0  0.26658  0.68663  0.29982  1.0000
  H   H630      1.0  0.27942  0.66219  0.33057  1.0000
  C   C809      1.0  0.35146  0.60555  0.45752  1.0000
  C   C810      1.0  0.37554  0.61203  0.45604  1.0000
  C   C811      1.0  0.38865  0.61496  0.47545  1.0000
  H   H631      1.0  0.34110  0.60341  0.44274  1.0000
  H   H632      1.0  0.40716  0.62017  0.47458  1.0000
  C   C812      1.0  0.35455  0.50638  0.36910  1.0000
  S   S119      1.0  0.21854  0.71411  0.24698  1.0000
  C   C813      1.0  0.36621  0.50699  0.34885  1.0000
  C   C814      1.0  0.20554  0.81456  0.39726  1.0000
  H   H633      1.0  0.36935  0.52271  0.34026  1.0000
  H   H634      1.0  0.45492  0.64530  0.44841  1.0000
  C   C815      1.0  0.45886  0.60867  0.37063  1.0000
  C   C816      1.0  0.45944  0.59561  0.35195  1.0000
  C   C817      1.0  0.19966  0.80153  0.37915  1.0000
  H   H635      1.0  0.44214  0.61473  0.37628  1.0000
  S   S120      1.0  0.25717  0.75752  0.24797  1.0000
  C   C818      1.0  0.39344  0.63742  0.31031  1.0000
  C   C819      1.0  0.19983  0.88945  0.30379  1.0000
  C   C820      1.0  0.99649  0.87502  0.33515  1.0000
  C   C821      1.0  0.40876  0.51132  0.39305  1.0000
  H   H636      1.0  0.46236  0.59241  0.29633  1.0000
  C   C822      1.0  0.18280  0.89133  0.43145  1.0000
  H   H637      1.0  0.18117  0.93475  0.39501  1.0000
  H   H638      1.0  0.22316  0.81365  0.40413  1.0000
  H   H639      1.0  0.35403  0.51687  0.42371  1.0000
  H   H640      1.0  0.07987  0.84546  0.29881  1.0000
  H   H641      1.0  0.27985  0.49464  0.37588  1.0000
  C   C823      1.0  0.47335  0.60246  0.28504  1.0000
  C   C824      1.0  0.18154  0.88430  0.28903  1.0000
  C   C825      1.0  0.19247  0.87536  0.41796  1.0000
  C   C826      1.0  0.08123  0.92142  0.44832  1.0000
  C   C827      1.0  0.03708  0.86263  0.43601  1.0000
  H   H642      1.0  0.38058  0.48770  0.32302  1.0000
  H   H643      1.0  0.16340  0.88630  0.29422  1.0000
  H   H644      1.0  0.26257  0.80894  0.46364  1.0000
  C   C828      1.0  0.43629  0.55104  0.48303  1.0000
  H   H645      1.0  0.44782  0.66032  0.29717  1.0000
  C   C829      1.0  0.33090  0.53942  0.43874  1.0000
  H   H646      1.0  0.32073  0.54192  0.42387  1.0000
  C   C830      1.0  0.17891  0.91270  0.42320  1.0000
  H   H647      1.0  0.02507  0.92094  0.39128  1.0000
  H   H648      1.0  0.01613  0.92991  0.46607  1.0000
  H   H649      1.0  0.19132  0.91096  0.23933  1.0000
  C   C831      1.0  0.41655  0.63911  0.30201  1.0000
  C   C832      1.0  0.04300  0.93571  0.36351  1.0000
  P   P27       1.0  0.38895  0.50492  0.45753  1.0000
  C   C833      1.0  0.41454  0.51800  0.47052  1.0000
  C   C834      1.0  0.22884  0.87844  0.27730  1.0000
  C   C835      1.0  0.48122  0.58765  0.34497  1.0000
  C   C836      1.0  0.99465  0.94282  0.42462  1.0000
  C   C837      1.0  0.35055  0.48584  0.38002  1.0000
  H   H650      1.0  0.34199  0.48528  0.39584  1.0000
  H   H651      1.0  0.46510  0.72265  0.36678  1.0000
  H   H652      1.0  0.40237  0.55168  0.46728  1.0000
  C   C838      1.0  0.32500  0.55029  0.45789  1.0000
  H   H653      1.0  0.14035  0.82582  0.26244  1.0000
  H   H654      1.0  0.48354  0.52857  0.39454  1.0000
  C   C839      1.0  0.34059  0.60243  0.47824  1.0000
  H   H655      1.0  0.99432  0.87215  0.39852  1.0000
  H   H656      1.0  0.42399  0.62494  0.29423  1.0000
  H   H657      1.0  0.20240  0.86145  0.47323  1.0000
  H   H658      1.0  0.19919  0.90705  0.37122  1.0000
  C   C840      1.0  0.05526  0.95445  0.35485  1.0000
  Fe  Fe59      1.0  0.25833  0.72019  0.24297  1.0000
  C   C841      1.0  0.02390  0.98264  0.43634  1.0000
  H   H659      1.0  0.42276  0.96747  0.23594  1.0000
  C   C842      1.0  0.44326  0.48580  0.31956  1.0000
  C   C843      1.0  0.99880  0.83161  0.43524  1.0000
  C   C844      1.0  0.04322  0.93790  0.44159  1.0000
  H   H660      1.0  0.06299  0.95405  0.33859  1.0000
  C   C845      1.0  0.14581  0.82272  0.47118  1.0000
  C   C846      1.0  0.18670  0.85051  0.47246  1.0000
  C   C847      1.0  0.13235  0.88660  0.47422  1.0000
  H   H661      1.0  0.31029  0.56133  0.45790  1.0000
  C   C848      1.0  0.99106  0.91963  0.42424  1.0000
  H   H662      1.0  0.32184  0.59789  0.47927  1.0000
  H   H663      1.0  0.02108  0.87515  0.46478  1.0000
  H   H664      1.0  0.43269  0.48728  0.47489  1.0000
  C   C849      1.0  0.21059  0.87330  0.26248  1.0000
  C   C850      1.0  0.30857  0.51496  0.32406  1.0000
  H   H665      1.0  0.01220  0.81217  0.47650  1.0000
  C   C851      1.0  0.06685  0.93470  0.43538  1.0000
  H   H666      1.0  0.25763  0.51824  0.29459  1.0000
  H   H667      1.0  0.15235  0.82015  0.43693  1.0000
  H   H668      1.0  0.14343  0.81805  0.37027  1.0000
  C   C852      1.0  0.99995  0.84764  0.45167  1.0000
  C   C853      1.0  0.32612  0.72961  0.32210  1.0000
  C   C854      1.0  0.32556  0.72731  0.29938  1.0000
  C   C855      1.0  0.34366  0.71645  0.28884  1.0000
  C   C856      1.0  0.36206  0.70741  0.30103  1.0000
  C   C857      1.0  0.36245  0.70918  0.32395  1.0000
  C   C858      1.0  0.34461  0.72080  0.33435  1.0000
  P   P28       1.0  0.38583  0.69706  0.33994  1.0000
  C   C859      1.0  0.37311  0.68445  0.36477  1.0000
  C   C860      1.0  0.39788  0.67487  0.32430  1.0000
  C   C861      1.0  0.38410  0.65527  0.32127  1.0000
  C   C862      1.0  0.41629  0.54114  0.47306  1.0000
  C   C863      1.0  0.27524  0.83902  0.44703  1.0000
  H   H669      1.0  0.29365  0.83690  0.45149  1.0000
  C   C864      1.0  0.42062  0.67693  0.31475  1.0000
  C   C865      1.0  0.34952  0.67592  0.36485  1.0000
  C   C866      1.0  0.34000  0.66482  0.38339  1.0000
  C   C867      1.0  0.35393  0.66210  0.40208  1.0000
  C   C868      1.0  0.37731  0.67072  0.40233  1.0000
  C   C869      1.0  0.38688  0.68186  0.38381  1.0000
  C   C870      1.0  0.40861  0.71791  0.34661  1.0000
  C   C871      1.0  0.43065  0.71159  0.35495  1.0000
  C   C872      1.0  0.44820  0.72768  0.36029  1.0000
  C   C873      1.0  0.44392  0.75021  0.35731  1.0000
  C   C874      1.0  0.42210  0.75666  0.34897  1.0000
  C   C875      1.0  0.40450  0.74061  0.34365  1.0000
  H   H670      1.0  0.31192  0.73787  0.33023  1.0000
  H   H671      1.0  0.31086  0.73350  0.28989  1.0000
  H   H672      1.0  0.34284  0.71437  0.27124  1.0000
  H   H673      1.0  0.37557  0.69863  0.29254  1.0000
  H   H674      1.0  0.34468  0.72258  0.35198  1.0000
  H   H675      1.0  0.36626  0.65353  0.32780  1.0000
  C   C876      1.0  0.45072  0.64837  0.46539  1.0000
  C   C877      1.0  0.14770  0.74590  0.23872  1.0000
  H   H676      1.0  0.99707  0.87573  0.31744  1.0000
  H   H677      1.0  0.43120  0.69224  0.31565  1.0000
  H   H678      1.0  0.33855  0.67714  0.35036  1.0000
  H   H679      1.0  0.32204  0.65763  0.38290  1.0000
  H   H680      1.0  0.34685  0.65281  0.41620  1.0000
  H   H681      1.0  0.38822  0.66802  0.41669  1.0000
  H   H682      1.0  0.40515  0.68780  0.38443  1.0000
  H   H683      1.0  0.43431  0.69418  0.35730  1.0000
  H   H684      1.0  0.08336  0.90106  0.47753  1.0000
  H   H685      1.0  0.45750  0.76268  0.36150  1.0000
  H   H686      1.0  0.41877  0.77414  0.34666  1.0000
  H   H687      1.0  0.38776  0.74604  0.33723  1.0000
  H   H688      1.0  0.45940  0.56393  0.40519  1.0000
  C   C878      1.0  0.17724  0.80272  0.36951  1.0000
  C   C879      1.0  0.29186  0.52354  0.30967  1.0000
  H   H689      1.0  0.03474  0.97238  0.46899  1.0000
  C   C880      1.0  0.03428  0.92769  0.46097  1.0000
  C   C881      1.0  0.35762  0.53334  0.47680  1.0000
  C   C882      1.0  0.18497  0.91841  0.40157  1.0000
  C   C883      1.0  0.10937  0.83329  0.28056  1.0000
  H   H690      1.0  0.23754  0.89012  0.30960  1.0000
  H   H691      1.0  0.20579  0.86919  0.38538  1.0000
  H   H692      1.0  0.47598  0.49924  0.33272  1.0000
  H   H693      1.0  0.18147  0.82600  0.25871  1.0000
  C   C884      1.0  0.27056  0.51155  0.30578  1.0000
  H   H694      1.0  0.24086  0.87459  0.41876  1.0000
  H   H695      1.0  0.14641  0.89933  0.47484  1.0000
  C   C885      1.0  0.04880  0.91452  0.47391  1.0000
  H   H696      1.0  0.01555  0.81904  0.40645  1.0000
  H   H697      1.0  0.09075  0.88493  0.29112  1.0000
  H   H698      1.0  0.05229  0.87426  0.43651  1.0000
  H   H699      1.0  0.15088  0.74009  0.25535  1.0000
  H   H700      1.0  0.15345  0.84095  0.40231  1.0000
  H   H701      1.0  0.48171  0.57710  0.33087  1.0000
  C   C886      1.0  0.12969  0.83901  0.26814  1.0000
  H   H702      1.0  0.21257  0.79076  0.37231  1.0000
  H   H703      1.0  0.19549  0.89510  0.32001  1.0000
  C   C887      1.0  0.30398  0.49444  0.33461  1.0000
  H   H704      1.0  0.09937  0.91877  0.44331  1.0000
  H   H705      1.0  0.29363  0.49828  0.41394  1.0000
  C   C888      1.0  0.40161  0.51591  0.41440  1.0000
  H   H706      1.0  0.24715  0.87596  0.27283  1.0000
  H   H707      1.0  0.32499  0.52434  0.32732  1.0000
  H   H708      1.0  0.12959  0.81243  0.47058  1.0000
  C   C889      1.0  0.10152  0.87215  0.28444  1.0000
  H   H709      1.0  0.17286  0.79301  0.35518  1.0000
  P   P29       1.0  0.02451  0.95506  0.42498  1.0000
  C   C890      1.0  0.19508  0.90278  0.38816  1.0000
  H   H710      1.0  0.04965  0.84630  0.40741  1.0000
  H   H711      1.0  0.04121  0.92075  0.35393  1.0000
  H   H712      1.0  0.40986  0.52455  0.38075  1.0000
  C   C891      1.0  0.47786  0.60061  0.45465  1.0000
  H   H713      1.0  0.07428  0.94223  0.42049  1.0000
  H   H714      1.0  0.21518  0.86713  0.24655  1.0000
  H   H715      1.0  0.10480  0.81599  0.28428  1.0000
  C   C892      1.0  0.03591  0.95531  0.39725  1.0000
  C   C893      1.0  0.35013  0.52548  0.43859  1.0000
  C   C894      1.0  0.16063  0.81681  0.37805  1.0000
  H   H716      1.0  0.28257  0.86963  0.42902  1.0000
  H   H717      1.0  0.00549  0.61617  0.24563  1.0000
  C   C895      1.0  0.12186  0.87796  0.27211  1.0000
  C   C896      1.0  0.44716  0.58359  0.43167  1.0000
  C   C897      1.0  0.43350  0.50508  0.47725  1.0000
  C   C898      1.0  0.37255  0.48708  0.33910  1.0000
  C   C899      1.0  0.16646  0.82990  0.39608  1.0000
  C   C900      1.0  0.17931  0.84140  0.45242  1.0000
  C   C901      1.0  0.04888  0.97385  0.38859  1.0000
  C   C902      1.0  0.26582  0.49111  0.31653  1.0000
  C   C903      1.0  0.26899  0.85745  0.43438  1.0000
  H   H718      1.0  0.00595  0.90879  0.42483  1.0000
  H   H719      1.0  0.42134  0.66868  0.45699  1.0000
  C   C904      1.0  0.13613  0.86144  0.26376  1.0000
  C   C905      1.0  0.22755  0.84453  0.43554  1.0000
  C   C906      1.0  0.24525  0.86021  0.42859  1.0000
  P   P30       1.0  0.19682  0.84736  0.42796  1.0000
  C   C907      1.0  0.18894  0.82888  0.40588  1.0000
  C   C908      1.0  0.48004  0.61426  0.38182  1.0000
  C   C909      1.0  0.39876  0.49869  0.43015  1.0000
  C   C910      1.0  0.36405  0.52284  0.45745  1.0000
  C   C911      1.0  0.15875  0.82739  0.45197  1.0000
  C   C912      1.0  0.22346  0.88647  0.29797  1.0000
  C   C913      1.0  0.18673  0.87601  0.26831  1.0000
  C   C914      1.0  0.41336  0.48958  0.38730  1.0000
  H   H720      1.0  0.39768  0.53281  0.41843  1.0000
  H   H721      1.0  0.12669  0.89539  0.26952  1.0000
  C   C915      1.0  0.09535  0.84984  0.28878  1.0000
  H   H722      1.0  0.17060  0.92471  0.43340  1.0000
  C   C916      1.0  0.01933  0.86306  0.45201  1.0000
  H   H723      1.0  0.17767  0.88729  0.44814  1.0000
  C   C917      1.0  0.33823  0.54709  0.47698  1.0000
  C   C918      1.0  0.03367  0.93600  0.38472  1.0000
  H   H724      1.0  0.38287  0.62209  0.30873  1.0000
  P   P31       1.0  0.16321  0.86950  0.24903  1.0000
  C   C919      1.0  0.43002  0.65897  0.30392  1.0000
  C   C920      1.0  0.01653  0.83131  0.41920  1.0000
  C   C921      1.0  0.03569  0.84676  0.41963  1.0000
  H   H725      1.0  0.43997  0.60482  0.45825  1.0000
  C   C922      1.0  0.25775  0.82328  0.45388  1.0000
  H   H726      1.0  0.22061  0.81359  0.45346  1.0000
  C   C923      1.0  0.46451  0.57342  0.41947  1.0000
  C   C924      1.0  0.05827  0.97344  0.36746  1.0000
  H   H727      1.0  0.43742  0.50181  0.31381  1.0000
  H   H728      1.0  0.98951  0.97041  0.37777  1.0000
  H   H729      1.0  0.47945  0.62447  0.39619  1.0000
  Fe  Fe60      1.0  0.21729  0.75162  0.25048  1.0000
  C   C925      1.0  0.18202  0.82845  0.24114  1.0000
  H   H730      1.0  0.03344  0.58568  0.24185  1.0000
  C   C926      1.0  0.47889  0.62089  0.24977  1.0000
  H   H731      1.0  0.08878  0.97974  0.46268  1.0000
  H   H732      1.0  0.31709  0.48800  0.34568  1.0000
  H   H733      1.0  0.41791  0.48591  0.37052  1.0000
  C   C927      1.0  0.46478  0.60782  0.26423  1.0000
  H   H734      1.0  0.14286  0.77957  0.24815  1.0000
  C   C928      1.0  0.46349  0.63832  0.48239  1.0000
  C   C929      1.0  0.46498  0.48429  0.33049  1.0000
  H   H735      1.0  0.43723  0.56884  0.48525  1.0000
  H   H736      1.0  0.19919  0.79775  0.23603  1.0000
  Fe  Fe61      1.0  0.35987  0.60369  0.55546  1.0000
  S   S121      1.0  0.34314  0.59255  0.58786  1.0000
  S   S122      1.0  0.33952  0.60053  0.52332  1.0000
  Fe  Fe62      1.0  0.40767  0.61522  0.57611  1.0000
  S   S123      1.0  0.39483  0.60513  0.60983  1.0000
  S   S124      1.0  0.44463  0.62795  0.56543  1.0000
  Fe  Fe63      1.0  0.37759  0.57540  0.59330  1.0000
  S   S125      1.0  0.38323  0.54096  0.60831  1.0000
  Fe  Fe64      1.0  0.36115  0.62331  0.60212  1.0000
  S   S126      1.0  0.34780  0.64719  0.62886  1.0000
  S   S127      1.0  0.39273  0.58443  0.56022  1.0000
  S   S128      1.0  0.37560  0.63547  0.56912  1.0000
  Fe  Fe65      1.0  0.09818  0.90527  0.59202  1.0000
  S   S129      1.0  0.07974  0.87446  0.60688  1.0000
  S   S130      1.0  0.09379  0.93826  0.60895  1.0000
  Fe  Fe66      1.0  0.11313  0.88101  0.55102  1.0000
  S   S131      1.0  0.09544  0.84891  0.56254  1.0000
  S   S132      1.0  0.13388  0.88731  0.51924  1.0000
  Fe  Fe67      1.0  0.06499  0.86967  0.57292  1.0000
  S   S133      1.0  0.02693  0.86326  0.56101  1.0000
  Fe  Fe68      1.0  0.11195  0.85611  0.59575  1.0000
  S   S134      1.0  0.13119  0.82664  0.61206  1.0000
  S   S135      1.0  0.08180  0.90121  0.55896  1.0000
  S   S136      1.0  0.13125  0.88743  0.58337  1.0000
  Fe  Fe69      1.0  0.24815  0.72056  0.70005  1.0000
  S   S137      1.0  0.25737  0.75751  0.70178  1.0000
  S   S138      1.0  0.25949  0.69464  0.67444  1.0000
  C   C930      1.0  0.20821  0.57789  0.72603  1.0000
  Fe  Fe70      1.0  0.21777  0.76264  0.70498  1.0000
  S   S139      1.0  0.19770  0.79297  0.69135  1.0000
  H   H737      1.0  0.22969  0.54873  0.67746  1.0000
  S   S140      1.0  0.20856  0.72626  0.70127  1.0000
  H   H738      1.0  0.27008  0.55050  0.66182  1.0000
  P   P32       1.0  0.28803  0.54261  0.61747  1.0000
  H   H739      1.0  0.09606  0.85491  0.50786  1.0000
  C   C931      1.0  0.17887  0.80171  0.66925  1.0000
  C   C932      1.0  0.17162  0.82386  0.66842  1.0000
  C   C933      1.0  0.15693  0.83167  0.65132  1.0000
  C   C934      1.0  0.14930  0.81754  0.63454  1.0000
  C   C935      1.0  0.15660  0.79541  0.63533  1.0000
  C   C936      1.0  0.17116  0.78753  0.65251  1.0000
  H   H740      1.0  0.17742  0.83508  0.68114  1.0000
  H   H741      1.0  0.15165  0.84866  0.65098  1.0000
  H   H742      1.0  0.15086  0.78421  0.62255  1.0000
  H   H743      1.0  0.17634  0.77045  0.65280  1.0000
  C   C937      1.0  0.35379  0.60514  0.49763  1.0000
  C   C938      1.0  0.00079  0.86864  0.57597  1.0000
  C   C939      1.0  0.00130  0.87406  0.59817  1.0000
  H   H744      1.0  0.22956  0.92971  0.59895  1.0000
  H   H745      1.0  0.01812  0.87537  0.60667  1.0000
  C   C940      1.0  0.10209  0.96478  0.59752  1.0000
  C   C941      1.0  0.11907  0.96738  0.58083  1.0000
  H   H746      1.0  0.31930  0.53693  0.57991  1.0000
  H   H747      1.0  0.12626  0.95285  0.57359  1.0000
  C   C942      1.0  0.27155  0.56962  0.58359  1.0000
  C   C943      1.0  0.25794  0.64954  0.71761  1.0000
  C   C944      1.0  0.17959  0.65384  0.72363  1.0000
  C   C945      1.0  0.20427  0.59773  0.71437  1.0000
  H   H748      1.0  0.17290  0.92388  0.52925  1.0000
  H   H749      1.0  0.38827  0.61367  0.51092  1.0000
  C   C946      1.0  0.32290  0.66063  0.64079  1.0000
  C   C947      1.0  0.29927  0.65607  0.63449  1.0000
  C   C948      1.0  0.28032  0.66661  0.64491  1.0000
  C   C949      1.0  0.28448  0.68217  0.66164  1.0000
  C   C950      1.0  0.30811  0.68690  0.66779  1.0000
  C   C951      1.0  0.32703  0.67613  0.65759  1.0000
  H   H750      1.0  0.29557  0.64429  0.62166  1.0000
  H   H751      1.0  0.26225  0.66270  0.63990  1.0000
  H   H752      1.0  0.31183  0.69876  0.68054  1.0000
  H   H753      1.0  0.34510  0.67993  0.66271  1.0000
  C   C952      1.0  0.36238  0.51561  0.57540  1.0000
  C   C953      1.0  0.37223  0.51594  0.59643  1.0000
  H   H754      1.0  0.48577  0.62949  0.64162  1.0000
  H   H755      1.0  0.06151  0.97868  0.50933  1.0000
  C   C954      1.0  0.45599  0.49975  0.63164  1.0000
  C   C955      1.0  0.46889  0.60171  0.59471  1.0000
  C   C956      1.0  0.47041  0.61676  0.57702  1.0000
  H   H756      1.0  0.46886  0.67869  0.59304  1.0000
  H   H757      1.0  0.45168  0.59646  0.60127  1.0000
  H   H758      1.0  0.28152  0.80671  0.60534  1.0000
  C   C957      1.0  0.17621  0.92878  0.54601  1.0000
  H   H759      1.0  0.18062  0.89628  0.68212  1.0000
  H   H760      1.0  0.46963  0.57543  0.54346  1.0000
  H   H761      1.0  0.42538  0.54154  0.56299  1.0000
  C   C958      1.0  0.29978  0.58211  0.63856  1.0000
  H   H762      1.0  0.16317  0.69324  0.68659  1.0000
  C   C959      1.0  0.07754  0.94726  0.51347  1.0000
  C   C960      1.0  0.17536  0.95106  0.55179  1.0000
  C   C961      1.0  0.30764  0.56131  0.63236  1.0000
  H   H763      1.0  0.19505  0.53778  0.65428  1.0000
  H   H764      1.0  0.42277  0.49781  0.59471  1.0000
  H   H765      1.0  0.04062  0.92605  0.57842  1.0000
  H   H766      1.0  0.46831  0.50507  0.49190  1.0000
  C   C962      1.0  0.17304  0.67980  0.69364  1.0000
  H   H767      1.0  0.17011  0.57632  0.67310  1.0000
  H   H768      1.0  0.28518  0.95624  0.63997  1.0000
  C   C963      1.0  0.13867  0.90174  0.64259  1.0000
  C   C964      1.0  0.01295  0.92819  0.62776  1.0000
  C   C965      1.0  0.33162  0.55658  0.63530  1.0000
  H   H769      1.0  0.06090  0.93831  0.51711  1.0000
  H   H770      1.0  0.18731  0.90583  0.59601  1.0000
  C   C966      1.0  0.43814  0.51529  0.63308  1.0000
  C   C967      1.0  0.27246  0.57920  0.56253  1.0000
  H   H771      1.0  0.00426  0.90680  0.52324  1.0000
  H   H772      1.0  0.33848  0.54128  0.62943  1.0000
  C   C968      1.0  0.23901  0.53489  0.61629  1.0000
  H   H773      1.0  0.42990  0.54924  0.63887  1.0000
  C   C969      1.0  0.34730  0.57207  0.64501  1.0000
  C   C970      1.0  0.45806  0.64318  0.50423  1.0000
  H   H774      1.0  0.35157  0.60493  0.65822  1.0000
  H   H775      1.0  0.01538  0.92323  0.64472  1.0000
  C   C971      1.0  0.23226  0.54498  0.66035  1.0000
  C   C972      1.0  0.30743  0.50547  0.63757  1.0000
  H   H776      1.0  0.31676  0.82167  0.58497  1.0000
  H   H777      1.0  0.09811  0.91808  0.51599  1.0000
  C   C973      1.0  0.44999  0.52070  0.54675  1.0000
  H   H778      1.0  0.28930  0.67013  0.71089  1.0000
  C   C974      1.0  0.10395  0.86168  0.49287  1.0000
  H   H779      1.0  0.33370  0.55559  0.49184  1.0000
  H   H780      1.0  0.32063  0.55386  0.54274  1.0000
  C   C975      1.0  0.47978  0.50689  0.63484  1.0000
  C   C976      1.0  0.29325  0.80733  0.71097  1.0000
  C   C977      1.0  0.03024  0.92354  0.61226  1.0000
  C   C978      1.0  0.25387  0.82114  0.71555  1.0000
  C   C979      1.0  0.25082  0.82161  0.69282  1.0000
  C   C980      1.0  0.26906  0.81515  0.67894  1.0000
  C   C981      1.0  0.29019  0.80766  0.68821  1.0000
  P   P33       1.0  0.26442  0.81338  0.64974  1.0000
  C   C982      1.0  0.25927  0.78415  0.64463  1.0000
  C   C983      1.0  0.24030  0.83014  0.64044  1.0000
  C   C984      1.0  0.22431  0.82245  0.62434  1.0000
  C   C985      1.0  0.20570  0.83556  0.61740  1.0000
  C   C986      1.0  0.20320  0.85662  0.62608  1.0000
  C   C987      1.0  0.21955  0.86476  0.64148  1.0000
  C   C988      1.0  0.23815  0.85166  0.64850  1.0000
  C   C989      1.0  0.27832  0.77071  0.63975  1.0000
  C   C990      1.0  0.27431  0.74791  0.63663  1.0000
  C   C991      1.0  0.25135  0.73839  0.63856  1.0000
  C   C992      1.0  0.23247  0.75151  0.64411  1.0000
  C   C993      1.0  0.23647  0.77426  0.64730  1.0000
  C   C994      1.0  0.29019  0.82436  0.63503  1.0000
  C   C995      1.0  0.30609  0.83978  0.64475  1.0000
  C   C996      1.0  0.23493  0.93991  0.61262  1.0000
  C   C997      1.0  0.26649  0.95479  0.63574  1.0000
  C   C998      1.0  0.09858  0.93585  0.51304  1.0000
  H   H781      1.0  0.23387  0.82628  0.68625  1.0000
  H   H782      1.0  0.30404  0.80152  0.67792  1.0000
  H   H783      1.0  0.22590  0.80626  0.61725  1.0000
  H   H784      1.0  0.19275  0.82914  0.60572  1.0000
  H   H785      1.0  0.18829  0.86638  0.62113  1.0000
  H   H786      1.0  0.21757  0.88105  0.64822  1.0000
  H   H787      1.0  0.25065  0.85816  0.66048  1.0000
  H   H788      1.0  0.29632  0.77766  0.63879  1.0000
  H   H789      1.0  0.28901  0.73744  0.63320  1.0000
  H   H790      1.0  0.24831  0.72069  0.63636  1.0000
  H   H791      1.0  0.21483  0.74399  0.64645  1.0000
  H   H792      1.0  0.22181  0.78407  0.65215  1.0000
  H   H793      1.0  0.30320  0.84529  0.66130  1.0000
  H   H794      1.0  0.29106  0.58112  0.53162  1.0000
  H   H795      1.0  0.43444  0.65948  0.52590  1.0000
  H   H796      1.0  0.20110  0.52862  0.61529  1.0000
  H   H797      1.0  0.00486  0.94568  0.56684  1.0000
  H   H798      1.0  0.14131  0.92425  0.61495  1.0000
  C   C999      1.0  0.35382  0.49538  0.56653  1.0000
  H   H799      1.0  0.20095  0.92547  0.65930  1.0000
  H   H800      1.0  0.26006  0.59171  0.55783  1.0000
  C   C1000     1.0  0.28795  0.55374  0.58984  1.0000
  H   H801      1.0  0.28171  0.58671  0.63530  1.0000
  H   H802      1.0  0.17149  0.96357  0.53947  1.0000
  H   H803      1.0  0.17780  0.97447  0.57766  1.0000
  H   H804      1.0  0.18779  0.61192  0.68552  1.0000
  C   C1001     1.0  0.31547  0.59754  0.64833  1.0000
  H   H805      1.0  0.17881  0.85360  0.50687  1.0000
  H   H806      1.0  0.34533  0.84819  0.60265  1.0000
  H   H807      1.0  0.12115  0.89522  0.63805  1.0000
  H   H808      1.0  0.43373  0.48473  0.67112  1.0000
  H   H809      1.0  0.04606  0.91511  0.61722  1.0000
  H   H810      1.0  0.00561  0.79216  0.54406  1.0000
  C   C1002     1.0  0.47280  0.51228  0.54704  1.0000
  C   C1003     1.0  0.17216  0.90245  0.66741  1.0000
  C   C1004     1.0  0.28990  0.57322  0.54772  1.0000
  H   H811      1.0  0.00400  0.86910  0.50877  1.0000
  C   C1005     1.0  0.99280  0.90260  0.50950  1.0000
  H   H812      1.0  0.14062  0.88128  0.67177  1.0000
  C   C1006     1.0  0.19810  0.55772  0.71888  1.0000
  C   C1007     1.0  0.12021  0.94728  0.50881  1.0000
  C   C1008     1.0  0.37377  0.49582  0.60830  1.0000
  H   H813      1.0  0.18108  0.89532  0.55746  1.0000
  C   C1009     1.0  0.07804  0.97013  0.50925  1.0000
  C   C1010     1.0  0.48550  0.52909  0.63966  1.0000
  H   H814      1.0  0.36115  0.53097  0.56606  1.0000
  C   C1011     1.0  0.00685  0.94074  0.58386  1.0000
  H   H815      1.0  0.34571  0.49532  0.55046  1.0000
  H   H816      1.0  0.15136  0.67687  0.72270  1.0000
  C   C1012     1.0  0.25860  0.54150  0.62916  1.0000
  H   H817      1.0  0.45860  0.59561  0.50974  1.0000
  C   C1013     1.0  0.44319  0.53526  0.56293  1.0000
  H   H818      1.0  0.33834  0.85996  0.64079  1.0000
  C   C1014     1.0  0.99232  0.88104  0.50143  1.0000
  C   C1015     1.0  0.14963  0.89394  0.66159  1.0000
  C   C1016     1.0  0.29394  0.81818  0.61328  1.0000
  H   H819      1.0  0.47056  0.54592  0.49740  1.0000
  H   H820      1.0  0.14149  0.96061  0.63898  1.0000
  H   H821      1.0  0.25217  0.59422  0.70694  1.0000
  C   C1017     1.0  0.01037  0.80022  0.50972  1.0000
  C   C1018     1.0  0.45932  0.54173  0.57917  1.0000
  H   H822      1.0  0.36593  0.56850  0.64667  1.0000
  C   C1019     1.0  0.32596  0.84827  0.63311  1.0000
  C   C1020     1.0  0.12234  0.87797  0.49386  1.0000
  P   P34       1.0  0.21634  0.62383  0.72449  1.0000
  H   H823      1.0  0.38092  0.49586  0.62472  1.0000
  C   C1021     1.0  0.24984  0.96591  0.64794  1.0000
  H   H824      1.0  0.43740  0.51576  0.53417  1.0000
  H   H825      1.0  0.46815  0.63660  0.51778  1.0000
  C   C1022     1.0  0.33924  0.59255  0.65151  1.0000
  C   C1023     1.0  0.31381  0.82671  0.60167  1.0000
  H   H826      1.0  0.45404  0.55316  0.59161  1.0000
  C   C1024     1.0  0.15016  0.91813  0.62947  1.0000
  C   C1025     1.0  0.18424  0.55716  0.69990  1.0000
  C   C1026     1.0  0.15320  0.83198  0.49097  1.0000
  C   C1027     1.0  0.17266  0.92695  0.63527  1.0000
  H   H827      1.0  0.25843  0.57502  0.59508  1.0000
  C   C1028     1.0  0.19963  0.64617  0.71287  1.0000
  C   C1029     1.0  0.17347  0.97471  0.62324  1.0000
  C   C1030     1.0  0.32988  0.84167  0.61162  1.0000
  H   H828      1.0  0.14272  0.82891  0.50571  1.0000
  H   H829      1.0  0.30994  0.51562  0.65190  1.0000
  H   H830      1.0  0.36768  0.53110  0.49174  1.0000
  C   C1031     1.0  0.46752  0.54426  0.64144  1.0000
  H   H831      1.0  0.31194  0.63949  0.69573  1.0000
  C   C1032     1.0  0.29736  0.51427  0.61840  1.0000
  C   C1033     1.0  0.44389  0.53743  0.63785  1.0000
  C   C1034     1.0  0.30653  0.55774  0.55397  1.0000
  C   C1035     1.0  0.45501  0.53808  0.48988  1.0000
  C   C1036     1.0  0.30569  0.54816  0.57501  1.0000
  H   H832      1.0  0.41965  0.51031  0.63089  1.0000
  H   H833      1.0  0.24143  0.53059  0.59929  1.0000
  H   H834      1.0  0.30953  0.61375  0.65266  1.0000
  C   C1037     1.0  0.21277  0.53881  0.64732  1.0000
  H   H835      1.0  0.17606  0.54156  0.69462  1.0000
  H   H836      1.0  0.45646  0.64681  0.61703  1.0000
  H   H837      1.0  0.21300  0.97265  0.65226  1.0000
  C   C1038     1.0  0.48225  0.53364  0.57933  1.0000
  C   C1039     1.0  0.17358  0.84593  0.49159  1.0000
  C   C1040     1.0  0.18084  0.57672  0.68783  1.0000
  C   C1041     1.0  0.19088  0.59694  0.69497  1.0000
  C   C1042     1.0  0.48340  0.58184  0.53236  1.0000
  H   H838      1.0  0.02470  0.78898  0.50768  1.0000
  C   C1043     1.0  0.17889  0.95717  0.57359  1.0000
  C   C1044     1.0  0.00316  0.81344  0.49204  1.0000
  C   C1045     1.0  0.02715  0.92974  0.59032  1.0000
  H   H839      1.0  0.28506  0.50649  0.58564  1.0000
  C   C1046     1.0  0.20628  0.65564  0.69242  1.0000
  C   C1047     1.0  0.19308  0.67243  0.68293  1.0000
  C   C1048     1.0  0.27511  0.81412  0.72461  1.0000
  H   H840      1.0  0.47766  0.50078  0.53456  1.0000
  C   C1049     1.0  0.29404  0.63617  0.70189  1.0000
  C   C1050     1.0  0.18289  0.94097  0.58987  1.0000
  C   C1051     1.0  0.16632  0.67051  0.71396  1.0000
  C   C1052     1.0  0.28133  0.65345  0.71047  1.0000
  C   C1053     1.0  0.28348  0.61481  0.70087  1.0000
  C   C1054     1.0  0.18365  0.91897  0.65436  1.0000
  H   H841      1.0  0.22185  0.65033  0.68383  1.0000
  H   H842      1.0  0.19884  0.68016  0.66754  1.0000
  C   C1055     1.0  0.22573  0.96407  0.64251  1.0000
  C   C1056     1.0  0.25514  0.54613  0.65138  1.0000
  H   H843      1.0  0.47185  0.56130  0.64577  1.0000
  C   C1057     1.0  0.18088  0.91264  0.56196  1.0000
  C   C1058     1.0  0.18423  0.91867  0.58380  1.0000
  C   C1059     1.0  0.26008  0.61079  0.70813  1.0000
  H   H844      1.0  0.30929  0.80105  0.71818  1.0000
  P   P35       1.0  0.18686  0.94847  0.61824  1.0000
  C   C1060     1.0  0.21616  0.53368  0.62533  1.0000
  C   C1061     1.0  0.43906  0.65653  0.50896  1.0000
  C   C1062     1.0  0.99959  0.80194  0.53021  1.0000
  H   H845      1.0  0.23941  0.82550  0.72615  1.0000
  C   C1063     1.0  0.24709  0.62820  0.71642  1.0000
  H   H846      1.0  0.27195  0.93313  0.60867  1.0000
  C   C1064     1.0  0.21810  0.95113  0.62474  1.0000
  C   C1065     1.0  0.47722  0.59346  0.51328  1.0000
  H   H847      1.0  0.13641  0.93820  0.50859  1.0000
  C   C1066     1.0  0.25903  0.94178  0.61811  1.0000
  H   H848      1.0  0.24813  0.66334  0.72356  1.0000
  C   C1067     1.0  0.37794  0.61134  0.49613  1.0000
  H   H849      1.0  0.29338  0.60146  0.69419  1.0000
  H   H850      1.0  0.41072  0.67558  0.49570  1.0000
  C   C1068     1.0  0.15139  0.97556  0.63388  1.0000
  C   C1069     1.0  0.12085  0.97025  0.50490  1.0000
  H   H851      1.0  0.20072  0.54256  0.72827  1.0000
  C   C1070     1.0  0.45369  0.51511  0.48687  1.0000
  C   C1071     1.0  0.29345  0.50041  0.60039  1.0000
  H   H852      1.0  0.07945  0.98200  0.61942  1.0000
  H   H853      1.0  0.25560  0.97597  0.66165  1.0000
  H   H854      1.0  0.39172  0.49224  0.50424  1.0000
  C   C1072     1.0  0.42578  0.66567  0.49196  1.0000
  H   H855      1.0  0.04196  0.90657  0.48883  1.0000
  H   H856      1.0  0.40764  0.48959  0.55802  1.0000
  C   C1073     1.0  0.09265  0.98384  0.60656  1.0000
  H   H857      1.0  0.13778  0.97879  0.50168  1.0000
  C   C1074     1.0  0.98941  0.94555  0.59935  1.0000
  C   C1075     1.0  0.99263  0.93923  0.62138  1.0000
  C   C1076     1.0  0.47465  0.65343  0.61754  1.0000
  C   C1077     1.0  0.09972  0.98182  0.50503  1.0000
  C   C1078     1.0  0.48169  0.67140  0.60395  1.0000
  Fe  Fe71      1.0  0.37755  0.86013  0.89247  1.0000
  S   S141      1.0  0.40191  0.88814  0.88092  1.0000
  S   S142      1.0  0.38552  0.84627  0.92655  1.0000
  Fe  Fe72      1.0  0.35002  0.85881  0.84871  1.0000
  S   S143      1.0  0.37232  0.88798  0.83464  1.0000
  S   S144      1.0  0.31688  0.84240  0.83152  1.0000
  Fe  Fe73      1.0  0.40348  0.87050  0.84924  1.0000
  S   S145      1.0  0.43835  0.87121  0.83048  1.0000
  Fe  Fe74      1.0  0.36938  0.90399  0.86760  1.0000
  S   S146      1.0  0.37016  0.93971  0.87973  1.0000
  S   S147      1.0  0.38163  0.84060  0.86148  1.0000
  S   S148      1.0  0.34478  0.87661  0.88096  1.0000
  Fe  Fe75      1.0  0.11429  0.56726  0.87126  1.0000
  S   S149      1.0  0.10572  0.58395  0.83913  1.0000
  S   S150      1.0  0.12955  0.53316  0.87671  1.0000
  Fe  Fe76      1.0  0.10114  0.60736  0.89792  1.0000
  S   S151      1.0  0.09112  0.62727  0.86775  1.0000
  S   S152      1.0  0.09617  0.62232  0.93152  1.0000
  Fe  Fe77      1.0  0.07314  0.59516  0.85700  1.0000
  S   S153      1.0  0.03652  0.58880  0.84183  1.0000
  Fe  Fe78      1.0  0.12453  0.61496  0.85213  1.0000
  S   S154      1.0  0.15571  0.63568  0.83575  1.0000
  S   S155      1.0  0.08076  0.57636  0.88814  1.0000
  S   S156      1.0  0.13542  0.59714  0.88334  1.0000
  H   H858      1.0  0.40453  0.98093  0.82637  1.0000
  S   S157      1.0  0.17993  0.70439  0.75588  1.0000
  S   S158      1.0  0.28831  0.76695  0.76071  1.0000
  H   H859      1.0  0.03087  0.62916  0.80012  1.0000
  C   C1079     1.0  0.16187  0.65470  0.81327  1.0000
  C   C1080     1.0  0.18533  0.66329  0.81014  1.0000
  C   C1081     1.0  0.19137  0.67814  0.79257  1.0000
  C   C1082     1.0  0.17385  0.68497  0.77796  1.0000
  C   C1083     1.0  0.15036  0.67649  0.78113  1.0000
  C   C1084     1.0  0.14441  0.66141  0.79854  1.0000
  H   H860      1.0  0.19901  0.65841  0.82145  1.0000
  H   H861      1.0  0.20949  0.68448  0.79049  1.0000
  H   H862      1.0  0.13660  0.68164  0.77001  1.0000
  H   H863      1.0  0.12628  0.65508  0.80062  1.0000
  C   C1085     1.0  0.00983  0.59844  0.85294  1.0000
  H   H864      1.0  0.02638  0.62530  0.87082  1.0000
  H   H865      1.0  0.13633  0.50737  0.91757  1.0000
  C   C1086     1.0  0.45005  0.97296  0.84198  1.0000
  H   H866      1.0  0.27729  0.81329  0.74223  1.0000
  C   C1087     1.0  0.10385  0.60961  0.95684  1.0000
  C   C1088     1.0  0.11653  0.59012  0.95788  1.0000
  C   C1089     1.0  0.31504  0.82321  0.93958  1.0000
  H   H867      1.0  0.08757  0.63469  0.97584  1.0000
  H   H868      1.0  0.12155  0.58220  0.94290  1.0000
  H   H869      1.0  0.41137  0.90377  0.94921  1.0000
  C   C1090     1.0  0.00817  0.54769  0.93996  1.0000
  C   C1091     1.0  0.11594  0.50810  0.86723  1.0000
  C   C1092     1.0  0.09514  0.50793  0.85474  1.0000
  H   H870      1.0  0.29039  0.88487  0.82909  1.0000
  H   H871      1.0  0.21832  0.89794  0.96089  1.0000
  H   H872      1.0  0.08719  0.52345  0.85061  1.0000
  H   H873      1.0  0.06575  0.51314  0.90413  1.0000
  C   C1093     1.0  0.46566  0.86874  0.84451  1.0000
  C   C1094     1.0  0.19234  0.61352  0.76359  1.0000
  C   C1095     1.0  0.36188  0.96544  0.86802  1.0000
  C   C1096     1.0  0.43670  0.93414  0.84030  1.0000
  C   C1097     1.0  0.07157  0.49703  0.90950  1.0000
  H   H874      1.0  0.15807  0.54342  0.91935  1.0000
  H   H875      1.0  0.99746  0.67172  0.84536  1.0000
  C   C1098     1.0  0.34678  0.96681  0.84991  1.0000
  C   C1099     1.0  0.01666  0.65121  0.82361  1.0000
  H   H876      1.0  0.01158  0.51262  0.93490  1.0000
  C   C1100     1.0  0.03360  0.53048  0.83013  1.0000
  H   H877      1.0  0.34057  0.95181  0.84194  1.0000
  C   C1101     1.0  0.30950  0.82139  0.81163  1.0000
  C   C1102     1.0  0.32612  0.80688  0.80358  1.0000
  C   C1103     1.0  0.31923  0.79038  0.78828  1.0000
  C   C1104     1.0  0.29567  0.78805  0.78051  1.0000
  C   C1105     1.0  0.27902  0.80254  0.78858  1.0000
  C   C1106     1.0  0.28586  0.81892  0.80403  1.0000
  H   H878      1.0  0.34434  0.80832  0.80916  1.0000
  H   H879      1.0  0.33239  0.77939  0.78227  1.0000
  H   H880      1.0  0.26090  0.80124  0.78279  1.0000
  H   H881      1.0  0.27271  0.82988  0.81006  1.0000
  C   C1107     1.0  0.37211  0.85454  0.95125  1.0000
  C   C1108     1.0  0.35061  0.86532  0.95129  1.0000
  H   H882      1.0  0.03873  0.55297  0.80263  1.0000
  H   H883      1.0  0.34209  0.86923  0.93591  1.0000
  H   H884      1.0  0.39932  0.84072  0.97154  1.0000
  C   C1109     1.0  0.01516  0.63726  0.80563  1.0000
  H   H885      1.0  0.03092  0.67636  0.90780  1.0000
  C   C1110     1.0  0.03880  0.58160  0.97512  1.0000
  H   H886      1.0  0.17431  0.64748  0.73965  1.0000
  C   C1111     1.0  0.23003  0.62747  0.79043  1.0000
  C   C1112     1.0  0.43992  0.82504  0.91255  1.0000
  C   C1113     1.0  0.16335  0.52680  0.97270  1.0000
  P   P36       1.0  0.00230  0.59270  0.94638  1.0000
  C   C1114     1.0  0.08884  0.49571  0.92585  1.0000
  C   C1115     1.0  0.00990  0.56909  0.93042  1.0000
  C   C1116     1.0  0.15073  0.50634  0.97182  1.0000
  Fe  Fe79      1.0  0.21147  0.72286  0.73813  1.0000
  C   C1117     1.0  0.08500  0.48768  0.84727  1.0000
  H   H887      1.0  0.20742  0.61635  0.81741  1.0000
  S   S159      1.0  0.21877  0.75971  0.74199  1.0000
  H   H888      1.0  0.09528  0.51089  0.93343  1.0000
  H   H889      1.0  0.34028  0.94860  0.95838  1.0000
  H   H890      1.0  0.34352  0.80443  0.92679  1.0000
  C   C1118     1.0  0.46884  0.96866  0.82771  1.0000
  C   C1119     1.0  0.09748  0.61969  0.97648  1.0000
  C   C1120     1.0  0.01079  0.61903  0.93344  1.0000
  C   C1121     1.0  0.46505  0.79719  0.85249  1.0000
  C   C1122     1.0  0.47003  0.80614  0.93301  1.0000
  C   C1123     1.0  0.02529  0.66045  0.91499  1.0000
  C   C1124     1.0  0.04073  0.64290  0.91510  1.0000
  C   C1125     1.0  0.03362  0.62234  0.92446  1.0000
  H   H891      1.0  0.41910  0.95844  0.85898  1.0000
  H   H892      1.0  0.98800  0.57336  0.83710  1.0000
  H   H893      1.0  0.02577  0.55519  0.87868  1.0000
  C   C1126     1.0  0.48088  0.89305  0.92004  1.0000
  H   H894      1.0  0.99081  0.67114  0.92456  1.0000
  C   C1127     1.0  0.45540  0.93007  0.82608  1.0000
  C   C1128     1.0  0.46287  0.81288  0.83556  1.0000
  H   H895      1.0  0.98814  0.64003  0.88316  1.0000
  C   C1129     1.0  0.39601  0.93022  0.96706  1.0000
  H   H896      1.0  0.29323  0.90792  0.97239  1.0000
  C   C1130     1.0  0.99555  0.63693  0.93378  1.0000
  C   C1131     1.0  0.14343  0.51271  0.93318  1.0000
  H   H897      1.0  0.42436  0.82451  0.90208  1.0000
  C   C1132     1.0  0.19034  0.61121  0.78635  1.0000
  H   H898      1.0  0.45727  0.91363  0.81963  1.0000
  H   H899      1.0  0.24444  0.63315  0.80091  1.0000
  H   H900      1.0  0.17749  0.60810  0.75348  1.0000
  H   H901      1.0  0.05843  0.64526  0.90821  1.0000
  C   C1133     1.0  0.00275  0.65750  0.92445  1.0000
  H   H902      1.0  0.04608  0.60910  0.92486  1.0000
  C   C1134     1.0  0.20860  0.84786  0.87626  1.0000
  C   C1135     1.0  0.20377  0.82623  0.88418  1.0000
  C   C1136     1.0  0.21936  0.81649  0.89897  1.0000
  C   C1137     1.0  0.23994  0.82827  0.90566  1.0000
  C   C1138     1.0  0.24516  0.84986  0.89742  1.0000
  C   C1139     1.0  0.22910  0.85973  0.88300  1.0000
  P   P37       1.0  0.27144  0.86527  0.90645  1.0000
  C   C1140     1.0  0.26489  0.88095  0.93054  1.0000
  C   C1141     1.0  0.29375  0.84536  0.91291  1.0000
  C   C1142     1.0  0.29732  0.83811  0.93465  1.0000
  C   C1143     1.0  0.45847  0.91797  0.89679  1.0000
  C   C1144     1.0  0.27872  0.90143  0.96238  1.0000
  C   C1145     1.0  0.32504  0.82162  0.90112  1.0000
  C   C1146     1.0  0.30728  0.83645  0.89615  1.0000
  C   C1147     1.0  0.28354  0.88985  0.94335  1.0000
  C   C1148     1.0  0.46926  0.84651  0.93340  1.0000
  C   C1149     1.0  0.46577  0.90469  0.97119  1.0000
  H   H903      1.0  0.44172  0.92508  0.89232  1.0000
  C   C1150     1.0  0.24131  0.88408  0.93690  1.0000
  C   C1151     1.0  0.28245  0.88374  0.88457  1.0000
  C   C1152     1.0  0.28139  0.87685  0.86270  1.0000
  C   C1153     1.0  0.21330  0.62277  0.75402  1.0000
  C   C1154     1.0  0.30210  0.91852  0.87217  1.0000
  C   C1155     1.0  0.29273  0.90484  0.88911  1.0000
  H   H904      1.0  0.24831  0.63735  0.76083  1.0000
  H   H905      1.0  0.18787  0.81706  0.87894  1.0000
  H   H906      1.0  0.21554  0.79978  0.90524  1.0000
  H   H907      1.0  0.25176  0.82045  0.91717  1.0000
  H   H908      1.0  0.23243  0.87658  0.87691  1.0000
  H   H909      1.0  0.28678  0.84413  0.94795  1.0000
  C   C1156     1.0  0.02080  0.55300  0.89580  1.0000
  H   H910      1.0  0.02263  0.51739  0.89572  1.0000
  H   H911      1.0  0.33607  0.81556  0.88814  1.0000
  H   H912      1.0  0.30472  0.84136  0.87923  1.0000
  H   H913      1.0  0.30184  0.88764  0.93866  1.0000
  C   C1157     1.0  0.12326  0.58120  0.97836  1.0000
  H   H914      1.0  0.31846  0.81845  0.95647  1.0000
  H   H915      1.0  0.99253  0.62228  0.78137  1.0000
  H   H916      1.0  0.22658  0.87745  0.92736  1.0000
  H   H917      1.0  0.27410  0.86054  0.85862  1.0000
  H   H918      1.0  0.31076  0.93444  0.87584  1.0000
  H   H919      1.0  0.29412  0.91073  0.90564  1.0000
  P   P38       1.0  0.48150  0.87298  0.94258  1.0000
  H   H920      1.0  0.37739  0.89926  0.92381  1.0000
  H   H921      1.0  0.30877  0.92180  0.83748  1.0000
  C   C1158     1.0  0.43403  0.95548  0.84832  1.0000
  H   H922      1.0  0.14272  0.48793  0.88161  1.0000
  C   C1159     1.0  0.33975  0.87036  0.97129  1.0000
  C   C1160     1.0  0.15605  0.53312  0.93408  1.0000
  H   H923      1.0  0.42411  0.92073  0.84486  1.0000
  H   H924      1.0  0.03349  0.65387  0.83197  1.0000
  H   H925      1.0  0.01676  0.58773  0.90024  1.0000
  H   H926      1.0  0.05047  0.53533  0.83750  1.0000
  C   C1161     1.0  0.01913  0.53176  0.90541  1.0000
  H   H927      1.0  0.44044  0.86038  0.91473  1.0000
  H   H928      1.0  0.32286  0.87812  0.97129  1.0000
  C   C1162     1.0  0.25523  0.90432  0.96870  1.0000
  C   C1163     1.0  0.02693  0.54051  0.81041  1.0000
  H   H929      1.0  0.38138  0.98417  0.89223  1.0000
  C   C1164     1.0  0.13977  0.49957  0.95223  1.0000
  H   H930      1.0  0.99975  0.54278  0.78584  1.0000
  C   C1165     1.0  0.29060  0.89066  0.84581  1.0000
  C   C1166     1.0  0.01779  0.59309  0.97226  1.0000
  C   C1167     1.0  0.39631  0.91423  0.95077  1.0000
  H   H931      1.0  0.34185  0.92142  0.92851  1.0000
  C   C1168     1.0  0.32912  0.81522  0.92285  1.0000
  H   H932      1.0  0.44573  0.81964  0.83185  1.0000
  C   C1169     1.0  0.17349  0.74959  0.79254  1.0000
  C   C1170     1.0  0.17969  0.77038  0.78329  1.0000
  C   C1171     1.0  0.20121  0.78112  0.78892  1.0000
  C   C1172     1.0  0.21652  0.77106  0.80376  1.0000
  C   C1173     1.0  0.20998  0.75055  0.81392  1.0000
  C   C1174     1.0  0.18851  0.73971  0.80776  1.0000
  P   P39       1.0  0.22989  0.73761  0.83322  1.0000
  C   C1175     1.0  0.24682  0.71793  0.81842  1.0000
  C   C1176     1.0  0.25039  0.75885  0.84364  1.0000
  C   C1177     1.0  0.27504  0.75601  0.84316  1.0000
  C   C1178     1.0  0.29085  0.77332  0.84915  1.0000
  C   C1179     1.0  0.28225  0.79350  0.85583  1.0000
  C   C1180     1.0  0.25780  0.79639  0.85671  1.0000
  C   C1181     1.0  0.24188  0.77909  0.85083  1.0000
  C   C1182     1.0  0.25096  0.69673  0.82731  1.0000
  C   C1183     1.0  0.26557  0.68236  0.81631  1.0000
  C   C1184     1.0  0.27680  0.68930  0.79679  1.0000
  C   C1185     1.0  0.27336  0.71059  0.78825  1.0000
  C   C1186     1.0  0.25810  0.72470  0.79877  1.0000
  C   C1187     1.0  0.21295  0.72414  0.85538  1.0000
  C   C1188     1.0  0.19936  0.70455  0.85153  1.0000
  C   C1189     1.0  0.18627  0.69386  0.86839  1.0000
  C   C1190     1.0  0.18671  0.70261  0.88941  1.0000
  C   C1191     1.0  0.20033  0.72200  0.89355  1.0000
  C   C1192     1.0  0.21343  0.73274  0.87664  1.0000
  H   H933      1.0  0.15740  0.74069  0.78734  1.0000
  H   H934      1.0  0.16830  0.77770  0.77106  1.0000
  H   H935      1.0  0.20651  0.79678  0.78099  1.0000
  H   H936      1.0  0.23363  0.77917  0.80688  1.0000
  H   H937      1.0  0.18335  0.72341  0.81408  1.0000
  H   H938      1.0  0.28226  0.74072  0.83762  1.0000
  H   H939      1.0  0.30985  0.77136  0.84795  1.0000
  H   H940      1.0  0.29462  0.80707  0.85968  1.0000
  H   H941      1.0  0.25130  0.81231  0.86129  1.0000
  H   H942      1.0  0.22297  0.78173  0.85109  1.0000
  H   H943      1.0  0.24338  0.69132  0.84288  1.0000
  H   H944      1.0  0.26855  0.66601  0.82316  1.0000
  H   H945      1.0  0.28845  0.67836  0.78841  1.0000
  H   H946      1.0  0.28271  0.71636  0.77355  1.0000
  H   H947      1.0  0.25576  0.74118  0.79187  1.0000
  H   H948      1.0  0.19915  0.69728  0.83552  1.0000
  H   H949      1.0  0.17585  0.67870  0.86510  1.0000
  H   H950      1.0  0.17658  0.69424  0.90248  1.0000
  H   H951      1.0  0.20078  0.72864  0.90992  1.0000
  H   H952      1.0  0.22399  0.74756  0.88034  1.0000
  C   C1193     1.0  0.23654  0.89573  0.95593  1.0000
  C   C1194     1.0  0.01593  0.57156  0.90817  1.0000
  C   C1195     1.0  0.47156  0.94724  0.81995  1.0000
  H   H953      1.0  0.44344  0.89899  0.92380  1.0000
  C   C1196     1.0  0.45951  0.90310  0.91462  1.0000
  H   H954      1.0  0.41126  0.93218  0.97763  1.0000
  C   C1197     1.0  0.44915  0.84550  0.91982  1.0000
  C   C1198     1.0  0.37698  0.91143  0.93665  1.0000
  H   H955      1.0  0.45001  0.85283  0.87304  1.0000
  C   C1199     1.0  0.46640  0.85842  0.86514  1.0000
  C   C1200     1.0  0.30106  0.91141  0.85054  1.0000
  C   C1201     1.0  0.46321  0.88253  0.96453  1.0000
  S   S160      1.0  0.25033  0.71528  0.73676  1.0000
  C   C1202     1.0  0.38284  0.84932  0.97140  1.0000
  C   C1203     1.0  0.00975  0.61697  0.86638  1.0000
  C   C1204     1.0  0.20928  0.61791  0.79974  1.0000
  C   C1205     1.0  0.99587  0.50939  0.83162  1.0000
  H   H956      1.0  0.02360  0.50766  0.85615  1.0000
  C   C1206     1.0  0.35614  0.93929  0.95623  1.0000
  C   C1207     1.0  0.16579  0.54030  0.95388  1.0000
  H   H957      1.0  0.19643  0.85547  0.86490  1.0000
  C   C1208     1.0  0.37605  0.94315  0.96970  1.0000
  H   H958      1.0  0.44947  0.79154  0.86175  1.0000
  C   C1209     1.0  0.35684  0.92383  0.93945  1.0000
  H   H959      1.0  0.44611  0.85032  0.97198  1.0000
  H   H960      1.0  0.17521  0.55632  0.95463  1.0000
  C   C1210     1.0  0.01824  0.51490  0.84067  1.0000
  C   C1211     1.0  0.12641  0.48786  0.87229  1.0000
  C   C1212     1.0  0.47930  0.82657  0.94034  1.0000
  H   H961      1.0  0.06908  0.48770  0.83736  1.0000
  Fe  Fe80      1.0  0.25753  0.75272  0.73881  1.0000
  H   H962      1.0  0.17395  0.60457  0.79375  1.0000
  H   H963      1.0  0.36608  0.98045  0.94500  1.0000
  H   H964      1.0  0.47767  0.91632  0.96242  1.0000
  C   C1213     1.0  0.23207  0.62994  0.76765  1.0000
  H   H965      1.0  0.04616  0.57236  0.96186  1.0000
  C   C1214     1.0  0.98805  0.58783  0.84731  1.0000
  C   C1215     1.0  0.01285  0.52910  0.92749  1.0000
  C   C1216     1.0  0.00491  0.53488  0.80109  1.0000
  H   H966      1.0  0.44303  0.78959  0.91349  1.0000
  H   H967      1.0  0.21871  0.57808  0.74091  1.0000
  H   H968      1.0  0.00308  0.54545  0.95699  1.0000
  C   C1217     1.0  0.45040  0.80539  0.91903  1.0000
  H   H969      1.0  0.45704  0.97144  0.88770  1.0000
  C   C1218     1.0  0.98938  0.51945  0.81167  1.0000
  C   C1219     1.0  0.99634  0.66119  0.83118  1.0000
  C   C1220     1.0  0.98805  0.62528  0.87337  1.0000
  H   H970      1.0  0.48131  0.98177  0.82231  1.0000
  H   H971      1.0  0.48603  0.94398  0.80889  1.0000
  C   C1221     1.0  0.47878  0.92299  0.88422  1.0000
  H   H972      1.0  0.48118  0.83282  0.81080  1.0000
  H   H973      1.0  0.47793  0.79087  0.93836  1.0000
  C   C1222     1.0  0.48292  0.82037  0.82370  1.0000
  H   H974      1.0  0.47790  0.93396  0.87002  1.0000
  H   H975      1.0  0.13334  0.56634  0.97904  1.0000
  C   C1223     1.0  0.44821  0.86758  0.97652  1.0000
  H   H976      1.0  0.44470  0.97026  0.92649  1.0000
  C   C1224     1.0  0.43870  0.98336  0.91570  1.0000
  H   H977      1.0  0.25153  0.91310  0.98359  1.0000
  C   C1225     1.0  0.99332  0.63319  0.79527  1.0000
  C   C1226     1.0  0.44552  0.98397  0.89363  1.0000
  Fe  Fe81      1.0  0.57004  0.08950  0.08464  1.0000
  S   S161      1.0  0.58902  0.12298  0.08153  1.0000
  S   S162      1.0  0.53170  0.07760  0.09103  1.0000
  Fe  Fe82      1.0  0.61465  0.06434  0.07464  1.0000
  S   S163      1.0  0.63773  0.09586  0.07042  1.0000
  S   S164      1.0  0.62379  0.02932  0.06474  1.0000
  Fe  Fe83      1.0  0.61932  0.10831  0.10058  1.0000
  S   S165      1.0  0.63754  0.12465  0.13091  1.0000
  Fe  Fe84      1.0  0.60664  0.10901  0.05173  1.0000
  S   S166      1.0  0.60858  0.12973  0.02012  1.0000
  S   S167      1.0  0.59856  0.07542  0.10603  1.0000
  S   S168      1.0  0.58530  0.07695  0.05360  1.0000
  Fe  Fe85      1.0  0.85572  0.38459  0.05073  1.0000
  S   S169      1.0  0.86119  0.35139  0.06676  1.0000
  S   S170      1.0  0.84138  0.39190  0.01650  1.0000
  Fe  Fe86      1.0  0.87293  0.41028  0.09086  1.0000
  S   S171      1.0  0.88015  0.37880  0.11010  1.0000
  S   S172      1.0  0.88528  0.44456  0.10290  1.0000
  Fe  Fe87      1.0  0.89586  0.36710  0.07864  1.0000
  S   S173      1.0  0.93001  0.34888  0.07366  1.0000
  Fe  Fe88      1.0  0.84490  0.36497  0.09748  1.0000
  S   S174      1.0  0.81440  0.34579  0.11686  1.0000
  S   S175      1.0  0.89124  0.39926  0.06060  1.0000
  S   S176      1.0  0.83675  0.39756  0.08020  1.0000
  Fe  Fe89      1.0  0.75720  0.25569  0.21125  1.0000
  S   S177      1.0  0.71840  0.25944  0.20374  1.0000
  S   S178      1.0  0.78931  0.27635  0.19650  1.0000
  Fe  Fe90      1.0  0.71618  0.22203  0.19998  1.0000
  S   S179      1.0  0.69858  0.20934  0.16781  1.0000
  S   S180      1.0  0.75537  0.21859  0.20633  1.0000
  H   H978      1.0  0.76057  0.30175  0.22154  1.0000
  H   H979      1.0  0.53636  0.09584  0.13969  1.0000
  C   C1227     1.0  0.87952  0.27611  0.18937  1.0000
  C   C1228     1.0  0.53657  0.23973  0.11233  1.0000
  H   H980      1.0  0.66204  0.99996  0.02859  1.0000
  H   H981      1.0  0.50975  0.12510  0.12703  1.0000
  H   H982      1.0  0.84210  0.45504  0.07876  1.0000
  C   C1229     1.0  0.95820  0.36069  0.08075  1.0000
  C   C1230     1.0  0.70943  0.28966  0.15081  1.0000
  H   H983      1.0  0.94461  0.38719  0.09955  1.0000
  H   H984      1.0  0.87954  0.34454  0.16875  1.0000
  C   C1231     1.0  0.80777  0.32690  0.13955  1.0000
  C   C1232     1.0  0.82538  0.31810  0.15297  1.0000
  C   C1233     1.0  0.81931  0.30282  0.17016  1.0000
  C   C1234     1.0  0.79552  0.29589  0.17441  1.0000
  C   C1235     1.0  0.77778  0.30487  0.16123  1.0000
  C   C1236     1.0  0.78387  0.32031  0.14410  1.0000
  H   H985      1.0  0.84371  0.32314  0.15031  1.0000
  H   H986      1.0  0.83322  0.29631  0.18032  1.0000
  H   H987      1.0  0.75940  0.29997  0.16429  1.0000
  H   H988      1.0  0.76993  0.32706  0.13412  1.0000
  C   C1237     1.0  0.71844  0.35923  0.17492  1.0000
  H   H989      1.0  0.51840  0.98949  0.00532  1.0000
  C   C1238     1.0  0.69595  0.36054  0.18473  1.0000
  H   H990      1.0  0.87623  0.35879  0.00591  1.0000
  C   C1239     1.0  0.67353  0.29867  0.21154  1.0000
  C   C1240     1.0  0.61613  0.00465  0.07990  1.0000
  C   C1241     1.0  0.61524  0.00423  0.10280  1.0000
  C   C1242     1.0  0.55232  0.03693  0.13043  1.0000
  H   H991      1.0  0.61770  0.01954  0.11165  1.0000
  C   C1243     1.0  0.90541  0.30547  0.17347  1.0000
  H   H992      1.0  0.88681  0.27960  0.15506  1.0000
  C   C1244     1.0  0.49524  0.99510  0.09351  1.0000
  C   C1245     1.0  0.91145  0.29153  0.11452  1.0000
  C   C1246     1.0  0.65550  0.14796  0.14057  1.0000
  C   C1247     1.0  0.65998  0.14975  0.16324  1.0000
  C   C1248     1.0  0.67361  0.16789  0.17182  1.0000
  C   C1249     1.0  0.68286  0.18488  0.15789  1.0000
  C   C1250     1.0  0.67855  0.18304  0.13520  1.0000
  C   C1251     1.0  0.66525  0.16470  0.12659  1.0000
  H   H993      1.0  0.65279  0.13696  0.17432  1.0000
  H   H994      1.0  0.67663  0.16889  0.18928  1.0000
  H   H995      1.0  0.68562  0.19591  0.12417  1.0000
  H   H996      1.0  0.66259  0.16351  0.10911  1.0000
  H   H997      1.0  0.71508  0.33076  0.11198  1.0000
  C   C1252     1.0  0.50566  0.09272  0.08780  1.0000
  C   C1253     1.0  0.50644  0.11536  0.08225  1.0000
  C   C1254     1.0  0.57628  0.13980  0.13806  1.0000
  H   H998      1.0  0.52336  0.12396  0.07903  1.0000
  C   C1255     1.0  0.89828  0.28217  0.09734  1.0000
  C   C1256     1.0  0.87638  0.29065  0.09155  1.0000
  C   C1257     1.0  0.86778  0.30861  0.10281  1.0000
  C   C1258     1.0  0.88130  0.31849  0.11944  1.0000
  H   H999      1.0  0.90494  0.26822  0.08863  1.0000
  H   H1000     1.0  0.86605  0.28333  0.07836  1.0000
  H   H1001     1.0  0.85061  0.31499  0.09864  1.0000
  C   C1259     1.0  0.71457  0.33669  0.22325  1.0000
  H   H1002     1.0  0.66188  0.37587  0.18249  1.0000
  C   C1260     1.0  0.80043  0.24021  0.15160  1.0000
  C   C1261     1.0  0.79125  0.22021  0.16066  1.0000
  C   C1262     1.0  0.76928  0.21143  0.15364  1.0000
  C   C1263     1.0  0.75648  0.22262  0.13759  1.0000
  C   C1264     1.0  0.76605  0.24226  0.12767  1.0000
  C   C1265     1.0  0.78793  0.25121  0.13517  1.0000
  P   P40       1.0  0.74944  0.25672  0.10686  1.0000
  C   C1266     1.0  0.73301  0.27784  0.12010  1.0000
  C   C1267     1.0  0.76986  0.26907  0.08663  1.0000
  C   C1268     1.0  0.78315  0.28863  0.09139  1.0000
  C   C1269     1.0  0.79865  0.29854  0.07585  1.0000
  C   C1270     1.0  0.80116  0.28896  0.05538  1.0000
  C   C1271     1.0  0.78813  0.26945  0.05045  1.0000
  C   C1272     1.0  0.77252  0.25954  0.06596  1.0000
  C   C1273     1.0  0.72978  0.29846  0.10962  1.0000
  C   C1274     1.0  0.55201  0.00290  0.06466  1.0000
  C   C1275     1.0  0.71706  0.31474  0.11997  1.0000
  H   H1003     1.0  0.58089  0.99701  0.15880  1.0000
  C   C1276     1.0  0.72245  0.27343  0.14067  1.0000
  C   C1277     1.0  0.72878  0.23708  0.09412  1.0000
  C   C1278     1.0  0.73630  0.21609  0.08810  1.0000
  C   C1279     1.0  0.72015  0.20044  0.07927  1.0000
  C   C1280     1.0  0.69642  0.20565  0.07623  1.0000
  C   C1281     1.0  0.68884  0.22656  0.08195  1.0000
  C   C1282     1.0  0.70492  0.24225  0.09085  1.0000
  H   H1004     1.0  0.81690  0.24758  0.15780  1.0000
  H   H1005     1.0  0.80073  0.21193  0.17370  1.0000
  H   H1006     1.0  0.76167  0.19635  0.16123  1.0000
  H   H1007     1.0  0.73895  0.21600  0.13334  1.0000
  H   H1008     1.0  0.79525  0.26688  0.12885  1.0000
  H   H1009     1.0  0.78139  0.29645  0.10705  1.0000
  H   H1010     1.0  0.80855  0.31381  0.07967  1.0000
  H   H1011     1.0  0.81310  0.29677  0.04330  1.0000
  H   H1012     1.0  0.79004  0.26208  0.03452  1.0000
  H   H1013     1.0  0.76254  0.24457  0.06162  1.0000
  H   H1014     1.0  0.73707  0.30206  0.09347  1.0000
  C   C1283     1.0  0.67943  0.37479  0.17540  1.0000
  C   C1284     1.0  0.72432  0.37202  0.15620  1.0000
  C   C1285     1.0  0.61958  0.17357  0.07380  1.0000
  H   H1015     1.0  0.72422  0.25746  0.14889  1.0000
  H   H1016     1.0  0.75458  0.21169  0.09060  1.0000
  H   H1017     1.0  0.72596  0.18413  0.07505  1.0000
  H   H1018     1.0  0.68389  0.19339  0.06963  1.0000
  H   H1019     1.0  0.67040  0.23051  0.07970  1.0000
  H   H1020     1.0  0.69860  0.25825  0.09537  1.0000
  P   P41       1.0  0.68793  0.34336  0.20843  1.0000
  H   H1021     1.0  0.64567  0.21027  0.18550  1.0000
  H   H1022     1.0  0.49270  0.98569  0.05957  1.0000
  C   C1286     1.0  0.92785  0.38098  0.01937  1.0000
  H   H1023     1.0  0.93447  0.45669  0.08016  1.0000
  C   C1287     1.0  0.63155  0.20579  0.17413  1.0000
  H   H1024     1.0  0.63728  0.29888  0.15760  1.0000
  H   H1025     1.0  0.49160  0.08862  0.03588  1.0000
  C   C1288     1.0  0.61010  0.17615  0.09473  1.0000
  H   H1026     1.0  0.55321  0.18695  0.08040  1.0000
  C   C1289     1.0  0.59645  0.19242  0.14393  1.0000
  H   H1027     1.0  0.62512  0.08635  0.00772  1.0000
  C   C1290     1.0  0.50318  0.09910  0.02571  1.0000
  C   C1291     1.0  0.52746  0.09957  0.03033  1.0000
  C   C1292     1.0  0.51720  0.21973  0.14258  1.0000
  C   C1293     1.0  0.70696  0.31037  0.14058  1.0000
  H   H1028     1.0  0.61519  0.21510  0.12132  1.0000
  H   H1029     1.0  0.64659  0.22595  0.14781  1.0000
  C   C1294     1.0  0.95336  0.44780  0.05110  1.0000
  H   H1030     1.0  0.97534  0.44329  0.02286  1.0000
  H   H1031     1.0  0.90396  0.41245  0.15969  1.0000
  C   C1295     1.0  0.61338  0.19054  0.18051  1.0000
  C   C1296     1.0  0.92751  0.38798  0.14801  1.0000
  H   H1032     1.0  0.48740  0.05106  0.02115  1.0000
  C   C1297     1.0  0.98336  0.47482  0.03777  1.0000
  C   C1298     1.0  0.89838  0.30354  0.21280  1.0000
  C   C1299     1.0  0.96293  0.30827  0.16549  1.0000
  H   H1033     1.0  0.53412  0.08933  0.04358  1.0000
  H   H1034     1.0  0.72371  0.30997  0.20191  1.0000
  H   H1035     1.0  0.62098  0.17278  0.10891  1.0000
  H   H1036     1.0  0.52575  0.16318  0.11962  1.0000
  C   C1300     1.0  0.53739  0.15098  0.12640  1.0000
  H   H1037     1.0  0.53760  0.25388  0.10109  1.0000
  H   H1038     1.0  0.52770  0.03122  0.10424  1.0000
  C   C1301     1.0  0.94973  0.31560  0.14741  1.0000
  C   C1302     1.0  0.56896  0.00440  0.14708  1.0000
  C   C1303     1.0  0.50238  0.01941  0.01561  1.0000
  C   C1304     1.0  0.56141  0.15646  0.13067  1.0000
  C   C1305     1.0  0.93101  0.36534  0.14533  1.0000
  H   H1039     1.0  0.58185  0.17216  0.17080  1.0000
  C   C1306     1.0  0.56740  0.02745  0.14577  1.0000
  H   H1040     1.0  0.61247  0.17364  0.03913  1.0000
  C   C1307     1.0  0.49398  0.03994  0.00901  1.0000
  C   C1308     1.0  0.96139  0.31999  0.12734  1.0000
  H   H1041     1.0  0.57914  0.10521  0.14659  1.0000
  C   C1309     1.0  0.88474  0.46146  0.98967  1.0000
  C   C1310     1.0  0.96038  0.37913  0.09426  1.0000
  H   H1042     1.0  0.50519  0.25042  0.12866  1.0000
  H   H1043     1.0  0.87445  0.33259  0.12764  1.0000
  C   C1311     1.0  0.93418  0.41475  0.99777  1.0000
  H   H1044     1.0  0.72967  0.99053  0.11006  1.0000
  H   H1045     1.0  0.69716  0.32300  0.14855  1.0000
  C   C1312     1.0  0.89972  0.47704  0.00043  1.0000
  C   C1313     1.0  0.54309  0.11363  0.01835  1.0000
  C   C1314     1.0  0.57193  0.18392  0.07872  1.0000
  H   H1046     1.0  0.92747  0.42992  0.99087  1.0000
  C   C1315     1.0  0.90694  0.39488  0.15823  1.0000
  H   H1047     1.0  0.98585  0.30400  0.00674  1.0000
  C   C1316     1.0  0.72872  0.31958  0.21612  1.0000
  C   C1317     1.0  0.90930  0.31394  0.19451  1.0000
  C   C1318     1.0  0.53410  0.20340  0.14155  1.0000
  H   H1048     1.0  0.57811  0.03798  0.15643  1.0000
  H   H1049     1.0  0.61328  0.18343  0.19695  1.0000
  C   C1319     1.0  0.89045  0.28641  0.17104  1.0000
  C   C1320     1.0  0.56728  0.11805  0.14145  1.0000
  C   C1321     1.0  0.90316  0.30997  0.12556  1.0000
  C   C1322     1.0  0.67256  0.31836  0.19908  1.0000
  H   H1050     1.0  0.70133  0.28614  0.16665  1.0000
  H   H1051     1.0  0.95846  0.36232  0.02620  1.0000
  C   C1323     1.0  0.94813  0.46177  0.06830  1.0000
  C   C1324     1.0  0.74975  0.31496  0.22709  1.0000
  C   C1325     1.0  0.60529  0.17629  0.05532  1.0000
  H   H1052     1.0  0.56186  0.11402  0.02214  1.0000
  H   H1053     1.0  0.92795  0.28422  0.11928  1.0000
  C   C1326     1.0  0.69372  0.98784  0.09825  1.0000
  H   H1054     1.0  0.57477  0.01788  0.03967  1.0000
  H   H1055     1.0  0.57017  0.18236  0.04345  1.0000
  H   H1056     1.0  0.73154  0.34830  0.18150  1.0000
  H   H1057     1.0  0.94387  0.43183  0.04969  1.0000
  H   H1058     1.0  0.94053  0.40022  0.14168  1.0000
  H   H1059     1.0  0.90127  0.31025  0.22898  1.0000
  H   H1060     1.0  0.71256  0.47116  0.99352  1.0000
  C   C1327     1.0  0.98296  0.38660  0.10165  1.0000
  H   H1061     1.0  0.53317  0.18963  0.15323  1.0000
  C   C1328     1.0  0.96701  0.39062  0.00453  1.0000
  C   C1329     1.0  0.49503  0.04656  0.98693  1.0000
  C   C1330     1.0  0.51017  0.12690  0.99700  1.0000
  C   C1331     1.0  0.85139  0.47045  0.08294  1.0000
  C   C1332     1.0  0.70784  0.38625  0.14712  1.0000
  C   C1333     1.0  0.87289  0.46996  0.09434  1.0000
  H   H1062     1.0  0.97732  0.33623  0.06331  1.0000
  C   C1334     1.0  0.52829  0.12932  0.13033  1.0000
  C   C1335     1.0  0.95802  0.40987  0.99490  1.0000
  C   C1336     1.0  0.63204  0.21464  0.15282  1.0000
  C   C1337     1.0  0.88343  0.28469  0.21022  1.0000
  C   C1338     1.0  0.89325  0.35646  0.16314  1.0000
  C   C1339     1.0  0.64743  0.29884  0.17266  1.0000
  H   H1063     1.0  0.94693  0.36056  0.13710  1.0000
  C   C1340     1.0  0.72622  0.48334  0.98835  1.0000
  H   H1064     1.0  0.69126  0.00561  0.09824  1.0000
  H   H1065     1.0  0.63985  0.26401  0.17970  1.0000
  H   H1066     1.0  0.56769  0.22534  0.09931  1.0000
  C   C1341     1.0  0.91390  0.34935  0.15288  1.0000
  C   C1342     1.0  0.61445  0.20817  0.13780  1.0000
  C   C1343     1.0  0.62210  0.09604  0.99295  1.0000
  C   C1344     1.0  0.58142  0.18125  0.05778  1.0000
  H   H1067     1.0  0.63770  0.16850  0.07192  1.0000
  C   C1345     1.0  0.64432  0.98750  0.99973  1.0000
  C   C1346     1.0  0.58644  0.18206  0.09733  1.0000
  H   H1068     1.0  0.61370  0.98475  0.05103  1.0000
  C   C1347     1.0  0.55348  0.22342  0.11124  1.0000
  H   H1069     1.0  0.66262  0.26409  0.21451  1.0000
  H   H1070     1.0  0.87468  0.27679  0.22434  1.0000
  C   C1348     1.0  0.66167  0.27921  0.20464  1.0000
  H   H1071     1.0  0.71251  0.39623  0.13266  1.0000
  C   C1349     1.0  0.51133  0.00519  0.00008  1.0000
  C   C1350     1.0  0.91894  0.40001  0.00950  1.0000
  C   C1351     1.0  0.87544  0.44383  0.02501  1.0000
  C   C1352     1.0  0.56463  0.00301  0.04491  1.0000
  H   H1072     1.0  0.91619  0.36976  0.02894  1.0000
  H   H1073     1.0  0.92053  0.32876  0.19672  1.0000
  C   C1353     1.0  0.54065  0.00023  0.11717  1.0000
  C   C1354     1.0  0.65909  0.31841  0.17970  1.0000
  H   H1074     1.0  0.86550  0.43129  0.03457  1.0000
  H   H1075     1.0  0.65756  0.33343  0.16995  1.0000
  P   P42       1.0  0.91825  0.31997  0.14979  1.0000
  C   C1355     1.0  0.88984  0.37911  0.16584  1.0000
  C   C1356     1.0  0.53899  0.02343  0.11623  1.0000
  C   C1357     1.0  0.59576  0.18400  0.16554  1.0000
  H   H1076     1.0  0.87363  0.38447  0.17329  1.0000
  C   C1358     1.0  0.49431  0.11246  0.00872  1.0000
  H   H1077     1.0  0.49124  0.00566  0.12700  1.0000
  H   H1078     1.0  0.55231  0.01797  0.07402  1.0000
  H   H1079     1.0  0.59498  0.14352  0.14074  1.0000
  C   C1359     1.0  0.85244  0.38190  0.99142  1.0000
  H   H1080     1.0  0.64605  0.00339  0.99117  1.0000
  H   H1081     1.0  0.86765  0.26166  0.18737  1.0000
  C   C1360     1.0  0.55202  0.20486  0.12552  1.0000
  H   H1082     1.0  0.74174  0.37091  0.14876  1.0000
  H   H1083     1.0  0.98443  0.40047  0.11263  1.0000
  C   C1361     1.0  0.64880  0.27921  0.18510  1.0000
  C   C1362     1.0  0.53448  0.12738  0.00176  1.0000
  C   C1363     1.0  0.66859  0.35739  0.22679  1.0000
  C   C1364     1.0  0.68541  0.38763  0.15671  1.0000
  C   C1365     1.0  0.54327  0.11280  0.13761  1.0000
  H   H1084     1.0  0.90027  0.40339  0.01120  1.0000
  C   C1366     1.0  0.87297  0.44461  0.00224  1.0000
  H   H1085     1.0  0.95159  0.32576  0.11319  1.0000
  P   P43       1.0  0.57390  0.18389  0.12441  1.0000
  C   C1367     1.0  0.55574  0.99082  0.13284  1.0000
  C   C1368     1.0  0.95190  0.37657  0.01740  1.0000
  H   H1086     1.0  0.55127  0.05483  0.12919  1.0000
  C   C1369     1.0  0.97099  0.45431  0.03590  1.0000
  C   C1370     1.0  0.51835  0.23782  0.12790  1.0000
  C   C1371     1.0  0.97885  0.35047  0.07384  1.0000
  H   H1087     1.0  0.67264  0.39866  0.14962  1.0000
  C   C1372     1.0  0.89044  0.45925  0.03548  1.0000
  H   H1088     1.0  0.95448  0.30465  0.18112  1.0000
  H   H1089     1.0  0.89242  0.45841  0.05315  1.0000
  C   C1373     1.0  0.61406  0.11761  0.99445  1.0000
  H   H1090     1.0  0.50262  0.01488  0.03284  1.0000
  H   H1091     1.0  0.50320  0.21833  0.15477  1.0000
  C   C1374     1.0  0.61320  0.98454  0.06871  1.0000
  H   H1092     1.0  0.68345  0.29840  0.22669  1.0000
  H   H1093     1.0  0.86142  0.43222  0.99460  1.0000
  C   C1375     1.0  0.90266  0.47580  0.02319  1.0000
  C   C1376     1.0  0.96063  0.48219  0.07036  1.0000
  H   H1094     1.0  0.97670  0.34165  0.99351  1.0000
  H   H1095     1.0  0.54673  0.13845  0.99270  1.0000
  C   C1377     1.0  0.98584  0.31735  0.12545  1.0000
  H   H1096     1.0  0.59969  0.00508  0.99007  1.0000
  S   S181      1.0  0.70703  0.21641  0.23566  1.0000
  H   H1097     1.0  0.68395  0.39029  0.21960  1.0000
  C   C1378     1.0  0.86939  0.36559  0.99078  1.0000
  C   C1379     1.0  0.65385  0.98554  0.02080  1.0000
  C   C1380     1.0  0.67119  0.38049  0.22937  1.0000
  Fe  Fe91      1.0  0.60673  0.40669  0.36563  1.0000
  S   S182      1.0  0.57520  0.38958  0.38223  1.0000
  S   S183      1.0  0.61600  0.44192  0.37728  1.0000
  Fe  Fe92      1.0  0.62014  0.36375  0.34104  1.0000
  S   S184      1.0  0.58911  0.34403  0.35622  1.0000
  S   S185      1.0  0.64958  0.35185  0.31758  1.0000
  Fe  Fe93      1.0  0.56773  0.37431  0.34962  1.0000
  S   S186      1.0  0.53107  0.37539  0.33388  1.0000
  Fe  Fe94      1.0  0.59888  0.36103  0.38798  1.0000
  S   S187      1.0  0.59862  0.34148  0.42043  1.0000
  S   S188      1.0  0.59794  0.39328  0.33230  1.0000
  S   S189      1.0  0.63120  0.37881  0.37347  1.0000
  Fe  Fe95      1.0  0.88077  0.11175  0.39043  1.0000
  S   S190      1.0  0.89375  0.13144  0.36076  1.0000
  S   S191      1.0  0.89068  0.12547  0.42401  1.0000
  Fe  Fe96      1.0  0.86022  0.07427  0.36239  1.0000
  S   S192      1.0  0.87130  0.09133  0.33050  1.0000
  S   S193      1.0  0.84105  0.04064  0.36897  1.0000
  Fe  Fe97      1.0  0.90577  0.09913  0.34822  1.0000
  S   S194      1.0  0.94140  0.09477  0.33170  1.0000
  Fe  Fe98      1.0  0.85820  0.12289  0.34507  1.0000
  S   S195      1.0  0.84260  0.15335  0.32720  1.0000
  S   S196      1.0  0.89550  0.07996  0.37885  1.0000
  S   S197      1.0  0.84457  0.10523  0.37592  1.0000
  C   C1381     1.0  0.52603  0.43417  0.32575  1.0000
  H   H1098     1.0  0.74815  0.11364  0.41699  1.0000
  S   S198      1.0  0.75762  0.18574  0.26471  1.0000
  H   H1099     1.0  0.90560  0.02211  0.48082  1.0000
  S   S199      1.0  0.68200  0.26841  0.26117  1.0000
  S   S200      1.0  0.75085  0.25198  0.24809  1.0000
  C   C1382     1.0  0.96776  0.09910  0.34693  1.0000
  C   C1383     1.0  0.96718  0.10833  0.36771  1.0000
  C   C1384     1.0  0.63078  0.46412  0.44961  1.0000
  H   H1100     1.0  0.95039  0.11257  0.37483  1.0000
  C   C1385     1.0  0.95132  0.01044  0.31696  1.0000
  C   C1386     1.0  0.81887  0.16177  0.30958  1.0000
  C   C1387     1.0  0.79957  0.14755  0.30409  1.0000
  C   C1388     1.0  0.78117  0.15521  0.29041  1.0000
  C   C1389     1.0  0.78174  0.17711  0.28175  1.0000
  C   C1390     1.0  0.80107  0.19133  0.28721  1.0000
  C   C1391     1.0  0.81935  0.18373  0.30107  1.0000
  H   H1101     1.0  0.79877  0.13065  0.31041  1.0000
  H   H1102     1.0  0.76640  0.14399  0.28639  1.0000
  H   H1103     1.0  0.80190  0.20819  0.28082  1.0000
  H   H1104     1.0  0.83410  0.19496  0.30513  1.0000
  H   H1105     1.0  0.66159  0.25221  0.31799  1.0000
  P   P44       1.0  0.50015  0.46140  0.35267  1.0000
  C   C1392     1.0  0.85212  0.01510  0.36015  1.0000
  C   C1393     1.0  0.86741  0.01421  0.34219  1.0000
  H   H1106     1.0  0.94081  0.13227  0.43026  1.0000
  H   H1107     1.0  0.75327  0.29133  0.27826  1.0000
  H   H1108     1.0  0.87275  0.02937  0.33347  1.0000
  H   H1109     1.0  0.64707  0.22640  0.28978  1.0000
  C   C1394     1.0  0.85930  0.10079  0.45075  1.0000
  C   C1395     1.0  0.87916  0.11543  0.44954  1.0000
  C   C1396     1.0  0.89000  0.12256  0.46910  1.0000
  H   H1110     1.0  0.97007  0.01369  0.40818  1.0000
  H   H1111     1.0  0.85062  0.09542  0.43585  1.0000
  H   H1112     1.0  0.90538  0.13392  0.46832  1.0000
  C   C1397     1.0  0.50414  0.37224  0.34884  1.0000
  C   C1398     1.0  0.52623  0.44933  0.43757  1.0000
  H   H1113     1.0  0.72309  0.30225  0.35349  1.0000
  C   C1399     1.0  0.54218  0.43009  0.30904  1.0000
  H   H1114     1.0  0.51822  0.35210  0.37483  1.0000
  C   C1400     1.0  0.60165  0.35442  0.44627  1.0000
  C   C1401     1.0  0.60250  0.34124  0.46555  1.0000
  C   C1402     1.0  0.51638  0.42625  0.37866  1.0000
  C   C1403     1.0  0.60571  0.38725  0.46872  1.0000
  C   C1404     1.0  0.60299  0.37753  0.44802  1.0000
  H   H1115     1.0  0.60130  0.32334  0.46440  1.0000
  H   H1116     1.0  0.60657  0.40503  0.46996  1.0000
  H   H1117     1.0  0.60209  0.38789  0.43339  1.0000
  C   C1405     1.0  0.65819  0.32836  0.30202  1.0000
  C   C1406     1.0  0.68067  0.32898  0.29170  1.0000
  C   C1407     1.0  0.68828  0.31096  0.27922  1.0000
  C   C1408     1.0  0.67352  0.29189  0.27675  1.0000
  C   C1409     1.0  0.65098  0.29134  0.28690  1.0000
  C   C1410     1.0  0.64336  0.30934  0.29940  1.0000
  H   H1118     1.0  0.69235  0.34354  0.29342  1.0000
  H   H1119     1.0  0.70559  0.31180  0.27156  1.0000
  H   H1120     1.0  0.63927  0.27681  0.28512  1.0000
  H   H1121     1.0  0.62601  0.30845  0.30706  1.0000
  H   H1122     1.0  0.77764  0.24889  0.38890  1.0000
  C   C1411     1.0  0.60730  0.46786  0.36627  1.0000
  C   C1412     1.0  0.59824  0.47011  0.34504  1.0000
  H   H1123     1.0  0.53357  0.42919  0.37092  1.0000
  H   H1124     1.0  0.59588  0.45562  0.33494  1.0000
  H   H1125     1.0  0.94569  0.01393  0.28215  1.0000
  C   C1413     1.0  0.51356  0.40900  0.39424  1.0000
  H   H1126     1.0  0.76865  0.17003  0.45640  1.0000
  H   H1127     1.0  0.62548  0.46763  0.43286  1.0000
  C   C1414     1.0  0.82744  0.14999  0.46452  1.0000
  C   C1415     1.0  0.72184  0.34905  0.24154  1.0000
  H   H1128     1.0  0.53744  0.47431  0.48365  1.0000
  H   H1129     1.0  0.54293  0.38945  0.44792  1.0000
  C   C1416     1.0  0.84634  0.02478  0.43026  1.0000
  H   H1130     1.0  0.79615  0.09196  0.46071  1.0000
  H   H1131     1.0  0.63395  0.29915  0.38665  1.0000
  H   H1132     1.0  0.95725  0.15669  0.46910  1.0000
  H   H1133     1.0  0.67307  0.19750  0.27588  1.0000
  C   C1417     1.0  0.56382  0.43163  0.44181  1.0000
  C   C1418     1.0  0.50246  0.35926  0.36804  1.0000
  H   H1134     1.0  0.90718  0.00128  0.36939  1.0000
  C   C1419     1.0  0.95725  0.14629  0.48372  1.0000
  C   C1420     1.0  0.95768  0.14062  0.42622  1.0000
  H   H1135     1.0  0.63270  0.38653  0.27177  1.0000
  H   H1136     1.0  0.62804  0.34593  0.26747  1.0000
  H   H1137     1.0  0.72902  0.22047  0.31831  1.0000
  C   C1421     1.0  0.57143  0.44063  0.42166  1.0000
  C   C1422     1.0  0.91941  0.06443  0.43195  1.0000
  C   C1423     1.0  0.85652  0.04006  0.44474  1.0000
  C   C1424     1.0  0.85037  0.09343  0.47132  1.0000
  C   C1425     1.0  0.65292  0.34500  0.24067  1.0000
  C   C1426     1.0  0.98441  0.13728  0.30461  1.0000
  C   C1427     1.0  0.54192  0.38327  0.46465  1.0000
  C   C1428     1.0  0.83984  0.00330  0.43761  1.0000
  H   H1138     1.0  0.70307  0.21303  0.36089  1.0000
  H   H1139     1.0  0.54642  0.41314  0.30545  1.0000
  C   C1429     1.0  0.52110  0.45601  0.33118  1.0000
  H   H1140     1.0  0.98079  0.18000  0.39072  1.0000
  C   C1430     1.0  0.65802  0.39102  0.24530  1.0000
  H   H1141     1.0  0.68406  0.24751  0.38333  1.0000
  C   C1431     1.0  0.91926  0.04423  0.32096  1.0000
  H   H1142     1.0  0.97219  0.14293  0.31686  1.0000
  H   H1143     1.0  0.95739  0.11761  0.28816  1.0000
  C   C1432     1.0  0.53402  0.45854  0.41747  1.0000
  H   H1144     1.0  0.98507  0.10443  0.26000  1.0000
  C   C1433     1.0  0.94110  0.01974  0.29823  1.0000
  C   C1434     1.0  0.71387  0.15283  0.43862  1.0000
  H   H1145     1.0  0.90486  0.05468  0.42488  1.0000
  H   H1146     1.0  0.71404  0.19477  0.29015  1.0000
  C   C1435     1.0  0.54722  0.46956  0.30168  1.0000
  H   H1147     1.0  0.54921  0.34990  0.45529  1.0000
  H   H1148     1.0  0.50887  0.45328  0.44359  1.0000
  P   P45       1.0  0.95826  0.00528  0.36185  1.0000
  C   C1436     1.0  0.85536  0.01190  0.47377  1.0000
  H   H1149     1.0  0.64692  0.31336  0.35002  1.0000
  Fe  Fe99      1.0  0.74655  0.21510  0.24237  1.0000
  C   C1437     1.0  0.55662  0.45418  0.40950  1.0000
  H   H1150     1.0  0.51748  0.42023  0.33440  1.0000
  H   H1151     1.0  0.77350  0.32391  0.25332  1.0000
  C   C1438     1.0  0.49656  0.28282  0.30264  1.0000
  C   C1439     1.0  0.74301  0.34445  0.25237  1.0000
  C   C1440     1.0  0.93703  0.01170  0.42567  1.0000
  C   C1441     1.0  0.55293  0.44778  0.29712  1.0000
  C   C1442     1.0  0.64235  0.37856  0.25890  1.0000
  C   C1443     1.0  0.94526  0.01779  0.33788  1.0000
  H   H1152     1.0  0.84315  0.02972  0.41341  1.0000
  H   H1153     1.0  0.92516  0.04166  0.35555  1.0000
  H   H1154     1.0  0.56275  0.46118  0.39390  1.0000
  H   H1155     1.0  0.94530  0.01446  0.44146  1.0000
  H   H1156     1.0  0.52254  0.46908  0.40811  1.0000
  H   H1157     1.0  0.77580  0.12221  0.47944  1.0000
  H   H1158     1.0  0.90718  0.05763  0.32246  1.0000
  C   C1444     1.0  0.92949  0.03507  0.33974  1.0000
  H   H1159     1.0  0.48939  0.41136  0.45665  1.0000
  H   H1160     1.0  0.58893  0.43716  0.41555  1.0000
  H   H1161     1.0  0.86095  0.05682  0.43902  1.0000
  H   H1162     1.0  0.91714  0.04399  0.28580  1.0000
  C   C1445     1.0  0.63970  0.35561  0.25646  1.0000
  C   C1446     1.0  0.87503  0.99360  0.33494  1.0000
  H   H1163     1.0  0.80016  0.05331  0.44962  1.0000
  H   H1164     1.0  0.72960  0.26140  0.29650  1.0000
  H   H1165     1.0  0.50254  0.26775  0.29539  1.0000
  C   C1447     1.0  0.97602  0.12297  0.28836  1.0000
  C   C1448     1.0  0.74297  0.31672  0.32646  1.0000
  H   H1166     1.0  0.86055  0.15788  0.38839  1.0000
  H   H1167     1.0  0.83507  0.08207  0.47218  1.0000
  H   H1168     1.0  0.72819  0.19274  0.38695  1.0000
  C   C1449     1.0  0.72972  0.29962  0.33711  1.0000
  C   C1450     1.0  0.54112  0.43573  0.44985  1.0000
  C   C1451     1.0  0.86067  0.03380  0.46655  1.0000
  C   C1452     1.0  0.84198  0.16022  0.39198  1.0000
  C   C1453     1.0  0.82905  0.17472  0.37900  1.0000
  C   C1454     1.0  0.80497  0.17733  0.38330  1.0000
  C   C1455     1.0  0.79386  0.16557  0.40074  1.0000
  C   C1456     1.0  0.80679  0.15093  0.41389  1.0000
  C   C1457     1.0  0.83081  0.14807  0.40906  1.0000
  P   P46       1.0  0.79234  0.13401  0.43521  1.0000
  H   H1169     1.0  0.90143  0.00848  0.43885  1.0000
  C   C1458     1.0  0.79421  0.10526  0.42753  1.0000
  C   C1459     1.0  0.79388  0.09966  0.40529  1.0000
  C   C1460     1.0  0.79599  0.07758  0.39911  1.0000
  C   C1461     1.0  0.79831  0.06091  0.41505  1.0000
  H   H1170     1.0  0.51542  0.32343  0.33734  1.0000
  H   H1171     1.0  0.65136  0.32706  0.23991  1.0000
  C   C1462     1.0  0.73145  0.16570  0.44917  1.0000
  H   H1172     1.0  0.74637  0.33238  0.33456  1.0000
  H   H1173     1.0  0.52895  0.28882  0.32089  1.0000
  C   C1463     1.0  0.79601  0.08829  0.44347  1.0000
  H   H1174     1.0  0.94237  0.16065  0.40078  1.0000
  C   C1464     1.0  0.93953  0.07005  0.41936  1.0000
  H   H1175     1.0  0.90158  0.06876  0.46271  1.0000
  C   C1465     1.0  0.90173  0.00488  0.40386  1.0000
  H   H1176     1.0  0.48930  0.39080  0.41586  1.0000
  C   C1466     1.0  0.95581  0.09233  0.44912  1.0000
  C   C1467     1.0  0.72004  0.13409  0.42707  1.0000
  H   H1177     1.0  0.66039  0.40877  0.24755  1.0000
  H   H1178     1.0  0.83756  0.18341  0.36518  1.0000
  H   H1179     1.0  0.79489  0.18807  0.37271  1.0000
  H   H1180     1.0  0.77511  0.16755  0.40342  1.0000
  H   H1181     1.0  0.84087  0.13613  0.41827  1.0000
  H   H1182     1.0  0.79243  0.11235  0.39261  1.0000
  H   H1183     1.0  0.79647  0.07343  0.38189  1.0000
  H   H1184     1.0  0.80038  0.04391  0.41010  1.0000
  H   H1185     1.0  0.88263  0.00219  0.40262  1.0000
  C   C1468     1.0  0.53132  0.47369  0.31859  1.0000
  P   P47       1.0  0.97718  0.11352  0.45834  1.0000
  C   C1469     1.0  0.98010  0.16773  0.40393  1.0000
  H   H1186     1.0  0.94061  0.06455  0.40260  1.0000
  C   C1470     1.0  0.75166  0.31369  0.30533  1.0000
  H   H1187     1.0  0.83259  0.99561  0.38463  1.0000
  H   H1188     1.0  0.83752  0.15644  0.45063  1.0000
  H   H1189     1.0  0.67831  0.29491  0.32988  1.0000
  H   H1190     1.0  0.72668  0.18022  0.45817  1.0000
  H   H1191     1.0  0.75295  0.26933  0.36284  1.0000
  C   C1471     1.0  0.91569  0.00464  0.38494  1.0000
  C   C1472     1.0  0.92500  0.03660  0.30025  1.0000
  C   C1473     1.0  0.97849  0.13509  0.43738  1.0000
  H   H1192     1.0  0.76541  0.21068  0.40117  1.0000
  C   C1474     1.0  0.93558  0.08621  0.46176  1.0000
  C   C1475     1.0  0.91757  0.07229  0.45321  1.0000
  H   H1193     1.0  0.76198  0.32692  0.29713  1.0000
  H   H1194     1.0  0.56562  0.44458  0.28433  1.0000
  H   H1195     1.0  0.63163  0.42890  0.44439  1.0000
  C   C1476     1.0  0.75519  0.15983  0.44823  1.0000
  C   C1477     1.0  0.95850  0.15684  0.40954  1.0000
  H   H1196     1.0  0.83140  0.99162  0.42646  1.0000
  C   C1478     1.0  0.74377  0.12814  0.42612  1.0000
  H   H1197     1.0  0.65245  0.26608  0.40309  1.0000
  C   C1479     1.0  0.49709  0.43928  0.37308  1.0000
  C   C1480     1.0  0.51145  0.29463  0.31701  1.0000
  H   H1198     1.0  0.57579  0.42168  0.45128  1.0000
  H   H1199     1.0  0.69546  0.15735  0.43942  1.0000
  C   C1481     1.0  0.63430  0.44213  0.45607  1.0000
  H   H1200     1.0  0.64428  0.42012  0.48252  1.0000
  C   C1482     1.0  0.95103  0.01158  0.40670  1.0000
  C   C1483     1.0  0.94042  0.00827  0.38614  1.0000
  Fe  Fe100     1.0  0.71173  0.25356  0.24010  1.0000
  C   C1484     1.0  0.95756  0.08400  0.42784  1.0000
  C   C1485     1.0  0.70241  0.20693  0.29675  1.0000
  C   C1486     1.0  0.67932  0.20847  0.28870  1.0000
  C   C1487     1.0  0.66463  0.22466  0.29664  1.0000
  C   C1488     1.0  0.67299  0.23934  0.31264  1.0000
  C   C1489     1.0  0.69609  0.23775  0.32097  1.0000
  C   C1490     1.0  0.71082  0.22154  0.31276  1.0000
  P   P48       1.0  0.70770  0.25742  0.34062  1.0000
  C   C1491     1.0  0.68369  0.26988  0.35508  1.0000
  C   C1492     1.0  0.72604  0.24276  0.35994  1.0000
  C   C1493     1.0  0.74718  0.25272  0.36801  1.0000
  C   C1494     1.0  0.76128  0.24115  0.38283  1.0000
  C   C1495     1.0  0.75442  0.21959  0.38972  1.0000
  C   C1496     1.0  0.73344  0.20953  0.38175  1.0000
  C   C1497     1.0  0.71928  0.22106  0.36694  1.0000
  C   C1498     1.0  0.67609  0.26175  0.37576  1.0000
  C   C1499     1.0  0.65814  0.27223  0.38705  1.0000
  C   C1500     1.0  0.64766  0.29083  0.37780  1.0000
  C   C1501     1.0  0.65496  0.29885  0.35717  1.0000
  C   C1502     1.0  0.67281  0.28839  0.34582  1.0000
  C   C1503     1.0  0.72491  0.27936  0.32663  1.0000
  C   C1504     1.0  0.73344  0.27657  0.30527  1.0000
  C   C1505     1.0  0.74686  0.29365  0.29475  1.0000
  C   C1506     1.0  0.80530  0.13867  0.46202  1.0000
  C   C1507     1.0  0.50382  0.31409  0.32634  1.0000
  H   H1201     1.0  0.97204  0.08930  0.41718  1.0000
  C   C1508     1.0  0.84404  0.99694  0.45937  1.0000
  H   H1202     1.0  0.88651  0.99314  0.32074  1.0000
  C   C1509     1.0  0.84473  0.99514  0.37095  1.0000
  H   H1203     1.0  0.93272  0.09302  0.47773  1.0000
  H   H1204     1.0  0.52827  0.39860  0.39808  1.0000
  C   C1510     1.0  0.79821  0.06623  0.43723  1.0000
  H   H1205     1.0  0.74850  0.35410  0.26641  1.0000
  C   C1511     1.0  0.76150  0.14093  0.43681  1.0000
  H   H1206     1.0  0.70642  0.12412  0.41885  1.0000
  H   H1207     1.0  0.86780  0.04608  0.47781  1.0000
  C   C1512     1.0  0.91237  0.00832  0.42424  1.0000
  C   C1513     1.0  0.96642  0.12493  0.48357  1.0000
  C   C1514     1.0  0.54523  0.36069  0.46872  1.0000
  C   C1515     1.0  0.75701  0.32746  0.24508  1.0000
  H   H1208     1.0  0.97746  0.04598  0.38229  1.0000
  H   H1209     1.0  0.71131  0.36223  0.24758  1.0000
  H   H1210     1.0  0.96383  0.99743  0.31512  1.0000
  P   P49       1.0  0.53339  0.42668  0.47734  1.0000
  C   C1516     1.0  0.79294  0.13088  0.48084  1.0000
  C   C1517     1.0  0.63493  0.48144  0.46442  1.0000
  H   H1211     1.0  0.55538  0.48330  0.29232  1.0000
  C   C1518     1.0  0.83724  0.15285  0.48538  1.0000
  C   C1519     1.0  0.64152  0.43719  0.47747  1.0000
  C   C1520     1.0  0.50263  0.43112  0.48361  1.0000
  C   C1521     1.0  0.53769  0.39747  0.48210  1.0000
  C   C1522     1.0  0.49162  0.40473  0.40446  1.0000
  H   H1212     1.0  0.58753  0.48366  0.44893  1.0000
  Fe  Fe101     1.0  0.59369  0.40076  0.59025  1.0000
  S   S201      1.0  0.57970  0.36946  0.60784  1.0000
  S   S202      1.0  0.59037  0.43425  0.60663  1.0000
  Fe  Fe102     1.0  0.60347  0.37649  0.54764  1.0000
  S   S203      1.0  0.59021  0.34367  0.56192  1.0000
  S   S204      1.0  0.61422  0.38767  0.51291  1.0000
  Fe  Fe103     1.0  0.56035  0.36268  0.57624  1.0000
  S   S205      1.0  0.52172  0.35221  0.56981  1.0000
  Fe  Fe104     1.0  0.61092  0.35267  0.59276  1.0000
  S   S206      1.0  0.63352  0.32473  0.60824  1.0000
  S   S207      1.0  0.57241  0.39463  0.55997  1.0000
  S   S208      1.0  0.62612  0.38476  0.57718  1.0000
  Fe  Fe105     1.0  0.84945  0.11484  0.59740  1.0000
  S   S209      1.0  0.83928  0.08344  0.57882  1.0000
  S   S210      1.0  0.81967  0.13548  0.61311  1.0000
  Fe  Fe106     1.0  0.90148  0.11272  0.58165  1.0000
  S   S211      1.0  0.89467  0.08213  0.56198  1.0000
  S   S212      1.0  0.93817  0.13001  0.57965  1.0000
  Fe  Fe107     1.0  0.86144  0.09793  0.55078  1.0000
  S   S213      1.0  0.84750  0.09214  0.51610  1.0000
  Fe  Fe108     1.0  0.87336  0.06934  0.59099  1.0000
  S   S214      1.0  0.88304  0.03398  0.60116  1.0000
  S   S215      1.0  0.86953  0.12992  0.56815  1.0000
  S   S216      1.0  0.88228  0.09941  0.61182  1.0000
  Fe  Fe109     1.0  0.71743  0.25840  0.70568  1.0000
  S   S217      1.0  0.75777  0.25702  0.70717  1.0000
  S   S218      1.0  0.69585  0.28625  0.68872  1.0000
  H   H1213     1.0  0.80070  0.98902  0.67920  1.0000
  C   C1523     1.0  0.58939  0.44826  0.51527  1.0000
  C   C1524     1.0  0.49896  0.46500  0.56120  1.0000
  Fe  Fe110     1.0  0.75205  0.21950  0.70647  1.0000
  S   S219      1.0  0.77962  0.19683  0.69025  1.0000
  C   C1525     1.0  0.67796  0.41444  0.60569  1.0000
  S   S220      1.0  0.71183  0.22103  0.70332  1.0000
  H   H1214     1.0  0.53243  0.39915  0.51721  1.0000
  C   C1526     1.0  0.54142  0.46927  0.55523  1.0000
  H   H1215     1.0  0.88935  0.12100  0.50463  1.0000
  C   C1527     1.0  0.86993  0.00807  0.59308  1.0000
  C   C1528     1.0  0.82839  0.98608  0.65525  1.0000
  H   H1216     1.0  0.58675  0.17107  0.64450  1.0000
  C   C1529     1.0  0.72042  0.33421  0.60407  1.0000
  C   C1530     1.0  0.84625  0.00571  0.58628  1.0000
  C   C1531     1.0  0.71884  0.16290  0.71590  1.0000
  C   C1532     1.0  0.88829  0.01690  0.51232  1.0000
  H   H1217     1.0  0.83561  0.02021  0.58484  1.0000
  C   C1533     1.0  0.96427  0.11593  0.58631  1.0000
  C   C1534     1.0  0.96369  0.09772  0.60084  1.0000
  H   H1218     1.0  0.90160  0.99056  0.60033  1.0000
  H   H1219     1.0  0.94694  0.09176  0.60794  1.0000
  C   C1535     1.0  0.60729  0.37419  0.48791  1.0000
  C   C1536     1.0  0.80897  0.15239  0.63495  1.0000
  C   C1537     1.0  0.82181  0.15642  0.65428  1.0000
  C   C1538     1.0  0.81249  0.16974  0.67097  1.0000
  C   C1539     1.0  0.79027  0.17960  0.66868  1.0000
  C   C1540     1.0  0.77747  0.17564  0.64935  1.0000
  C   C1541     1.0  0.78668  0.16215  0.63277  1.0000
  H   H1220     1.0  0.83891  0.14915  0.65645  1.0000
  H   H1221     1.0  0.82273  0.17256  0.68571  1.0000
  H   H1222     1.0  0.76044  0.18302  0.64710  1.0000
  H   H1223     1.0  0.77646  0.15932  0.61801  1.0000
  C   C1542     1.0  0.49708  0.36560  0.58082  1.0000
  H   H1224     1.0  0.95082  0.98990  0.62756  1.0000
  C   C1543     1.0  0.49882  0.37787  0.60004  1.0000
  H   H1225     1.0  0.95023  0.04164  0.58094  1.0000
  H   H1226     1.0  0.51583  0.38010  0.60810  1.0000
  C   C1544     1.0  0.65023  0.31406  0.63113  1.0000
  C   C1545     1.0  0.66261  0.29433  0.62874  1.0000
  C   C1546     1.0  0.67624  0.28539  0.64611  1.0000
  C   C1547     1.0  0.67795  0.29609  0.66629  1.0000
  C   C1548     1.0  0.66550  0.31576  0.66871  1.0000
  C   C1549     1.0  0.65169  0.32458  0.65143  1.0000
  H   H1227     1.0  0.66174  0.28592  0.61325  1.0000
  H   H1228     1.0  0.68575  0.27039  0.64372  1.0000
  H   H1229     1.0  0.66653  0.32428  0.68415  1.0000
  H   H1230     1.0  0.64215  0.33953  0.65389  1.0000
  C   C1550     1.0  0.51942  0.47892  0.55830  1.0000
  C   C1551     1.0  0.65996  0.42625  0.61538  1.0000
  C   C1552     1.0  0.74076  0.38979  0.57096  1.0000
  C   C1553     1.0  0.59976  0.46040  0.59506  1.0000
  C   C1554     1.0  0.61143  0.46244  0.57484  1.0000
  H   H1231     1.0  0.78179  0.02967  0.55093  1.0000
  H   H1232     1.0  0.61522  0.44767  0.56587  1.0000
  C   C1555     1.0  0.80824  0.30060  0.67971  1.0000
  C   C1556     1.0  0.79439  0.30999  0.69584  1.0000
  C   C1557     1.0  0.79639  0.30292  0.71765  1.0000
  C   C1558     1.0  0.64507  0.45422  0.49245  1.0000
  C   C1559     1.0  0.82513  0.27602  0.70714  1.0000
  C   C1560     1.0  0.82378  0.28389  0.68535  1.0000
  P   P50       1.0  0.84548  0.25470  0.71473  1.0000
  C   C1561     1.0  0.83599  0.98437  0.58238  1.0000
  C   C1562     1.0  0.58740  0.47130  0.51444  1.0000
  H   H1233     1.0  0.91910  0.98617  0.65522  1.0000
  C   C1563     1.0  0.81181  0.28615  0.72329  1.0000
  C   C1564     1.0  0.96343  0.02910  0.58259  1.0000
  H   H1234     1.0  0.94017  0.17077  0.50287  1.0000
  C   C1565     1.0  0.98622  0.12363  0.57741  1.0000
  H   H1235     1.0  0.83023  0.00381  0.65184  1.0000
  C   C1566     1.0  0.71424  0.15879  0.67676  1.0000
  C   C1567     1.0  0.51069  0.42701  0.64625  1.0000
  H   H1236     1.0  0.52922  0.47821  0.60050  1.0000
  C   C1568     1.0  0.64184  0.47627  0.48599  1.0000
  C   C1569     1.0  0.85244  0.23877  0.69086  1.0000
  C   C1570     1.0  0.83412  0.23150  0.67675  1.0000
  C   C1571     1.0  0.83913  0.21865  0.65862  1.0000
  C   C1572     1.0  0.86239  0.21276  0.65449  1.0000
  C   C1573     1.0  0.88077  0.22001  0.66834  1.0000
  C   C1574     1.0  0.87587  0.23302  0.68645  1.0000
  H   H1237     1.0  0.80681  0.30620  0.66281  1.0000
  H   H1238     1.0  0.78208  0.32270  0.69149  1.0000
  C   C1575     1.0  0.61876  0.48364  0.56652  1.0000
  H   H1239     1.0  0.67905  0.16195  0.66408  1.0000
  H   H1240     1.0  0.83459  0.27713  0.67264  1.0000
  H   H1241     1.0  0.83311  0.14601  0.51999  1.0000
  C   C1576     1.0  0.68688  0.36643  0.57169  1.0000
  C   C1577     1.0  0.72797  0.39265  0.59039  1.0000
  H   H1242     1.0  0.64939  0.26430  0.70366  1.0000
  H   H1243     1.0  0.82244  0.20944  0.71330  1.0000
  C   C1578     1.0  0.64691  0.19967  0.70256  1.0000
  C   C1579     1.0  0.63529  0.15619  0.72624  1.0000
  C   C1580     1.0  0.50058  0.44186  0.56072  1.0000
  H   H1244     1.0  0.62568  0.11132  0.64983  1.0000
  H   H1245     1.0  0.55772  0.47941  0.55429  1.0000
  H   H1246     1.0  0.81580  0.23526  0.68007  1.0000
  H   H1247     1.0  0.82479  0.21273  0.64810  1.0000
  H   H1248     1.0  0.86606  0.20232  0.64070  1.0000
  H   H1249     1.0  0.89879  0.21530  0.66513  1.0000
  H   H1250     1.0  0.89033  0.23831  0.69700  1.0000
  C   C1581     1.0  0.53947  0.36605  0.50753  1.0000
  H   H1251     1.0  0.67604  0.33397  0.58494  1.0000
  H   H1252     1.0  0.73450  0.30189  0.61002  1.0000
  H   H1253     1.0  0.73018  0.16396  0.73021  1.0000
  H   H1254     1.0  0.57518  0.41678  0.50483  1.0000
  C   C1582     1.0  0.82244  0.21512  0.72996  1.0000
  C   C1583     1.0  0.81652  0.99686  0.52062  1.0000
  C   C1584     1.0  0.92733  0.03492  0.50693  1.0000
  C   C1585     1.0  0.62247  0.12798  0.65518  1.0000
  H   H1255     1.0  0.72749  0.40981  0.62122  1.0000
  C   C1586     1.0  0.72689  0.31813  0.64015  1.0000
  H   H1256     1.0  0.94137  0.04118  0.49607  1.0000
  H   H1257     1.0  0.73477  0.37756  0.55918  1.0000
  C   C1587     1.0  0.96564  0.11192  0.50295  1.0000
  C   C1588     1.0  0.54421  0.35213  0.49016  1.0000
  C   C1589     1.0  0.92949  0.03773  0.52955  1.0000
  H   H1258     1.0  0.73208  0.30432  0.65051  1.0000
  C   C1590     1.0  0.67947  0.39153  0.60988  1.0000
  H   H1259     1.0  0.66284  0.13232  0.73050  1.0000
  C   C1591     1.0  0.76992  0.41810  0.58193  1.0000
  H   H1260     1.0  0.78221  0.99163  0.53597  1.0000
  C   C1592     1.0  0.72804  0.31671  0.61736  1.0000
  C   C1593     1.0  0.94743  0.15440  0.50287  1.0000
  H   H1261     1.0  0.60977  0.18711  0.67508  1.0000
  C   C1594     1.0  0.68981  0.16173  0.67874  1.0000
  C   C1595     1.0  0.64821  0.24630  0.70328  1.0000
  C   C1596     1.0  0.67966  0.16485  0.69945  1.0000
  C   C1597     1.0  0.97341  0.99037  0.58751  1.0000
  C   C1598     1.0  0.69445  0.16584  0.71791  1.0000
  C   C1599     1.0  0.86091  0.10079  0.49087  1.0000
  C   C1600     1.0  0.61379  0.17075  0.66944  1.0000
  H   H1262     1.0  0.70432  0.36925  0.64422  1.0000
  C   C1601     1.0  0.49148  0.42842  0.66063  1.0000
  H   H1263     1.0  0.71728  0.33803  0.66738  1.0000
  C   C1602     1.0  0.88103  0.11519  0.48970  1.0000
  H   H1264     1.0  0.49134  0.41916  0.67602  1.0000
  H   H1265     1.0  0.60646  0.34073  0.50091  1.0000
  C   C1603     1.0  0.95581  0.12014  0.52207  1.0000
  C   C1604     1.0  0.63577  0.13708  0.67241  1.0000
  H   H1266     1.0  0.77132  0.40042  0.55163  1.0000
  H   H1267     1.0  0.60411  0.44094  0.52386  1.0000
  C   C1605     1.0  0.82507  0.14455  0.50391  1.0000
  C   C1606     1.0  0.53601  0.38860  0.50352  1.0000
  C   C1607     1.0  0.60494  0.14028  0.64500  1.0000
  C   C1608     1.0  0.83201  0.23620  0.73540  1.0000
  H   H1268     1.0  0.93761  0.00213  0.58474  1.0000
  C   C1609     1.0  0.72871  0.15925  0.69535  1.0000
  H   H1269     1.0  0.62913  0.42437  0.63637  1.0000
  C   C1610     1.0  0.60054  0.16162  0.65219  1.0000
  C   C1611     1.0  0.64433  0.39239  0.63293  1.0000
  H   H1270     1.0  0.87699  0.01330  0.54620  1.0000
  C   C1612     1.0  0.65998  0.35370  0.53493  1.0000
  H   H1271     1.0  0.85022  0.04512  0.52259  1.0000
  H   H1272     1.0  0.49185  0.46074  0.60526  1.0000
  H   H1273     1.0  0.78571  0.31014  0.73022  1.0000
  C   C1613     1.0  0.52254  0.43249  0.55761  1.0000
  C   C1614     1.0  0.87180  0.26758  0.72677  1.0000
  P   P51       1.0  0.70154  0.37576  0.59634  1.0000
  C   C1615     1.0  0.75755  0.42068  0.60152  1.0000
  C   C1616     1.0  0.64220  0.21072  0.72202  1.0000
  C   C1617     1.0  0.65286  0.23545  0.68382  1.0000
  C   C1618     1.0  0.80288  0.13366  0.50165  1.0000
  C   C1619     1.0  0.94668  0.14134  0.52199  1.0000
  C   C1620     1.0  0.64292  0.23394  0.72237  1.0000
  H   H1274     1.0  0.93887  0.14763  0.53675  1.0000
  C   C1621     1.0  0.51075  0.43865  0.62626  1.0000
  H   H1275     1.0  0.65757  0.24513  0.66921  1.0000
  H   H1276     1.0  0.72213  0.15652  0.66080  1.0000
  C   C1622     1.0  0.98490  0.08761  0.60675  1.0000
  C   C1623     1.0  0.63188  0.15872  0.67932  1.0000
  H   H1277     1.0  0.60405  0.17596  0.72593  1.0000
  H   H1278     1.0  0.50966  0.44992  0.51299  1.0000
  H   H1279     1.0  0.52541  0.41668  0.65043  1.0000
  H   H1280     1.0  0.64906  0.12725  0.68040  1.0000
  H   H1281     1.0  0.76414  0.43251  0.61345  1.0000
  H   H1282     1.0  0.53873  0.35939  0.52417  1.0000
  C   C1624     1.0  0.95638  0.00663  0.58469  1.0000
  H   H1283     1.0  0.65045  0.45027  0.50907  1.0000
  H   H1284     1.0  0.95502  0.11007  0.53700  1.0000
  C   C1625     1.0  0.67120  0.37479  0.53548  1.0000
  H   H1285     1.0  0.85467  0.16092  0.48714  1.0000
  C   C1626     1.0  0.71074  0.35465  0.63646  1.0000
  H   H1286     1.0  0.74769  0.15727  0.69374  1.0000
  C   C1627     1.0  0.68446  0.38123  0.55384  1.0000
  H   H1287     1.0  0.79374  0.12689  0.51607  1.0000
  H   H1288     1.0  0.65265  0.32294  0.55272  1.0000
  H   H1289     1.0  0.69212  0.39798  0.55441  1.0000
  C   C1628     1.0  0.65241  0.21223  0.68346  1.0000
  C   C1629     1.0  0.79706  0.00328  0.53291  1.0000
  H   H1290     1.0  0.94507  0.04629  0.53625  1.0000
  H   H1291     1.0  0.65693  0.20410  0.66844  1.0000
  H   H1292     1.0  0.52555  0.43726  0.61500  1.0000
  C   C1630     1.0  0.91136  0.02970  0.54357  1.0000
  C   C1631     1.0  0.67546  0.34531  0.57102  1.0000
  C   C1632     1.0  0.73673  0.40788  0.60582  1.0000
  H   H1293     1.0  0.68715  0.16923  0.73383  1.0000
  C   C1633     1.0  0.57264  0.43449  0.50467  1.0000
  H   H1294     1.0  0.86514  0.30091  0.71489  1.0000
  C   C1634     1.0  0.79680  0.02468  0.54135  1.0000
  C   C1635     1.0  0.55163  0.46684  0.49277  1.0000
  P   P52       1.0  0.86156  0.00359  0.50168  1.0000
  H   H1295     1.0  0.66875  0.38641  0.52197  1.0000
  H   H1296     1.0  0.78608  0.42800  0.57864  1.0000
  H   H1297     1.0  0.52383  0.41455  0.55791  1.0000
  H   H1298     1.0  0.72157  0.33290  0.58644  1.0000
  C   C1636     1.0  0.54293  0.44624  0.55489  1.0000
  C   C1637     1.0  0.66221  0.38055  0.62317  1.0000
  C   C1638     1.0  0.64329  0.41526  0.62915  1.0000
  C   C1639     1.0  0.55343  0.44368  0.49359  1.0000
  H   H1299     1.0  0.64903  0.34906  0.52100  1.0000
  H   H1300     1.0  0.65849  0.44385  0.61187  1.0000
  H   H1301     1.0  0.63088  0.38370  0.64292  1.0000
  H   H1302     1.0  0.66223  0.36273  0.62548  1.0000
  H   H1303     1.0  0.81566  0.05644  0.54357  1.0000
  H   H1304     1.0  0.69029  0.42310  0.59458  1.0000
  C   C1640     1.0  0.66208  0.33899  0.55271  1.0000
  H   H1305     1.0  0.91275  0.03203  0.56111  1.0000
  C   C1641     1.0  0.83616  0.01166  0.51722  1.0000
  C   C1642     1.0  0.71095  0.35300  0.61352  1.0000
  C   C1643     1.0  0.89092  0.01923  0.53503  1.0000
  H   H1306     1.0  0.56017  0.43914  0.55336  1.0000
  C   C1644     1.0  0.71845  0.33717  0.64968  1.0000
  C   C1645     1.0  0.76158  0.40260  0.56670  1.0000
  P   P53       1.0  0.64839  0.16979  0.70222  1.0000
  C   C1646     1.0  0.83554  0.03323  0.52540  1.0000
  C   C1647     1.0  0.81593  0.03970  0.53738  1.0000
  C   C1648     1.0  0.88343  0.98899  0.59486  1.0000
  C   C1649     1.0  0.87663  0.29057  0.72452  1.0000
  H   H1307     1.0  0.49567  0.34505  0.69767  1.0000
  H   H1308     1.0  0.59462  0.13321  0.63168  1.0000
  H   H1309     1.0  0.89963  0.31835  0.73361  1.0000
  C   C1650     1.0  0.56858  0.48056  0.50310  1.0000
  H   H1310     1.0  0.98429  0.07377  0.61833  1.0000
  H   H1311     1.0  0.54737  0.33475  0.49334  1.0000
  C   C1651     1.0  0.49169  0.45182  0.62073  1.0000
  C   C1652     1.0  0.59552  0.47971  0.60673  1.0000
  C   C1653     1.0  0.60529  0.35105  0.48630  1.0000
  C   C1654     1.0  0.49621  0.44284  0.50224  1.0000
  C   C1655     1.0  0.89623  0.30055  0.73512  1.0000
  H   H1312     1.0  0.58733  0.47818  0.62272  1.0000
  H   H1313     1.0  0.60054  0.48201  0.52238  1.0000
  C   C1656     1.0  0.90690  0.02431  0.49833  1.0000
  H   H1314     1.0  0.97218  0.09528  0.50317  1.0000
  C   C1657     1.0  0.61312  0.16256  0.73395  1.0000
  Fe  Fe111     1.0  0.56707  0.10522  0.86957  1.0000
  S   S221      1.0  0.60224  0.12355  0.87635  1.0000
  S   S222      1.0  0.53161  0.12038  0.87715  1.0000
  Fe  Fe112     1.0  0.59023  0.06171  0.85974  1.0000
  S   S223      1.0  0.62684  0.07646  0.86553  1.0000
  S   S224      1.0  0.57783  0.02644  0.85101  1.0000
  Fe  Fe113     1.0  0.61123  0.09246  0.89504  1.0000
  S   S225      1.0  0.63097  0.08821  0.92737  1.0000
  Fe  Fe114     1.0  0.61563  0.10671  0.84611  1.0000
  S   S226      1.0  0.64430  0.12000  0.82124  1.0000
  S   S227      1.0  0.57542  0.07554  0.89047  1.0000
  S   S228      1.0  0.57964  0.09055  0.83815  1.0000
  Fe  Fe115     1.0  0.84869  0.36986  0.84548  1.0000
  S   S229      1.0  0.86872  0.40204  0.83576  1.0000
  S   S230      1.0  0.82265  0.35509  0.81940  1.0000
  Fe  Fe116     1.0  0.87037  0.37114  0.89214  1.0000
  S   S231      1.0  0.89149  0.40266  0.88510  1.0000
  S   S232      1.0  0.87741  0.35480  0.92544  1.0000
  Fe  Fe117     1.0  0.85877  0.41469  0.86875  1.0000
  S   S233      1.0  0.84878  0.44894  0.87992  1.0000
  Fe  Fe118     1.0  0.90017  0.38779  0.85305  1.0000
  S   S234      1.0  0.93727  0.39507  0.83927  1.0000
  S   S235      1.0  0.83652  0.38381  0.87780  1.0000
  S   S236      1.0  0.88119  0.35494  0.86063  1.0000
  S   S237      1.0  0.68075  0.20501  0.76288  1.0000
  S   S238      1.0  0.77932  0.26742  0.77157  1.0000
  H   H1315     1.0  0.64434  0.11394  0.76300  1.0000
  C   C1658     1.0  0.95218  0.48010  0.82955  1.0000
  C   C1659     1.0  0.51671  0.04033  0.84056  1.0000
  H   H1316     1.0  0.85825  0.46200  0.83425  1.0000
  H   H1317     1.0  0.86337  0.34761  0.79111  1.0000
  H   H1318     1.0  0.50308  0.04952  0.80893  1.0000
  H   H1319     1.0  0.79350  0.45320  0.97598  1.0000
  C   C1660     1.0  0.61388  0.13428  0.76267  1.0000
  C   C1661     1.0  0.49947  0.04045  0.82415  1.0000
  H   H1320     1.0  0.83052  0.40303  0.97186  1.0000
  H   H1321     1.0  0.94383  0.36087  0.87284  1.0000
  H   H1322     1.0  0.97758  0.29409  0.78001  1.0000
  H   H1323     1.0  0.54099  0.11825  0.92233  1.0000
  C   C1662     1.0  0.86801  0.36598  0.95060  1.0000
  C   C1663     1.0  0.85152  0.38269  0.95125  1.0000
  C   C1664     1.0  0.94348  0.24293  0.80611  1.0000
  C   C1665     1.0  0.87701  0.35760  0.97047  1.0000
  H   H1324     1.0  0.84444  0.38926  0.93610  1.0000
  C   C1666     1.0  0.88695  0.25475  0.73961  1.0000
  C   C1667     1.0  0.79121  0.29213  0.78446  1.0000
  C   C1668     1.0  0.80913  0.29023  0.80050  1.0000
  C   C1669     1.0  0.81896  0.30911  0.81131  1.0000
  C   C1670     1.0  0.81108  0.33038  0.80628  1.0000
  C   C1671     1.0  0.79331  0.33228  0.79012  1.0000
  C   C1672     1.0  0.78343  0.31341  0.77937  1.0000
  H   H1325     1.0  0.81531  0.27397  0.80477  1.0000
  H   H1326     1.0  0.83250  0.30719  0.82368  1.0000
  H   H1327     1.0  0.78692  0.34854  0.78605  1.0000
  H   H1328     1.0  0.76950  0.31533  0.76738  1.0000
  C   C1673     1.0  0.59157  0.00165  0.85920  1.0000
  C   C1674     1.0  0.61244  0.00197  0.87161  1.0000
  C   C1675     1.0  0.82124  0.43367  0.93120  1.0000
  H   H1329     1.0  0.62091  0.01769  0.87603  1.0000
  C   C1676     1.0  0.91631  0.48383  0.80785  1.0000
  C   C1677     1.0  0.65392  0.14383  0.80502  1.0000
  C   C1678     1.0  0.64034  0.16268  0.80258  1.0000
  C   C1679     1.0  0.64868  0.18089  0.78934  1.0000
  C   C1680     1.0  0.67091  0.18092  0.77869  1.0000
  C   C1681     1.0  0.68439  0.16202  0.78099  1.0000
  C   C1682     1.0  0.67596  0.14367  0.79404  1.0000
  H   H1330     1.0  0.62330  0.16312  0.81068  1.0000
  H   H1331     1.0  0.63772  0.19505  0.78728  1.0000
  H   H1332     1.0  0.70139  0.16156  0.77283  1.0000
  H   H1333     1.0  0.68663  0.12921  0.79567  1.0000
  C   C1683     1.0  0.52803  0.08501  0.93068  1.0000
  H   H1334     1.0  0.58580  0.15712  0.75851  1.0000
  C   C1684     1.0  0.62330  0.09958  0.95289  1.0000
  C   C1685     1.0  0.61500  0.12105  0.95439  1.0000
  C   C1686     1.0  0.85771  0.47446  0.86702  1.0000
  H   H1335     1.0  0.61246  0.13086  0.93961  1.0000
  C   C1687     1.0  0.50265  0.09922  0.84645  1.0000
  C   C1688     1.0  0.50403  0.11236  0.86508  1.0000
  C   C1689     1.0  0.96521  0.29264  0.85792  1.0000
  H   H1336     1.0  0.51873  0.09327  0.83932  1.0000
  C   C1690     1.0  0.49038  0.01708  0.86346  1.0000
  C   C1691     1.0  0.91264  0.45173  0.92837  1.0000
  C   C1692     1.0  0.93442  0.44822  0.81089  1.0000
  H   H1337     1.0  0.51726  0.08412  0.91610  1.0000
  C   C1693     1.0  0.93170  0.31646  0.85943  1.0000
  C   C1694     1.0  0.96285  0.38367  0.85106  1.0000
  H   H1338     1.0  0.88977  0.34467  0.97014  1.0000
  C   C1695     1.0  0.60260  0.15180  0.75224  1.0000
  H   H1339     1.0  0.98174  0.25703  0.76449  1.0000
  C   C1696     1.0  0.94899  0.30614  0.84709  1.0000
  C   C1697     1.0  0.98543  0.39132  0.84374  1.0000
  H   H1340     1.0  0.48737  0.00790  0.87863  1.0000
  C   C1698     1.0  0.70172  0.26643  0.88268  1.0000
  H   H1341     1.0  0.61944  0.99883  0.92216  1.0000
  C   C1699     1.0  0.73990  0.24942  0.88247  1.0000
  C   C1700     1.0  0.73009  0.23164  0.87065  1.0000
  C   C1701     1.0  0.70607  0.23132  0.86444  1.0000
  C   C1702     1.0  0.69184  0.24868  0.87082  1.0000
  P   P54       1.0  0.69366  0.20843  0.84888  1.0000
  C   C1703     1.0  0.71551  0.20110  0.82878  1.0000
  C   C1704     1.0  0.68571  0.18504  0.86685  1.0000
  C   C1705     1.0  0.69346  0.18432  0.88873  1.0000
  C   C1706     1.0  0.68690  0.16615  0.90241  1.0000
  C   C1707     1.0  0.67271  0.14857  0.89433  1.0000
  C   C1708     1.0  0.66505  0.14916  0.87259  1.0000
  C   C1709     1.0  0.67133  0.16737  0.85898  1.0000
  C   C1710     1.0  0.71865  0.17882  0.82352  1.0000
  C   C1711     1.0  0.73537  0.17344  0.80773  1.0000
  C   C1712     1.0  0.74897  0.19022  0.79699  1.0000
  C   C1713     1.0  0.74621  0.21242  0.80230  1.0000
  C   C1714     1.0  0.72960  0.21785  0.81814  1.0000
  C   C1715     1.0  0.66746  0.21758  0.83477  1.0000
  C   C1716     1.0  0.66945  0.22921  0.81465  1.0000
  C   C1717     1.0  0.64926  0.23706  0.80426  1.0000
  C   C1718     1.0  0.62687  0.23332  0.81380  1.0000
  C   C1719     1.0  0.62468  0.22181  0.83384  1.0000
  C   C1720     1.0  0.64488  0.21409  0.84437  1.0000
  S   S239      1.0  0.71436  0.25759  0.74273  1.0000
  C   C1721     1.0  0.80771  0.45001  0.96464  1.0000
  H   H1342     1.0  0.80391  0.19667  0.78039  1.0000
  H   H1343     1.0  0.74129  0.21825  0.86614  1.0000
  H   H1344     1.0  0.67321  0.24872  0.86650  1.0000
  H   H1345     1.0  0.70447  0.19770  0.89534  1.0000
  H   H1346     1.0  0.69281  0.16564  0.91929  1.0000
  H   H1347     1.0  0.66762  0.13443  0.90487  1.0000
  H   H1348     1.0  0.65428  0.13543  0.86620  1.0000
  H   H1349     1.0  0.66508  0.16760  0.84224  1.0000
  H   H1350     1.0  0.70801  0.16550  0.83115  1.0000
  H   H1351     1.0  0.73725  0.15625  0.80340  1.0000
  H   H1352     1.0  0.76133  0.18606  0.78427  1.0000
  H   H1353     1.0  0.75660  0.22551  0.79382  1.0000
  H   H1354     1.0  0.72747  0.23519  0.82172  1.0000
  H   H1355     1.0  0.68644  0.23199  0.80661  1.0000
  H   H1356     1.0  0.65104  0.24548  0.78845  1.0000
  H   H1357     1.0  0.61121  0.23908  0.80552  1.0000
  H   H1358     1.0  0.60730  0.21872  0.84117  1.0000
  H   H1359     1.0  0.64280  0.20542  0.86000  1.0000
  P   P55       1.0  0.50906  0.04283  0.94339  1.0000
  C   C1722     1.0  0.52207  0.02180  0.92711  1.0000
  C   C1723     1.0  0.52863  0.06728  0.94595  1.0000
  C   C1724     1.0  0.54406  0.06916  0.96402  1.0000
  C   C1725     1.0  0.55778  0.08869  0.96718  1.0000
  C   C1726     1.0  0.55626  0.10648  0.95237  1.0000
  C   C1727     1.0  0.93080  0.31363  0.88222  1.0000
  H   H1360     1.0  0.64019  0.24232  0.73766  1.0000
  C   C1728     1.0  0.54531  0.02470  0.91910  1.0000
  C   C1729     1.0  0.55527  0.00811  0.90678  1.0000
  H   H1361     1.0  0.80396  0.47893  0.90998  1.0000
  C   C1730     1.0  0.97446  0.33961  0.78933  1.0000
  H   H1362     1.0  0.53370  0.04917  0.83804  1.0000
  H   H1363     1.0  0.52600  0.02814  0.87250  1.0000
  C   C1731     1.0  0.96443  0.28997  0.88075  1.0000
  C   C1732     1.0  0.50873  0.00229  0.92227  1.0000
  C   C1733     1.0  0.61114  0.99929  0.95683  1.0000
  C   C1734     1.0  0.98247  0.46318  0.88260  1.0000
  C   C1735     1.0  0.61061  0.13008  0.97509  1.0000
  H   H1364     1.0  0.56658  0.12175  0.95486  1.0000
  S   S240      1.0  0.75026  0.21671  0.74353  1.0000
  C   C1736     1.0  0.96112  0.36658  0.86685  1.0000
  H   H1365     1.0  0.55572  0.03981  0.92208  1.0000
  H   H1366     1.0  0.57312  0.01056  0.90035  1.0000
  C   C1737     1.0  0.54212  0.98857  0.90230  1.0000
  H   H1367     1.0  0.60608  0.12623  0.77717  1.0000
  H   H1368     1.0  0.91904  0.32696  0.85162  1.0000
  C   C1738     1.0  0.94107  0.26392  0.81505  1.0000
  H   H1369     1.0  0.78492  0.43189  0.94221  1.0000
  Fe  Fe119     1.0  0.75396  0.25424  0.74412  1.0000
  H   H1370     1.0  0.60839  0.03752  0.91503  1.0000
  C   C1739     1.0  0.98176  0.35639  0.87435  1.0000
  C   C1740     1.0  0.60150  0.01184  0.97359  1.0000
  C   C1741     1.0  0.92282  0.32145  0.80826  1.0000
  C   C1742     1.0  0.92032  0.34450  0.80916  1.0000
  C   C1743     1.0  0.88233  0.31737  0.79462  1.0000
  C   C1744     1.0  0.90360  0.30791  0.80101  1.0000
  C   C1745     1.0  0.59477  0.03357  0.96930  1.0000
  H   H1371     1.0  0.96569  0.44676  0.83055  1.0000
  H   H1372     1.0  0.83851  0.25888  0.76213  1.0000
  H   H1373     1.0  0.95893  0.33835  0.77891  1.0000
  H   H1374     1.0  0.96954  0.42125  0.98544  1.0000
  H   H1375     1.0  0.54551  0.05565  0.97579  1.0000
  H   H1376     1.0  0.73345  0.28074  0.89738  1.0000
  H   H1377     1.0  0.91088  0.46815  0.92124  1.0000
  C   C1746     1.0  0.90045  0.42260  0.95435  1.0000
  H   H1378     1.0  0.58830  0.04356  0.98243  1.0000
  C   C1747     1.0  0.94723  0.30047  0.89289  1.0000
  H   H1379     1.0  0.63895  0.20156  0.73721  1.0000
  H   H1380     1.0  0.49901  0.05332  0.89749  1.0000
  H   H1381     1.0  0.93947  0.40354  0.91725  1.0000
  H   H1382     1.0  0.97177  0.38231  0.96013  1.0000
  H   H1383     1.0  0.60459  0.14685  0.97610  1.0000
  H   H1384     1.0  0.86734  0.30693  0.78934  1.0000
  P   P56       1.0  0.95012  0.30960  0.81758  1.0000
  C   C1748     1.0  0.82160  0.22836  0.77355  1.0000
  C   C1749     1.0  0.96788  0.28000  0.78743  1.0000
  C   C1750     1.0  0.59719  0.04273  0.94818  1.0000
  H   H1385     1.0  0.90243  0.45399  0.79273  1.0000
  H   H1386     1.0  0.56965  0.09010  0.98112  1.0000
  H   H1387     1.0  0.75856  0.24979  0.88687  1.0000
  C   C1751     1.0  0.51214  0.01162  0.97792  1.0000
  C   C1752     1.0  0.81197  0.20753  0.76792  1.0000
  C   C1753     1.0  0.62710  0.08725  0.97229  1.0000
  H   H1388     1.0  0.59238  0.05970  0.94485  1.0000
  C   C1754     1.0  0.84366  0.39046  0.97155  1.0000
  Fe  Fe120     1.0  0.71080  0.22026  0.74057  1.0000
  C   C1755     1.0  0.88005  0.34033  0.79558  1.0000
  C   C1756     1.0  0.50390  0.03238  0.97111  1.0000
  C   C1757     1.0  0.91644  0.46135  0.80275  1.0000
  C   C1758     1.0  0.60624  0.03019  0.93133  1.0000
  C   C1759     1.0  0.61279  0.00840  0.93552  1.0000
  C   C1760     1.0  0.72575  0.26686  0.88841  1.0000
  C   C1761     1.0  0.51881  0.98565  0.91001  1.0000
  C   C1762     1.0  0.63555  0.12738  0.75468  1.0000
  C   C1763     1.0  0.97501  0.32793  0.80948  1.0000
  H   H1389     1.0  0.63412  0.07085  0.97133  1.0000
  C   C1764     1.0  0.89954  0.44478  0.94706  1.0000
  H   H1390     1.0  0.91752  0.32194  0.89162  1.0000
  H   H1391     1.0  0.91529  0.39069  0.94934  1.0000
  H   H1392     1.0  0.93664  0.44208  0.90302  1.0000
  H   H1393     1.0  0.49036  0.10216  0.96345  1.0000
  H   H1394     1.0  0.69076  0.27996  0.88728  1.0000
  C   C1765     1.0  0.95815  0.24044  0.78791  1.0000
  H   H1395     1.0  0.88940  0.41639  0.96783  1.0000
  H   H1396     1.0  0.94670  0.29858  0.91058  1.0000
  C   C1766     1.0  0.51224  0.02853  0.86012  1.0000
  H   H1397     1.0  0.92965  0.26559  0.82919  1.0000
  H   H1398     1.0  0.89715  0.37166  0.80403  1.0000
  C   C1767     1.0  0.54162  0.10456  0.93406  1.0000
  H   H1399     1.0  0.69259  0.98823  0.91749  1.0000
  H   H1400     1.0  0.93433  0.43069  0.80719  1.0000
  C   C1768     1.0  0.84452  0.44107  0.93578  1.0000
  H   H1401     1.0  0.97867  0.28443  0.84876  1.0000
  H   H1402     1.0  0.82057  0.23381  0.79033  1.0000
  H   H1403     1.0  0.90473  0.29008  0.80052  1.0000
  C   C1769     1.0  0.89906  0.35388  0.80282  1.0000
  C   C1770     1.0  0.92883  0.41519  0.92587  1.0000
  C   C1771     1.0  0.64617  0.13814  0.73645  1.0000
  C   C1772     1.0  0.91519  0.40794  0.94393  1.0000
  C   C1773     1.0  0.84961  0.45296  0.95485  1.0000
  H   H1404     1.0  0.97731  0.27995  0.88905  1.0000
  H   H1405     1.0  0.93467  0.35520  0.81523  1.0000
  H   H1406     1.0  0.85848  0.43734  0.92437  1.0000
  C   C1774     1.0  0.95329  0.28261  0.80580  1.0000
  H   H1407     1.0  0.93406  0.22857  0.81338  1.0000
  C   C1775     1.0  0.86028  0.47656  0.84429  1.0000
  C   C1776     1.0  0.92733  0.43699  0.91793  1.0000
  C   C1777     1.0  0.95226  0.45750  0.82422  1.0000
  H   H1408     1.0  0.52023  0.00074  0.96643  1.0000
  C   C1778     1.0  0.83160  0.24263  0.75741  1.0000
  H   H1409     1.0  0.81761  0.42446  0.91638  1.0000
  C   C1779     1.0  0.80286  0.43799  0.94568  1.0000
  H   H1410     1.0  0.98021  0.34261  0.88594  1.0000
  C   C1780     1.0  0.97029  0.25897  0.77855  1.0000
  P   P57       1.0  0.87964  0.46317  0.96030  1.0000
  H   H1411     1.0  0.98511  0.38057  0.92169  1.0000
  H   H1412     1.0  0.96818  0.47099  0.89094  1.0000
  H   H1413     1.0  0.49059  0.99997  0.92802  1.0000
  H   H1414     1.0  0.96013  0.22413  0.78108  1.0000
  H   H1415     1.0  0.66086  0.99783  0.94310  1.0000
  C   C1781     1.0  0.83094  0.45776  0.96907  1.0000
  H   H1416     1.0  0.91802  0.25481  0.76019  1.0000
  H   H1417     1.0  0.50375  0.13798  0.98435  1.0000
  H   H1418     1.0  0.83435  0.46711  0.98378  1.0000
  H   H1419     1.0  0.48986  0.06313  0.98234  1.0000
  H   H1420     1.0  0.92623  0.29548  0.75624  1.0000
  C   C1782     1.0  0.81238  0.20093  0.74612  1.0000
  H   H1421     1.0  0.81317  0.28110  0.74027  1.0000
  H   H1422     1.0  0.80450  0.18497  0.74153  1.0000
  C   C1783     1.0  0.90656  0.26477  0.75013  1.0000
  C   C1784     1.0  0.91119  0.28767  0.74791  1.0000
  H   H1423     1.0  0.88337  0.23702  0.74171  1.0000
  Fe  Fe121     1.0  0.56955  0.86572  0.09402  1.0000
  S   S241      1.0  0.59594  0.87347  0.12093  1.0000
  S   S242      1.0  0.53256  0.85202  0.10350  1.0000
  Fe  Fe122     1.0  0.60417  0.88091  0.05767  1.0000
  S   S243      1.0  0.63275  0.89002  0.08203  1.0000
  S   S244      1.0  0.60651  0.89282  0.02193  1.0000
  Fe  Fe123     1.0  0.62294  0.85742  0.09973  1.0000
  S   S245      1.0  0.65346  0.83454  0.11028  1.0000
  Fe  Fe124     1.0  0.60392  0.90504  0.10136  1.0000
  S   S246      1.0  0.60748  0.93831  0.11832  1.0000
  S   S247      1.0  0.59585  0.84747  0.07376  1.0000
  S   S248      1.0  0.57591  0.89823  0.07617  1.0000
  Fe  Fe125     1.0  0.84569  0.61783  0.10274  1.0000
  S   S249      1.0  0.87917  0.63288  0.08706  1.0000
  S   S250      1.0  0.81759  0.63333  0.12539  1.0000
  Fe  Fe126     1.0  0.85458  0.57159  0.08201  1.0000
  S   S251      1.0  0.88799  0.58381  0.06495  1.0000
  S   S252      1.0  0.83917  0.53643  0.07668  1.0000
  Fe  Fe127     1.0  0.89670  0.60102  0.09644  1.0000
  S   S253      1.0  0.93206  0.59577  0.11358  1.0000
  Fe  Fe128     1.0  0.86791  0.61424  0.05656  1.0000
  S   S254      1.0  0.87080  0.63110  0.02285  1.0000
  S   S255      1.0  0.86409  0.58699  0.11415  1.0000
  S   S256      1.0  0.83352  0.60106  0.07149  1.0000
  Fe  Fe129     1.0  0.71675  0.75691  0.21120  1.0000
  S   S257      1.0  0.75621  0.76481  0.21371  1.0000
  S   S258      1.0  0.68766  0.77839  0.19518  1.0000
  Fe  Fe130     1.0  0.76079  0.72760  0.20975  1.0000
  S   S259      1.0  0.78971  0.71555  0.18591  1.0000
  S   S260      1.0  0.72149  0.72037  0.20564  1.0000
  C   C1785     1.0  0.86586  0.61729  0.99772  1.0000
  H   H1424     1.0  0.80087  0.89345  0.11066  1.0000
  H   H1425     1.0  0.79780  0.55191  0.09670  1.0000
  H   H1426     1.0  0.65964  0.76088  0.11743  1.0000
  C   C1786     1.0  0.76083  0.50686  0.99674  1.0000
  H   H1427     1.0  0.53102  0.94893  0.06496  1.0000
  C   C1787     1.0  0.95988  0.60199  0.10080  1.0000
  C   C1788     1.0  0.52005  0.95477  0.10827  1.0000
  H   H1428     1.0  0.94605  0.62166  0.07434  1.0000
  C   C1789     1.0  0.66394  0.70461  0.21387  1.0000
  C   C1790     1.0  0.81049  0.65638  0.14228  1.0000
  C   C1791     1.0  0.79031  0.65447  0.15603  1.0000
  C   C1792     1.0  0.78380  0.67213  0.16955  1.0000
  C   C1793     1.0  0.79716  0.69229  0.16941  1.0000
  C   C1794     1.0  0.81732  0.69419  0.15564  1.0000
  C   C1795     1.0  0.82399  0.67645  0.14228  1.0000
  H   H1429     1.0  0.77970  0.63911  0.15638  1.0000
  H   H1430     1.0  0.76853  0.67006  0.18021  1.0000
  H   H1431     1.0  0.82795  0.70955  0.15533  1.0000
  H   H1432     1.0  0.83952  0.67837  0.13187  1.0000
  C   C1796     1.0  0.85311  0.51118  0.08301  1.0000
  H   H1433     1.0  0.88416  0.52617  0.09809  1.0000
  C   C1797     1.0  0.77800  0.58956  0.13243  1.0000
  C   C1798     1.0  0.66240  0.81899  0.13416  1.0000
  C   C1799     1.0  0.64820  0.81612  0.15296  1.0000
  C   C1800     1.0  0.65622  0.80370  0.17130  1.0000
  C   C1801     1.0  0.67860  0.79394  0.17133  1.0000
  C   C1802     1.0  0.69285  0.79696  0.15259  1.0000
  C   C1803     1.0  0.68482  0.80933  0.13425  1.0000
  H   H1434     1.0  0.63099  0.82343  0.15334  1.0000
  H   H1435     1.0  0.64496  0.80165  0.18561  1.0000
  H   H1436     1.0  0.71015  0.78990  0.15221  1.0000
  H   H1437     1.0  0.69617  0.81152  0.12001  1.0000
  H   H1438     1.0  0.78275  0.89172  0.07365  1.0000
  H   H1439     1.0  0.78096  0.50310  0.23259  1.0000
  H   H1440     1.0  0.85762  0.52966  0.03060  1.0000
  H   H1441     1.0  0.62170  0.84736  0.01454  1.0000
  C   C1804     1.0  0.84427  0.51675  0.00002  1.0000
  C   C1805     1.0  0.60986  0.96366  0.10312  1.0000
  C   C1806     1.0  0.60987  0.96415  0.08020  1.0000
  H   H1442     1.0  0.65850  0.92360  0.12166  1.0000
  H   H1443     1.0  0.60784  0.94881  0.07133  1.0000
  H   H1444     1.0  0.65950  0.96365  0.04840  1.0000
  C   C1807     1.0  0.87501  0.51072  0.09378  1.0000
  H   H1445     1.0  0.73511  0.95026  0.11048  1.0000
  C   C1808     1.0  0.78838  0.54155  0.19130  1.0000
  C   C1809     1.0  0.50626  0.86273  0.09223  1.0000
  C   C1810     1.0  0.50689  0.88110  0.07786  1.0000
  C   C1811     1.0  0.87546  0.51837  0.14967  1.0000
  H   H1446     1.0  0.76899  0.58170  0.09911  1.0000
  H   H1447     1.0  0.64794  0.74006  0.17302  1.0000
  H   H1448     1.0  0.52377  0.88885  0.07303  1.0000
  C   C1812     1.0  0.54026  0.96419  0.05961  1.0000
  C   C1813     1.0  0.56932  0.66708  0.23289  1.0000
  H   H1449     1.0  0.74059  0.89979  0.06844  1.0000
  H   H1450     1.0  0.68625  0.85470  0.15705  1.0000
  H   H1451     1.0  0.70919  0.87171  0.12638  1.0000
  H   H1452     1.0  0.63088  0.75903  0.20418  1.0000
  C   C1814     1.0  0.74311  0.49122  0.00338  1.0000
  H   H1453     1.0  0.73778  0.75210  0.08183  1.0000
  C   C1815     1.0  0.51460  0.91049  0.12327  1.0000
  C   C1816     1.0  0.77986  0.57767  0.11314  1.0000
  H   H1454     1.0  0.79129  0.59471  0.16487  1.0000
  C   C1817     1.0  0.74463  0.90726  0.12363  1.0000
  H   H1455     1.0  0.87807  0.58044  0.16544  1.0000
  C   C1818     1.0  0.89736  0.55349  0.15323  1.0000
  H   H1456     1.0  0.68054  0.91260  0.02070  1.0000
  H   H1457     1.0  0.48685  0.85364  0.15332  1.0000
  C   C1819     1.0  0.53973  0.94119  0.10952  1.0000
  H   H1458     1.0  0.55662  0.76324  0.20897  1.0000
  H   H1459     1.0  0.93662  0.58745  0.03436  1.0000
  H   H1460     1.0  0.64015  0.93078  0.03094  1.0000
  H   H1461     1.0  0.91411  0.48787  0.03143  1.0000
  C   C1820     1.0  0.96186  0.61526  0.08179  1.0000
  C   C1821     1.0  0.80947  0.56836  0.14891  1.0000
  C   C1822     1.0  0.79268  0.58492  0.15026  1.0000
  P   P58       1.0  0.82851  0.56284  0.17210  1.0000
  H   H1462     1.0  0.55723  0.94750  0.10444  1.0000
  C   C1823     1.0  0.82661  0.54638  0.01970  1.0000
  C   C1824     1.0  0.81104  0.55632  0.12950  1.0000
  C   C1825     1.0  0.76859  0.90268  0.12645  1.0000
  C   C1826     1.0  0.64142  0.73456  0.22846  1.0000
  P   P59       1.0  0.52382  0.98310  0.09806  1.0000
  C   C1827     1.0  0.83182  0.59111  0.20816  1.0000
  H   H1463     1.0  0.82644  0.57696  0.21840  1.0000
  C   C1828     1.0  0.83492  0.58896  0.18545  1.0000
  C   C1829     1.0  0.97824  0.48896  0.05501  1.0000
  C   C1830     1.0  0.79622  0.56096  0.11176  1.0000
  H   H1464     1.0  0.68860  0.65338  0.17298  1.0000
  H   H1465     1.0  0.64902  0.87112  0.16928  1.0000
  C   C1831     1.0  0.81330  0.54378  0.19106  1.0000
  H   H1466     1.0  0.55313  0.80142  0.22276  1.0000
  H   H1467     1.0  0.73421  0.91169  0.13771  1.0000
  H   H1468     1.0  0.91221  0.52398  0.14053  1.0000
  H   H1469     1.0  0.85844  0.58498  0.01220  1.0000
  C   C1832     1.0  0.56537  0.98368  0.03269  1.0000
  H   H1470     1.0  0.67205  0.78543  0.08625  1.0000
  C   C1833     1.0  0.68785  0.67086  0.14181  1.0000
  H   H1471     1.0  0.82653  0.55720  0.03372  1.0000
  H   H1472     1.0  0.83862  0.51793  0.15858  1.0000
  C   C1834     1.0  0.63922  0.74339  0.20711  1.0000
  C   C1835     1.0  0.93698  0.55271  0.04344  1.0000
  C   C1836     1.0  0.64897  0.73267  0.18929  1.0000
  H   H1473     1.0  0.85777  0.50456  0.99880  1.0000
  H   H1474     1.0  0.49336  0.88818  0.17436  1.0000
  C   C1837     1.0  0.65244  0.96509  0.03200  1.0000
  H   H1475     1.0  0.84565  0.53293  0.20631  1.0000
  C   C1838     1.0  0.67625  0.75820  0.10909  1.0000
  C   C1839     1.0  0.82642  0.53129  0.20607  1.0000
  H   H1476     1.0  0.57880  0.66286  0.21818  1.0000
  H   H1477     1.0  0.51253  0.89326  0.12864  1.0000
  H   H1478     1.0  0.84392  0.60663  0.15520  1.0000
  C   C1840     1.0  0.84156  0.63062  0.20497  1.0000
  C   C1841     1.0  0.94757  0.57354  0.03840  1.0000
  C   C1842     1.0  0.71724  0.67799  0.16997  1.0000
  C   C1843     1.0  0.58800  0.75678  0.22789  1.0000
  H   H1479     1.0  0.97923  0.58389  0.12522  1.0000
  C   C1844     1.0  0.95101  0.53497  0.04945  1.0000
  H   H1480     1.0  0.71109  0.78090  0.06836  1.0000
  C   C1845     1.0  0.69701  0.66621  0.16260  1.0000
  H   H1481     1.0  0.91357  0.56362  0.15082  1.0000
  C   C1846     1.0  0.84165  0.60783  0.17275  1.0000
  C   C1847     1.0  0.56939  0.76976  0.22073  1.0000
  H   H1482     1.0  0.82394  0.54368  0.12765  1.0000
  C   C1848     1.0  0.77210  0.89606  0.08761  1.0000
  C   C1849     1.0  0.85501  0.52795  0.15753  1.0000
  H   H1483     1.0  0.94223  0.51919  0.05357  1.0000
  C   C1850     1.0  0.64150  0.94662  0.02219  1.0000
  C   C1851     1.0  0.53703  0.91927  0.11730  1.0000
  C   C1852     1.0  0.63209  0.94852  0.00109  1.0000
  H   H1484     1.0  0.72450  0.67427  0.18602  1.0000
  H   H1485     1.0  0.98578  0.63140  0.05828  1.0000
  C   C1853     1.0  0.87702  0.56304  0.16142  1.0000
  C   C1854     1.0  0.56741  0.79128  0.22850  1.0000
  C   C1855     1.0  0.83515  0.61189  0.21785  1.0000
  H   H1486     1.0  0.74407  0.70337  0.16260  1.0000
  C   C1856     1.0  0.68333  0.77215  0.09155  1.0000
  H   H1487     1.0  0.54468  0.87272  0.99936  1.0000
  H   H1488     1.0  0.79539  0.55978  0.00557  1.0000
  H   H1489     1.0  0.98045  0.59285  0.03564  1.0000
  H   H1490     1.0  0.55232  0.90895  0.11841  1.0000
  C   C1857     1.0  0.97588  0.53794  0.05040  1.0000
  H   H1491     1.0  0.77651  0.90346  0.14261  1.0000
  P   P60       1.0  0.73390  0.71968  0.11798  1.0000
  C   C1858     1.0  0.71898  0.69951  0.13592  1.0000
  C   C1859     1.0  0.74886  0.70299  0.09837  1.0000
  C   C1860     1.0  0.74292  0.70348  0.07602  1.0000
  C   C1861     1.0  0.75468  0.69015  0.06129  1.0000
  C   C1862     1.0  0.77210  0.67600  0.06881  1.0000
  C   C1863     1.0  0.77756  0.67492  0.09110  1.0000
  C   C1864     1.0  0.76586  0.68818  0.10585  1.0000
  C   C1865     1.0  0.69891  0.68733  0.12843  1.0000
  H   H1492     1.0  0.67235  0.66153  0.13596  1.0000
  C   C1866     1.0  0.78232  0.89705  0.10846  1.0000
  H   H1493     1.0  0.72620  0.75284  0.15082  1.0000
  C   C1867     1.0  0.72823  0.69459  0.15669  1.0000
  C   C1868     1.0  0.75430  0.73750  0.13304  1.0000
  C   C1869     1.0  0.74511  0.75273  0.14761  1.0000
  C   C1870     1.0  0.76023  0.76815  0.15801  1.0000
  C   C1871     1.0  0.78475  0.76791  0.15468  1.0000
  C   C1872     1.0  0.79410  0.75266  0.14039  1.0000
  C   C1873     1.0  0.77895  0.73768  0.12936  1.0000
  H   H1494     1.0  0.72913  0.71386  0.06988  1.0000
  H   H1495     1.0  0.75027  0.69073  0.04402  1.0000
  H   H1496     1.0  0.78133  0.66574  0.05743  1.0000
  H   H1497     1.0  0.79093  0.66379  0.09699  1.0000
  H   H1498     1.0  0.77025  0.68701  0.12313  1.0000
  H   H1499     1.0  0.69196  0.69047  0.11216  1.0000
  H   H1500     1.0  0.58405  0.95019  0.99150  1.0000
  H   H1501     1.0  0.77783  0.55108  0.18002  1.0000
  H   H1502     1.0  0.76587  0.60300  0.13329  1.0000
  H   H1503     1.0  0.75289  0.78011  0.16888  1.0000
  H   H1504     1.0  0.79652  0.77931  0.16343  1.0000
  H   H1505     1.0  0.81314  0.75220  0.13811  1.0000
  H   H1506     1.0  0.78671  0.72637  0.11816  1.0000
  C   C1874     1.0  0.67885  0.86690  0.05424  1.0000
  C   C1875     1.0  0.67612  0.87994  0.03531  1.0000
  C   C1876     1.0  0.68249  0.90259  0.03548  1.0000
  C   C1877     1.0  0.69093  0.91238  0.05475  1.0000
  C   C1878     1.0  0.69272  0.89955  0.07412  1.0000
  C   C1879     1.0  0.68739  0.87659  0.07350  1.0000
  P   P61       1.0  0.70319  0.91194  0.09927  1.0000
  C   C1880     1.0  0.73418  0.90610  0.10277  1.0000
  C   C1881     1.0  0.69963  0.94171  0.09857  1.0000
  H   H1507     1.0  0.66886  0.87254  0.02055  1.0000
  C   C1882     1.0  0.55316  0.96429  0.04001  1.0000
  H   H1508     1.0  0.84960  0.64307  0.17234  1.0000
  H   H1509     1.0  0.75757  0.52526  0.20632  1.0000
  H   H1510     1.0  0.84368  0.64680  0.21235  1.0000
  C   C1883     1.0  0.66113  0.71316  0.19264  1.0000
  C   C1884     1.0  0.89658  0.53119  0.14733  1.0000
  C   C1885     1.0  0.68617  0.89945  0.12189  1.0000
  C   C1886     1.0  0.69360  0.87980  0.13209  1.0000
  C   C1887     1.0  0.68055  0.86999  0.14947  1.0000
  C   C1888     1.0  0.65956  0.87924  0.15638  1.0000
  C   C1889     1.0  0.65189  0.89863  0.14625  1.0000
  C   C1890     1.0  0.66517  0.90878  0.12920  1.0000
  H   H1511     1.0  0.67369  0.84937  0.05424  1.0000
  H   H1512     1.0  0.58943  0.74020  0.22165  1.0000
  C   C1891     1.0  0.88479  0.49020  0.09947  1.0000
  H   H1513     1.0  0.69579  0.92994  0.05448  1.0000
  H   H1514     1.0  0.68891  0.86621  0.08807  1.0000
  H   H1515     1.0  0.66340  0.93965  0.08643  1.0000
  C   C1892     1.0  0.84423  0.53087  0.01791  1.0000
  H   H1516     1.0  0.55423  0.94913  0.03083  1.0000
  C   C1893     1.0  0.71826  0.95637  0.10514  1.0000
  C   C1894     1.0  0.78998  0.51444  0.22104  1.0000
  C   C1895     1.0  0.70534  0.76962  0.08153  1.0000
  H   H1517     1.0  0.66925  0.70520  0.17892  1.0000
  H   H1518     1.0  0.67418  0.68997  0.21662  1.0000
  H   H1519     1.0  0.68570  0.73176  0.13084  1.0000
  C   C1896     1.0  0.67519  0.97344  0.09165  1.0000
  H   H1520     1.0  0.63537  0.90569  0.15127  1.0000
  C   C1897     1.0  0.84493  0.62855  0.18245  1.0000
  H   H1521     1.0  0.57055  0.70214  0.22539  1.0000
  C   C1898     1.0  0.74813  0.90061  0.08473  1.0000
  C   C1899     1.0  0.71300  0.73851  0.10619  1.0000
  C   C1900     1.0  0.69105  0.74155  0.11650  1.0000
  C   C1901     1.0  0.80906  0.54786  0.00362  1.0000
  H   H1522     1.0  0.91779  0.55042  0.04314  1.0000
  C   C1902     1.0  0.85978  0.59458  0.99708  1.0000
  C   C1903     1.0  0.72027  0.75309  0.08901  1.0000
  C   C1904     1.0  0.61312  0.87789  0.99807  1.0000
  C   C1905     1.0  0.85556  0.55042  0.16335  1.0000
  C   C1906     1.0  0.49484  0.92369  0.12168  1.0000
  C   C1907     1.0  0.81478  0.51664  0.22096  1.0000
  H   H1523     1.0  0.87474  0.50116  0.14476  1.0000
  H   H1524     1.0  0.65847  0.98016  0.08667  1.0000
  C   C1908     1.0  0.49751  0.94582  0.11437  1.0000
  H   H1525     1.0  0.90153  0.49001  0.10814  1.0000
  H   H1526     1.0  0.55783  0.97313  0.13402  1.0000
  H   H1527     1.0  0.74256  0.48517  0.02022  1.0000
  C   C1909     1.0  0.77680  0.52691  0.20623  1.0000
  H   H1528     1.0  0.77373  0.51267  0.00869  1.0000
  C   C1910     1.0  0.98639  0.55895  0.04517  1.0000
  C   C1911     1.0  0.65465  0.71557  0.23175  1.0000
  C   C1912     1.0  0.84153  0.49095  0.07739  1.0000
  C   C1913     1.0  0.67810  0.95050  0.09162  1.0000
  H   H1529     1.0  0.90896  0.49039  0.99162  1.0000
  C   C1914     1.0  0.62007  0.85585  0.99888  1.0000
  H   H1530     1.0  0.92854  0.57326  0.98810  1.0000
  C   C1915     1.0  0.97227  0.57660  0.03915  1.0000
  C   C1916     1.0  0.98441  0.62075  0.07273  1.0000
  H   H1531     1.0  0.82466  0.49112  0.06894  1.0000
  C   C1917     1.0  0.98064  0.59400  0.11043  1.0000
  H   H1532     1.0  0.82500  0.50700  0.23247  1.0000
  C   C1918     1.0  0.71529  0.97932  0.10493  1.0000
  H   H1533     1.0  0.95649  0.49272  0.08394  1.0000
  H   H1534     1.0  0.65483  0.78793  0.23399  1.0000
  C   C1919     1.0  0.63277  0.96911  0.98992  1.0000
  H   H1535     1.0  0.62436  0.93386  0.99360  1.0000
  H   H1536     1.0  0.61269  0.98352  0.13204  1.0000
  H   H1537     1.0  0.57598  0.98357  0.01790  1.0000
  C   C1920     1.0  0.53990  0.98341  0.07233  1.0000
  C   C1921     1.0  0.61241  0.98378  0.11433  1.0000
  H   H1538     1.0  0.83239  0.61357  0.23529  1.0000
  Fe  Fe131     1.0  0.59433  0.56944  0.35616  1.0000
  S   S261      1.0  0.57661  0.59964  0.34224  1.0000
  S   S262      1.0  0.58992  0.53680  0.33780  1.0000
  Fe  Fe132     1.0  0.61204  0.59437  0.39612  1.0000
  S   S263      1.0  0.59610  0.62610  0.38509  1.0000
  S   S264      1.0  0.63159  0.58983  0.42832  1.0000
  Fe  Fe133     1.0  0.56412  0.60440  0.37667  1.0000
  S   S265      1.0  0.52808  0.61447  0.38885  1.0000
  Fe  Fe134     1.0  0.61030  0.61923  0.35120  1.0000
  S   S266      1.0  0.62503  0.65055  0.33181  1.0000
  S   S267      1.0  0.57927  0.57302  0.38989  1.0000
  S   S268      1.0  0.62877  0.58859  0.36308  1.0000
  Fe  Fe135     1.0  0.86063  0.88379  0.39052  1.0000
  S   S269      1.0  0.84348  0.89188  0.35793  1.0000
  S   S270      1.0  0.83952  0.88384  0.42236  1.0000
  Fe  Fe136     1.0  0.90940  0.87861  0.37032  1.0000
  S   S271      1.0  0.89630  0.88656  0.33647  1.0000
  S   S272      1.0  0.94619  0.87112  0.38347  1.0000
  Fe  Fe137     1.0  0.87622  0.91387  0.35220  1.0000
  S   S273      1.0  0.87748  0.94819  0.33548  1.0000
  Fe  Fe138     1.0  0.86412  0.86392  0.34436  1.0000
  S   S274      1.0  0.85264  0.83896  0.31740  1.0000
  S   S275      1.0  0.89186  0.90756  0.38542  1.0000
  S   S276      1.0  0.87887  0.85423  0.37754  1.0000
  C   C1922     1.0  0.54495  0.66285  0.47629  1.0000
  C   C1923     1.0  0.48845  0.57622  0.42522  1.0000
  S   S277      1.0  0.70074  0.68337  0.25702  1.0000
  C   C1924     1.0  0.49094  0.49884  0.37707  1.0000
  S   S278      1.0  0.76369  0.78118  0.27846  1.0000
  H   H1539     1.0  0.78410  0.92456  0.26053  1.0000
  C   C1925     1.0  0.97346  0.87274  0.36892  1.0000
  H   H1540     1.0  0.74307  0.82608  0.26854  1.0000
  C   C1926     1.0  0.97437  0.87366  0.34601  1.0000
  C   C1927     1.0  0.67142  0.51999  0.38883  1.0000
  H   H1541     1.0  0.95806  0.87332  0.33664  1.0000
  S   S279      1.0  0.71312  0.75099  0.24779  1.0000
  H   H1542     1.0  0.84703  0.95930  0.37245  1.0000
  H   H1543     1.0  0.50200  0.56904  0.41531  1.0000
  C   C1928     1.0  0.82736  0.82360  0.30658  1.0000
  C   C1929     1.0  0.80472  0.82363  0.31613  1.0000
  C   C1930     1.0  0.78564  0.81061  0.30730  1.0000
  C   C1931     1.0  0.78861  0.79763  0.28854  1.0000
  C   C1932     1.0  0.81112  0.79797  0.27874  1.0000
  C   C1933     1.0  0.83030  0.81070  0.28779  1.0000
  H   H1544     1.0  0.80193  0.83351  0.33042  1.0000
  H   H1545     1.0  0.76837  0.81062  0.31506  1.0000
  H   H1546     1.0  0.81388  0.78815  0.26438  1.0000
  H   H1547     1.0  0.84763  0.81046  0.28018  1.0000
  C   C1934     1.0  0.83944  0.87817  0.46728  1.0000
  C   C1935     1.0  0.85343  0.87993  0.44817  1.0000
  C   C1936     1.0  0.87807  0.87845  0.45002  1.0000
  C   C1937     1.0  0.64788  0.51391  0.42923  1.0000
  H   H1548     1.0  0.82038  0.87948  0.46606  1.0000
  H   H1549     1.0  0.88907  0.87994  0.43549  1.0000
  C   C1938     1.0  0.50190  0.60675  0.37453  1.0000
  C   C1939     1.0  0.50243  0.59328  0.35614  1.0000
  H   H1550     1.0  0.78984  0.90495  0.39762  1.0000
  H   H1551     1.0  0.51916  0.58724  0.35052  1.0000
  C   C1940     1.0  0.59645  0.51042  0.34929  1.0000
  C   C1941     1.0  0.60466  0.50803  0.37077  1.0000
  C   C1942     1.0  0.93944  0.96514  0.34660  1.0000
  H   H1552     1.0  0.60690  0.52252  0.38084  1.0000
  C   C1943     1.0  0.59743  0.70132  0.30549  1.0000
  C   C1944     1.0  0.64738  0.65907  0.31186  1.0000
  C   C1945     1.0  0.65830  0.64408  0.29820  1.0000
  C   C1946     1.0  0.67453  0.65183  0.28171  1.0000
  C   C1947     1.0  0.68047  0.67467  0.27867  1.0000
  C   C1948     1.0  0.66987  0.68965  0.29258  1.0000
  C   C1949     1.0  0.65352  0.68190  0.30896  1.0000
  H   H1553     1.0  0.65421  0.62649  0.30025  1.0000
  H   H1554     1.0  0.68265  0.63998  0.27126  1.0000
  H   H1555     1.0  0.67428  0.70720  0.29071  1.0000
  H   H1556     1.0  0.64558  0.69375  0.31951  1.0000
  H   H1557     1.0  0.56293  0.55589  0.29517  1.0000
  C   C1950     1.0  0.61905  0.59796  0.45342  1.0000
  C   C1951     1.0  0.59751  0.60867  0.45422  1.0000
  H   H1558     1.0  0.93946  0.81576  0.38885  1.0000
  H   H1559     1.0  0.58814  0.61233  0.43918  1.0000
  C   C1952     1.0  0.80919  0.76135  0.32716  1.0000
  C   C1953     1.0  0.82196  0.75296  0.30977  1.0000
  C   C1954     1.0  0.84672  0.75251  0.31087  1.0000
  C   C1955     1.0  0.85874  0.76071  0.32927  1.0000
  C   C1956     1.0  0.84610  0.77001  0.34645  1.0000
  C   C1957     1.0  0.82115  0.76964  0.34554  1.0000
  P   P62       1.0  0.86165  0.77989  0.37051  1.0000
  C   C1958     1.0  0.84453  0.79964  0.38491  1.0000
  C   C1959     1.0  0.86644  0.75561  0.38735  1.0000
  C   C1960     1.0  0.88849  0.74555  0.38734  1.0000
  C   C1961     1.0  0.89183  0.72642  0.40013  1.0000
  C   C1962     1.0  0.87311  0.71705  0.41272  1.0000
  C   C1963     1.0  0.85097  0.72671  0.41240  1.0000
  C   C1964     1.0  0.84758  0.74585  0.39965  1.0000
  C   C1965     1.0  0.84514  0.80058  0.40789  1.0000
  C   C1966     1.0  0.83256  0.81664  0.41877  1.0000
  C   C1967     1.0  0.81956  0.83195  0.40679  1.0000
  C   C1968     1.0  0.81948  0.83151  0.38392  1.0000
  C   C1969     1.0  0.83202  0.81550  0.37303  1.0000
  C   C1970     1.0  0.88914  0.79506  0.36400  1.0000
  C   C1971     1.0  0.90595  0.79928  0.38058  1.0000
  C   C1972     1.0  0.92664  0.81219  0.37602  1.0000
  C   C1973     1.0  0.93050  0.82126  0.35502  1.0000
  C   C1974     1.0  0.91363  0.81754  0.33860  1.0000
  C   C1975     1.0  0.89301  0.80454  0.34306  1.0000
  H   H1560     1.0  0.78999  0.76175  0.32614  1.0000
  H   H1561     1.0  0.81260  0.74702  0.29535  1.0000
  H   H1562     1.0  0.85656  0.74594  0.29737  1.0000
  H   H1563     1.0  0.87790  0.76001  0.32998  1.0000
  H   H1564     1.0  0.81083  0.77586  0.35888  1.0000
  H   H1565     1.0  0.90303  0.75230  0.37733  1.0000
  H   H1566     1.0  0.90891  0.71875  0.40014  1.0000
  H   H1567     1.0  0.96553  0.89227  0.42169  1.0000
  H   H1568     1.0  0.69817  0.55847  0.48410  1.0000
  H   H1569     1.0  0.83022  0.75298  0.39929  1.0000
  H   H1570     1.0  0.85559  0.78922  0.41741  1.0000
  H   H1571     1.0  0.83322  0.81759  0.43648  1.0000
  H   H1572     1.0  0.81013  0.84458  0.41524  1.0000
  H   H1573     1.0  0.81030  0.84394  0.37457  1.0000
  H   H1574     1.0  0.83241  0.81577  0.35531  1.0000
  H   H1575     1.0  0.90285  0.79300  0.39711  1.0000
  C   C1976     1.0  0.51028  0.62347  0.27710  1.0000
  H   H1576     1.0  0.94630  0.83163  0.35165  1.0000
  H   H1577     1.0  0.91619  0.82521  0.32252  1.0000
  H   H1578     1.0  0.87986  0.80252  0.33028  1.0000
  H   H1579     1.0  0.61622  0.70003  0.25279  1.0000
  C   C1977     1.0  0.77192  0.93316  0.27084  1.0000
  C   C1978     1.0  0.93812  0.94206  0.34500  1.0000
  C   C1979     1.0  0.95494  0.92930  0.35539  1.0000
  H   H1580     1.0  0.95322  0.91145  0.35465  1.0000
  C   C1980     1.0  0.73977  0.85223  0.29193  1.0000
  H   H1581     1.0  0.54640  0.49485  0.44345  1.0000
  H   H1582     1.0  0.51207  0.63882  0.24464  1.0000
  C   C1981     1.0  0.56032  0.50739  0.44602  1.0000
  C   C1982     1.0  0.92075  0.83976  0.43105  1.0000
  H   H1583     1.0  0.92375  0.93396  0.33603  1.0000
  H   H1584     1.0  0.65845  0.74562  0.29170  1.0000
  C   C1983     1.0  0.97482  0.95624  0.42369  1.0000
  C   C1984     1.0  0.53845  0.51420  0.37814  1.0000
  C   C1985     1.0  0.86555  0.91536  0.28766  1.0000
  H   H1585     1.0  0.54333  0.65373  0.42141  1.0000
  H   H1586     1.0  0.73331  0.97513  0.26795  1.0000
  C   C1986     1.0  0.82664  0.93031  0.29237  1.0000
  P   P63       1.0  0.63266  0.50999  0.45523  1.0000
  H   H1587     1.0  0.61013  0.55256  0.45459  1.0000
  H   H1588     1.0  0.97693  0.97410  0.42383  1.0000
  C   C1987     1.0  0.88848  0.87470  0.47069  1.0000
  C   C1988     1.0  0.55247  0.58963  0.28967  1.0000
  H   H1589     1.0  0.56520  0.63321  0.24423  1.0000
  C   C1989     1.0  0.65392  0.53444  0.39488  1.0000
  C   C1990     1.0  0.95828  0.97570  0.35796  1.0000
  H   H1590     1.0  0.56762  0.67371  0.44936  1.0000
  C   C1991     1.0  0.51166  0.63777  0.46711  1.0000
  H   H1591     1.0  0.82505  0.87443  0.30214  1.0000
  H   H1592     1.0  0.50243  0.60591  0.30760  1.0000
  C   C1992     1.0  0.78345  0.86890  0.27555  1.0000
  H   H1593     1.0  0.77664  0.86958  0.33828  1.0000
  C   C1993     1.0  0.51793  0.64002  0.44485  1.0000
  C   C1994     1.0  0.59632  0.53980  0.45237  1.0000
  H   H1594     1.0  0.56910  0.56355  0.44849  1.0000
  H   H1595     1.0  0.60105  0.67519  0.28238  1.0000
  P   P64       1.0  0.97745  0.84756  0.47286  1.0000
  C   C1995     1.0  0.59315  0.49134  0.33654  1.0000
  C   C1996     1.0  0.57298  0.54605  0.44897  1.0000
  C   C1997     1.0  0.94856  0.92355  0.42123  1.0000
  H   H1596     1.0  0.69166  0.76920  0.30545  1.0000
  H   H1597     1.0  0.53607  0.66668  0.37287  1.0000
  H   H1598     1.0  0.90751  0.87337  0.47192  1.0000
  C   C1998     1.0  0.74011  0.95542  0.29694  1.0000
  C   C1999     1.0  0.97525  0.96272  0.36836  1.0000
  H   H1599     1.0  0.75009  0.93336  0.32300  1.0000
  C   C2000     1.0  0.94318  0.84522  0.43971  1.0000
  C   C2001     1.0  0.95188  0.94662  0.42190  1.0000
  C   C2002     1.0  0.60313  0.69287  0.28509  1.0000
  C   C2003     1.0  0.52090  0.52666  0.38757  1.0000
  H   H1600     1.0  0.85845  0.95010  0.28484  1.0000
  H   H1601     1.0  0.59632  0.73053  0.32512  1.0000
  C   C2004     1.0  0.68291  0.77374  0.29030  1.0000
  H   H1602     1.0  0.86751  0.88003  0.29301  1.0000
  C   C2005     1.0  0.66969  0.53751  0.47137  1.0000
  C   C2006     1.0  0.61230  0.70705  0.26847  1.0000
  H   H1603     1.0  0.77764  0.87038  0.37864  1.0000
  C   C2007     1.0  0.60061  0.72404  0.30923  1.0000
  C   C2008     1.0  0.60995  0.73824  0.29270  1.0000
  H   H1604     1.0  0.52578  0.54246  0.39488  1.0000
  H   H1605     1.0  0.76136  0.95523  0.24475  1.0000
  H   H1606     1.0  0.79988  0.93936  0.37601  1.0000
  C   C2009     1.0  0.56893  0.57294  0.29182  1.0000
  C   C2010     1.0  0.64667  0.52829  0.47496  1.0000
  C   C2011     1.0  0.77279  0.87953  0.29312  1.0000
  H   H1607     1.0  0.93667  0.95702  0.42050  1.0000
  H   H1608     1.0  0.95019  0.88680  0.46183  1.0000
  C   C2012     1.0  0.86788  0.97366  0.34584  1.0000
  C   C2013     1.0  0.67758  0.50277  0.40309  1.0000
  H   H1609     1.0  0.59117  0.69015  0.31857  1.0000
  H   H1610     1.0  0.88575  0.82555  0.43764  1.0000
  C   C2014     1.0  0.85284  0.97453  0.36405  1.0000
  C   C2015     1.0  0.85085  0.93348  0.28763  1.0000
  C   C2016     1.0  0.63090  0.59321  0.47310  1.0000
  C   C2017     1.0  0.58835  0.61517  0.47450  1.0000
  H   H1611     1.0  0.98623  0.92929  0.37518  1.0000
  H   H1612     1.0  0.67931  0.53427  0.45649  1.0000
  H   H1613     1.0  0.80004  0.87525  0.26850  1.0000
  H   H1614     1.0  0.61252  0.75580  0.29591  1.0000
  C   C2018     1.0  0.96226  0.89103  0.47503  1.0000
  H   H1615     1.0  0.95620  0.85380  0.42923  1.0000
  H   H1616     1.0  0.79803  0.93923  0.33565  1.0000
  C   C2019     1.0  0.55171  0.66414  0.45425  1.0000
  H   H1617     1.0  0.81580  0.94470  0.29304  1.0000
  H   H1618     1.0  0.68019  0.52218  0.37308  1.0000
  C   C2020     1.0  0.50155  0.62870  0.25613  1.0000
  C   C2021     1.0  0.66611  0.49990  0.42333  1.0000
  C   C2022     1.0  0.69144  0.79223  0.27808  1.0000
  H   H1619     1.0  0.93087  0.91600  0.41940  1.0000
  H   H1620     1.0  0.58236  0.81643  0.24964  1.0000
  H   H1621     1.0  0.55684  0.52031  0.37835  1.0000
  C   C2023     1.0  0.60200  0.51734  0.45225  1.0000
  H   H1622     1.0  0.68832  0.81111  0.24793  1.0000
  C   C2024     1.0  0.59325  0.57831  0.29078  1.0000
  C   C2025     1.0  0.60118  0.60037  0.28742  1.0000
  C   C2026     1.0  0.58482  0.61712  0.28534  1.0000
  C   C2027     1.0  0.56024  0.61193  0.28642  1.0000
  H   H1623     1.0  0.91667  0.84433  0.41425  1.0000
  P   P65       1.0  0.53927  0.63400  0.28590  1.0000
  C   C2028     1.0  0.68105  0.79741  0.25792  1.0000
  C   C2029     1.0  0.53789  0.64540  0.31310  1.0000
  C   C2030     1.0  0.58392  0.79975  0.24359  1.0000
  H   H1624     1.0  0.49941  0.64691  0.31457  1.0000
  H   H1625     1.0  0.89459  0.81631  0.47653  1.0000
  C   C2031     1.0  0.55836  0.65829  0.34584  1.0000
  C   C2032     1.0  0.55902  0.65030  0.32452  1.0000
  H   H1626     1.0  0.61511  0.79364  0.26254  1.0000
  H   H1627     1.0  0.83635  0.71928  0.42192  1.0000
  C   C2033     1.0  0.53231  0.49420  0.36792  1.0000
  C   C2034     1.0  0.49510  0.58946  0.44296  1.0000
  H   H1628     1.0  0.53691  0.53472  0.44287  1.0000
  C   C2035     1.0  0.54968  0.65568  0.26700  1.0000
  C   C2036     1.0  0.90336  0.82904  0.44418  1.0000
  H   H1629     1.0  0.62854  0.54274  0.41908  1.0000
  C   C2037     1.0  0.64211  0.53138  0.41493  1.0000
  C   C2038     1.0  0.66208  0.78416  0.25002  1.0000
  C   C2039     1.0  0.54501  0.67797  0.27096  1.0000
  C   C2040     1.0  0.49603  0.61014  0.29140  1.0000
  C   C2041     1.0  0.75295  0.93810  0.30598  1.0000
  H   H1630     1.0  0.62006  0.60459  0.28714  1.0000
  H   H1631     1.0  0.59150  0.63414  0.28351  1.0000
  H   H1632     1.0  0.88492  0.92980  0.47635  1.0000
  H   H1633     1.0  0.74146  0.87988  0.31366  1.0000
  H   H1634     1.0  0.49854  0.65949  0.35256  1.0000
  C   C2042     1.0  0.60498  0.76537  0.24264  1.0000
  H   H1635     1.0  0.57483  0.66135  0.35471  1.0000
  H   H1636     1.0  0.57611  0.64754  0.31726  1.0000
  H   H1637     1.0  0.87569  0.70218  0.42255  1.0000
  H   H1638     1.0  0.58700  0.49307  0.31987  1.0000
  H   H1639     1.0  0.64924  0.54791  0.38392  1.0000
  H   H1640     1.0  0.70681  0.80188  0.28377  1.0000
  C   C2043     1.0  0.53810  0.65287  0.43853  1.0000
  C   C2044     1.0  0.90837  0.82381  0.46605  1.0000
  C   C2045     1.0  0.96813  0.91012  0.42250  1.0000
  H   H1641     1.0  0.53563  0.68248  0.28561  1.0000
  C   C2046     1.0  0.58377  0.50110  0.44915  1.0000
  C   C2047     1.0  0.55495  0.52984  0.44577  1.0000
  C   C2048     1.0  0.97687  0.87502  0.48423  1.0000
  C   C2049     1.0  0.75049  0.87143  0.30076  1.0000
  H   H1642     1.0  0.51380  0.59190  0.44683  1.0000
  C   C2050     1.0  0.66399  0.76040  0.28241  1.0000
  P   P66       1.0  0.78600  0.90473  0.30430  1.0000
  C   C2051     1.0  0.76923  0.92709  0.29305  1.0000
  C   C2052     1.0  0.78593  0.90470  0.33391  1.0000
  C   C2053     1.0  0.79288  0.92423  0.34484  1.0000
  C   C2054     1.0  0.79396  0.92437  0.36773  1.0000
  C   C2055     1.0  0.78828  0.90500  0.37989  1.0000
  C   C2056     1.0  0.78155  0.88545  0.36915  1.0000
  C   C2057     1.0  0.78070  0.88517  0.34623  1.0000
  H   H1643     1.0  0.53385  0.58495  0.29115  1.0000
  H   H1644     1.0  0.72774  0.96404  0.30702  1.0000
  C   C2058     1.0  0.51543  0.65739  0.34452  1.0000
  H   H1645     1.0  0.64753  0.58493  0.47258  1.0000
  H   H1646     1.0  0.88442  0.91793  0.28462  1.0000
  C   C2059     1.0  0.81693  0.90888  0.29698  1.0000
  H   H1647     1.0  0.88087  0.97042  0.47217  1.0000
  C   C2060     1.0  0.74321  0.96165  0.27491  1.0000
  H   H1648     1.0  0.65811  0.70933  0.24815  1.0000
  C   C2061     1.0  0.85607  0.89406  0.29254  1.0000
  C   C2062     1.0  0.83195  0.89090  0.29758  1.0000
  H   H1649     1.0  0.57195  0.62382  0.47493  1.0000
  C   C2063     1.0  0.94850  0.83988  0.46164  1.0000
  C   C2064     1.0  0.96308  0.91271  0.48289  1.0000
  C   C2065     1.0  0.65318  0.76572  0.26234  1.0000
  H   H1650     1.0  0.72286  0.84572  0.29824  1.0000
  H   H1651     1.0  0.60593  0.56542  0.29327  1.0000
  C   C2066     1.0  0.77275  0.84966  0.26684  1.0000
  H   H1652     1.0  0.52715  0.49070  0.32187  1.0000
  C   C2067     1.0  0.75100  0.84127  0.27509  1.0000
  C   C2068     1.0  0.50839  0.48667  0.36678  1.0000
  C   C2069     1.0  0.61658  0.72976  0.27240  1.0000
  C   C2070     1.0  0.93079  0.82922  0.47477  1.0000
  C   C2071     1.0  0.51605  0.64972  0.32304  1.0000
  S   S280      1.0  0.76009  0.72096  0.24646  1.0000
  H   H1653     1.0  0.50758  0.63174  0.43226  1.0000
  C   C2072     1.0  0.97353  0.93954  0.36701  1.0000
  C   C2073     1.0  0.49717  0.51887  0.38726  1.0000
  P   P67       1.0  0.62906  0.74854  0.25155  1.0000
  C   C2074     1.0  0.53658  0.66152  0.35597  1.0000
  H   H1654     1.0  0.83830  0.98040  0.46490  1.0000
  H   H1655     1.0  0.92547  0.97457  0.33921  1.0000
  Fe  Fe139     1.0  0.72031  0.71514  0.24255  1.0000
  H   H1656     1.0  0.69121  0.49159  0.39841  1.0000
  Fe  Fe140     1.0  0.75293  0.75752  0.25003  1.0000
  C   C2075     1.0  0.60258  0.78682  0.25076  1.0000
  H   H1657     1.0  0.95163  0.92492  0.47577  1.0000
  P   P68       1.0  0.48684  0.61976  0.47590  1.0000
  H   H1658     1.0  0.78149  0.84097  0.25391  1.0000
  C   C2076     1.0  0.75904  0.95046  0.26185  1.0000
  C   C2077     1.0  0.56174  0.65033  0.24778  1.0000
  H   H1659     1.0  0.54629  0.48483  0.36075  1.0000
  H   H1660     1.0  0.98433  0.81922  0.43490  1.0000
  H   H1661     1.0  0.54910  0.71187  0.25921  1.0000
  C   C2078     1.0  0.55251  0.69467  0.25597  1.0000
  C   C2079     1.0  0.56466  0.68922  0.23695  1.0000
  C   C2080     1.0  0.61030  0.48692  0.37912  1.0000
  H   H1662     1.0  0.67151  0.48669  0.43426  1.0000
  H   H1663     1.0  0.61729  0.48541  0.39555  1.0000
  C   C2081     1.0  0.52489  0.64986  0.48269  1.0000
  Fe  Fe141     1.0  0.62659  0.60945  0.59708  1.0000
  S   S281      1.0  0.59400  0.62538  0.58348  1.0000
  S   S282      1.0  0.65639  0.62434  0.61929  1.0000
  Fe  Fe142     1.0  0.61225  0.56384  0.57689  1.0000
  S   S283      1.0  0.57869  0.57677  0.56269  1.0000
  S   S284      1.0  0.62309  0.52930  0.56655  1.0000
  Fe  Fe143     1.0  0.60056  0.60691  0.55232  1.0000
  S   S285      1.0  0.58921  0.62071  0.51910  1.0000
  Fe  Fe144     1.0  0.57410  0.59407  0.59427  1.0000
  S   S286      1.0  0.53772  0.59228  0.61044  1.0000
  S   S287      1.0  0.63484  0.59338  0.56467  1.0000
  S   S288      1.0  0.60606  0.57875  0.60985  1.0000
  Fe  Fe145     1.0  0.89634  0.87801  0.59461  1.0000
  S   S289      1.0  0.86137  0.88458  0.61098  1.0000
  S   S290      1.0  0.93121  0.87938  0.61342  1.0000
  Fe  Fe146     1.0  0.87392  0.87171  0.54966  1.0000
  S   S291      1.0  0.83720  0.87720  0.56259  1.0000
  S   S292      1.0  0.88848  0.86641  0.51513  1.0000
  Fe  Fe147     1.0  0.85435  0.90575  0.58109  1.0000
  S   S293      1.0  0.83536  0.93862  0.58142  1.0000
  Fe  Fe148     1.0  0.84651  0.85546  0.59196  1.0000
  S   S294      1.0  0.81884  0.82837  0.60439  1.0000
  S   S295      1.0  0.89036  0.90151  0.56648  1.0000
  S   S296      1.0  0.88213  0.84773  0.57730  1.0000
  Fe  Fe149     1.0  0.71397  0.72137  0.70481  1.0000
  S   S297      1.0  0.75400  0.72172  0.70226  1.0000
  S   S298      1.0  0.68650  0.70815  0.67923  1.0000
  Fe  Fe150     1.0  0.75387  0.75799  0.71041  1.0000
  S   S299      1.0  0.78132  0.78441  0.69616  1.0000
  S   S300      1.0  0.71368  0.75840  0.71140  1.0000
  C   C2082     1.0  0.56122  0.52524  0.54410  1.0000
  C   C2083     1.0  0.86328  0.94045  0.52686  1.0000
  H   H1664     1.0  0.75214  0.70752  0.56786  1.0000
  C   C2084     1.0  0.58636  0.67662  0.65060  1.0000
  C   C2085     1.0  0.95785  0.87525  0.59879  1.0000
  C   C2086     1.0  0.95739  0.86993  0.57659  1.0000
  C   C2087     1.0  0.54211  0.71396  0.64546  1.0000
  H   H1665     1.0  0.94054  0.86818  0.56816  1.0000
  H   H1666     1.0  0.53409  0.73976  0.66796  1.0000
  C   C2088     1.0  0.80910  0.81611  0.63013  1.0000
  C   C2089     1.0  0.78791  0.80281  0.63083  1.0000
  C   C2090     1.0  0.77932  0.79284  0.65064  1.0000
  C   C2091     1.0  0.79169  0.79601  0.67030  1.0000
  C   C2092     1.0  0.81294  0.80928  0.66960  1.0000
  C   C2093     1.0  0.82163  0.81914  0.64974  1.0000
  H   H1667     1.0  0.77780  0.80044  0.61594  1.0000
  H   H1668     1.0  0.76283  0.78312  0.65073  1.0000
  H   H1669     1.0  0.82289  0.81189  0.68451  1.0000
  H   H1670     1.0  0.83814  0.82890  0.64954  1.0000
  C   C2094     1.0  0.84941  0.96527  0.58473  1.0000
  H   H1671     1.0  0.88395  0.95326  0.59191  1.0000
  C   C2095     1.0  0.51221  0.60115  0.59649  1.0000
  C   C2096     1.0  0.54451  0.49829  0.62556  1.0000
  C   C2097     1.0  0.51377  0.61560  0.57832  1.0000
  C   C2098     1.0  0.80007  0.76542  0.59132  1.0000
  H   H1672     1.0  0.53103  0.62089  0.57189  1.0000
  C   C2099     1.0  0.61384  0.50301  0.57794  1.0000
  C   C2100     1.0  0.60212  0.50094  0.59809  1.0000
  C   C2101     1.0  0.57481  0.53618  0.52769  1.0000
  H   H1673     1.0  0.59874  0.51565  0.60727  1.0000
  H   H1674     1.0  0.79525  0.72236  0.62782  1.0000
  C   C2102     1.0  0.60043  0.61077  0.49416  1.0000
  C   C2103     1.0  0.97411  0.82990  0.51537  1.0000
  C   C2104     1.0  0.72744  0.68167  0.55790  1.0000
  H   H1675     1.0  0.63108  0.59600  0.50841  1.0000
  H   H1676     1.0  0.59375  0.53894  0.52999  1.0000
  C   C2105     1.0  0.66407  0.64786  0.63595  1.0000
  C   C2106     1.0  0.68318  0.64648  0.65078  1.0000
  C   C2107     1.0  0.69022  0.66454  0.66416  1.0000
  C   C2108     1.0  0.67845  0.68455  0.66278  1.0000
  C   C2109     1.0  0.65947  0.68602  0.64779  1.0000
  C   C2110     1.0  0.65233  0.66789  0.63450  1.0000
  H   H1677     1.0  0.69254  0.63118  0.65208  1.0000
  H   H1678     1.0  0.70462  0.66287  0.67567  1.0000
  H   H1679     1.0  0.65012  0.70131  0.64653  1.0000
  H   H1680     1.0  0.63768  0.66938  0.62319  1.0000
  H   H1681     1.0  0.82368  0.75209  0.61539  1.0000
  C   C2111     1.0  0.58756  0.67246  0.54935  1.0000
  H   H1682     1.0  0.93439  0.97952  0.55540  1.0000
  C   C2112     1.0  0.97875  0.86690  0.56524  1.0000
  H   H1683     1.0  0.62851  0.48505  0.55127  1.0000
  H   H1684     1.0  0.59618  0.66962  0.53381  1.0000
  H   H1685     1.0  0.87382  0.91080  0.51150  1.0000
  H   H1686     1.0  0.57010  0.51943  0.55875  1.0000
  C   C2113     1.0  0.87183  0.92846  0.50945  1.0000
  C   C2114     1.0  0.92689  0.95274  0.53377  1.0000
  C   C2115     1.0  0.81690  0.90071  0.71381  1.0000
  C   C2116     1.0  0.80640  0.75026  0.60767  1.0000
  C   C2117     1.0  0.73827  0.69575  0.57328  1.0000
  H   H1687     1.0  0.61901  0.68700  0.56423  1.0000
  H   H1688     1.0  0.54361  0.58737  0.52818  1.0000
  H   H1689     1.0  0.54809  0.77039  0.64282  1.0000
  H   H1690     1.0  0.91573  0.96250  0.52322  1.0000
  C   C2118     1.0  0.79021  0.73331  0.61458  1.0000
  H   H1691     1.0  0.80357  0.68967  0.70145  1.0000
  H   H1692     1.0  0.77407  0.86547  0.59870  1.0000
  H   H1693     1.0  0.93386  0.82543  0.49186  1.0000
  H   H1694     1.0  0.57454  0.55355  0.49659  1.0000
  C   C2119     1.0  0.92134  0.97299  0.64365  1.0000
  H   H1695     1.0  0.68974  0.65165  0.59176  1.0000
  H   H1696     1.0  0.97336  0.81836  0.54902  1.0000
  C   C2120     1.0  0.84987  0.87441  0.48796  1.0000
  C   C2121     1.0  0.60042  0.68217  0.56652  1.0000
  C   C2122     1.0  0.79354  0.89519  0.60841  1.0000
  C   C2123     1.0  0.78208  0.87449  0.61220  1.0000
  C   C2124     1.0  0.78161  0.86507  0.63328  1.0000
  C   C2125     1.0  0.79304  0.87610  0.65051  1.0000
  C   C2126     1.0  0.80458  0.89698  0.64687  1.0000
  C   C2127     1.0  0.80467  0.90644  0.62566  1.0000
  P   P69       1.0  0.82074  0.91042  0.66891  1.0000
  C   C2128     1.0  0.85009  0.89948  0.67084  1.0000
  C   C2129     1.0  0.82346  0.94008  0.66357  1.0000
  C   C2130     1.0  0.84008  0.94866  0.64809  1.0000
  C   C2131     1.0  0.52219  0.66949  0.61752  1.0000
  H   H1697     1.0  0.81847  0.77906  0.72632  1.0000
  C   C2132     1.0  0.86924  0.91273  0.67869  1.0000
  C   C2133     1.0  0.55291  0.66810  0.57284  1.0000
  C   C2134     1.0  0.56385  0.66542  0.55253  1.0000
  C   C2135     1.0  0.50529  0.67958  0.60411  1.0000
  C   C2136     1.0  0.85415  0.87780  0.66417  1.0000
  C   C2137     1.0  0.80470  0.90492  0.69420  1.0000
  H   H1698     1.0  0.85528  0.97812  0.63208  1.0000
  H   H1699     1.0  0.97864  0.93516  0.50650  1.0000
  H   H1700     1.0  0.96012  0.65610  0.69917  1.0000
  C   C2138     1.0  0.80929  0.95482  0.67481  1.0000
  C   C2139     1.0  0.77976  0.90490  0.69440  1.0000
  H   H1701     1.0  0.79429  0.90240  0.59200  1.0000
  H   H1702     1.0  0.77306  0.84884  0.63610  1.0000
  H   H1703     1.0  0.79325  0.86805  0.66652  1.0000
  H   H1704     1.0  0.81358  0.92229  0.62212  1.0000
  H   H1705     1.0  0.85090  0.93766  0.63884  1.0000
  H   H1706     1.0  0.56737  0.49839  0.50202  1.0000
  H   H1707     1.0  0.52008  0.64878  0.49989  1.0000
  H   H1708     1.0  0.86645  0.92931  0.68446  1.0000
  C   C2140     1.0  0.51895  0.60013  0.50470  1.0000
  H   H1709     1.0  0.88036  0.85361  0.65787  1.0000
  C   C2141     1.0  0.54102  0.73603  0.65193  1.0000
  H   H1710     1.0  0.83976  0.86721  0.65811  1.0000
  H   H1711     1.0  0.53481  0.66182  0.57503  1.0000
  C   C2142     1.0  0.80427  0.89635  0.73328  1.0000
  C   C2143     1.0  0.93759  0.96238  0.55217  1.0000
  C   C2144     1.0  0.49292  0.62358  0.56876  1.0000
  H   H1712     1.0  0.77000  0.90829  0.67949  1.0000
  H   H1713     1.0  0.53312  0.60682  0.49421  1.0000
  C   C2145     1.0  0.71395  0.67807  0.60193  1.0000
  C   C2146     1.0  0.89629  0.88359  0.67100  1.0000
  H   H1714     1.0  0.81788  0.81988  0.72635  1.0000
  C   C2147     1.0  0.89227  0.90484  0.67864  1.0000
  H   H1715     1.0  0.74794  0.90040  0.71392  1.0000
  C   C2148     1.0  0.95443  0.92717  0.56179  1.0000
  H   H1716     1.0  0.91424  0.87778  0.67007  1.0000
  C   C2149     1.0  0.86047  0.96326  0.52456  1.0000
  C   C2150     1.0  0.52578  0.53005  0.52243  1.0000
  H   H1717     1.0  0.67678  0.56651  0.51847  1.0000
  H   H1718     1.0  0.83611  0.90079  0.71414  1.0000
  C   C2151     1.0  0.53283  0.51270  0.58979  1.0000
  H   H1719     1.0  0.54042  0.54794  0.58453  1.0000
  P   P70       1.0  0.96420  0.96135  0.59111  1.0000
  C   C2152     1.0  0.60241  0.66496  0.66345  1.0000
  H   H1720     1.0  0.64515  0.48913  0.49785  1.0000
  H   H1721     1.0  0.49424  0.63514  0.55501  1.0000
  C   C2153     1.0  0.90001  0.74951  0.71256  1.0000
  C   C2154     1.0  0.58959  0.68477  0.58689  1.0000
  C   C2155     1.0  0.77748  0.76372  0.58191  1.0000
  C   C2156     1.0  0.76756  0.73127  0.60498  1.0000
  C   C2157     1.0  0.76121  0.74686  0.58884  1.0000
  P   P71       1.0  0.74515  0.71171  0.61585  1.0000
  C   C2158     1.0  0.72395  0.72887  0.62880  1.0000
  C   C2159     1.0  0.73133  0.69424  0.59538  1.0000
  H   H1722     1.0  0.55930  0.55325  0.62072  1.0000
  C   C2160     1.0  0.73199  0.74407  0.64455  1.0000
  C   C2161     1.0  0.71636  0.75878  0.65367  1.0000
  C   C2162     1.0  0.69247  0.75809  0.64751  1.0000
  C   C2163     1.0  0.68429  0.74294  0.63189  1.0000
  C   C2164     1.0  0.69997  0.72847  0.62241  1.0000
  C   C2165     1.0  0.75757  0.69254  0.63534  1.0000
  C   C2166     1.0  0.77623  0.67932  0.62895  1.0000
  C   C2167     1.0  0.78543  0.66378  0.64364  1.0000
  C   C2168     1.0  0.77581  0.66111  0.66469  1.0000
  C   C2169     1.0  0.75695  0.67391  0.67101  1.0000
  C   C2170     1.0  0.74777  0.68950  0.65637  1.0000
  H   H1723     1.0  0.77239  0.77593  0.56972  1.0000
  H   H1724     1.0  0.74342  0.74634  0.58205  1.0000
  H   H1725     1.0  0.70863  0.67636  0.61897  1.0000
  H   H1726     1.0  0.75038  0.74457  0.64978  1.0000
  H   H1727     1.0  0.72273  0.77055  0.66572  1.0000
  H   H1728     1.0  0.68024  0.76900  0.65516  1.0000
  H   H1729     1.0  0.66568  0.74213  0.62745  1.0000
  H   H1730     1.0  0.69319  0.71701  0.61031  1.0000
  H   H1731     1.0  0.78351  0.68093  0.61253  1.0000
  H   H1732     1.0  0.79979  0.65357  0.63862  1.0000
  H   H1733     1.0  0.78273  0.64894  0.67606  1.0000
  H   H1734     1.0  0.74922  0.67165  0.68723  1.0000
  H   H1735     1.0  0.73281  0.69887  0.66146  1.0000
  C   C2171     1.0  0.70987  0.66588  0.56451  1.0000
  C   C2172     1.0  0.92669  0.93933  0.61335  1.0000
  C   C2173     1.0  0.60422  0.64208  0.66104  1.0000
  H   H1736     1.0  0.85871  0.93198  0.54214  1.0000
  C   C2174     1.0  0.70320  0.66404  0.58654  1.0000
  H   H1737     1.0  0.97958  0.94281  0.63370  1.0000
  C   C2175     1.0  0.56568  0.67792  0.59018  1.0000
  C   C2176     1.0  0.56396  0.54435  0.50883  1.0000
  C   C2177     1.0  0.87339  0.96777  0.59034  1.0000
  H   H1738     1.0  0.51048  0.69351  0.59345  1.0000
  H   H1739     1.0  0.73275  0.68290  0.54084  1.0000
  C   C2178     1.0  0.87719  0.86997  0.66409  1.0000
  H   H1740     1.0  0.81467  0.74926  0.66224  1.0000
  H   H1741     1.0  0.59141  0.61311  0.64387  1.0000
  H   H1742     1.0  0.83887  0.87277  0.50249  1.0000
  H   H1743     1.0  0.81238  0.77898  0.58647  1.0000
  H   H1744     1.0  0.49391  0.49536  0.63410  1.0000
  H   H1745     1.0  0.53106  0.54748  0.49146  1.0000
  H   H1746     1.0  0.70150  0.65492  0.55265  1.0000
  C   C2179     1.0  0.54162  0.53387  0.59572  1.0000
  H   H1747     1.0  0.94569  0.90014  0.54019  1.0000
  C   C2180     1.0  0.53948  0.54097  0.50604  1.0000
  H   H1748     1.0  0.60000  0.69168  0.60024  1.0000
  C   C2181     1.0  0.94162  0.95854  0.61211  1.0000
  C   C2182     1.0  0.58975  0.63078  0.64600  1.0000
  H   H1749     1.0  0.56288  0.63346  0.62130  1.0000
  C   C2183     1.0  0.57165  0.66534  0.63548  1.0000
  H   H1750     1.0  0.92855  0.92606  0.60185  1.0000
  C   C2184     1.0  0.90914  0.93704  0.62953  1.0000
  H   H1751     1.0  0.51211  0.57147  0.55303  1.0000
  C   C2185     1.0  0.81176  0.97772  0.67061  1.0000
  C   C2186     1.0  0.57361  0.64237  0.63322  1.0000
  C   C2187     1.0  0.62156  0.59940  0.49341  1.0000
  C   C2188     1.0  0.53650  0.52237  0.54180  1.0000
  C   C2189     1.0  0.92183  0.74101  0.70674  1.0000
  P   P72       1.0  0.51904  0.50838  0.56330  1.0000
  H   H1752     1.0  0.49435  0.53926  0.59200  1.0000
  H   H1753     1.0  0.79627  0.94880  0.68675  1.0000
  P   P73       1.0  0.55263  0.68031  0.61706  1.0000
  H   H1754     1.0  0.90713  0.91535  0.68402  1.0000
  H   H1755     1.0  0.89497  0.76525  0.70548  1.0000
  C   C2190     1.0  0.82643  0.71514  0.71541  1.0000
  H   H1756     1.0  0.48855  0.58307  0.61853  1.0000
  C   C2191     1.0  0.55771  0.74847  0.61704  1.0000
  H   H1757     1.0  0.89770  0.92212  0.63025  1.0000
  C   C2192     1.0  0.80805  0.71815  0.67967  1.0000
  C   C2193     1.0  0.51486  0.65164  0.63141  1.0000
  C   C2194     1.0  0.52503  0.58878  0.52393  1.0000
  C   C2195     1.0  0.81835  0.73951  0.67686  1.0000
  C   C2196     1.0  0.92829  0.72031  0.71497  1.0000
  C   C2197     1.0  0.54889  0.75328  0.63776  1.0000
  C   C2198     1.0  0.94424  0.63284  0.72268  1.0000
  C   C2199     1.0  0.90627  0.95399  0.64450  1.0000
  C   C2200     1.0  0.84256  0.97156  0.64407  1.0000
  H   H1758     1.0  0.53594  0.70072  0.65660  1.0000
  C   C2201     1.0  0.55203  0.53705  0.61631  1.0000
  C   C2202     1.0  0.49496  0.60334  0.49966  1.0000
  H   H1759     1.0  0.61729  0.63320  0.67040  1.0000
  C   C2203     1.0  0.76720  0.90049  0.71389  1.0000
  H   H1760     1.0  0.85402  0.97225  0.53840  1.0000
  C   C2204     1.0  0.95156  0.94968  0.56634  1.0000
  H   H1761     1.0  0.56549  0.72310  0.59433  1.0000
  H   H1762     1.0  0.58606  0.69445  0.65216  1.0000
  C   C2205     1.0  0.94377  0.91763  0.54336  1.0000
  H   H1763     1.0  0.84073  0.76519  0.69068  1.0000
  H   H1764     1.0  0.55425  0.65708  0.53944  1.0000
  C   C2206     1.0  0.66848  0.55580  0.50636  1.0000
  H   H1765     1.0  0.79638  0.71124  0.66725  1.0000
  C   C2207     1.0  0.63467  0.53306  0.49439  1.0000
  C   C2208     1.0  0.97991  0.87745  0.60949  1.0000
  H   H1766     1.0  0.89241  0.95247  0.65676  1.0000
  H   H1767     1.0  0.61413  0.67375  0.67474  1.0000
  H   H1768     1.0  0.61699  0.52602  0.49754  1.0000
  C   C2209     1.0  0.64558  0.54675  0.51001  1.0000
  C   C2210     1.0  0.55883  0.72640  0.61052  1.0000
  C   C2211     1.0  0.55130  0.70897  0.62482  1.0000
  H   H1769     1.0  0.52721  0.64369  0.64225  1.0000
  C   C2212     1.0  0.92997  0.93037  0.52939  1.0000
  C   C2213     1.0  0.55330  0.51936  0.63128  1.0000
  C   C2214     1.0  0.53477  0.49488  0.60479  1.0000
  C   C2215     1.0  0.83286  0.74865  0.69325  1.0000
  H   H1770     1.0  0.56156  0.52192  0.64711  1.0000
  H   H1771     1.0  0.50687  0.52818  0.52002  1.0000
  H   H1772     1.0  0.63634  0.55044  0.52500  1.0000
  H   H1773     1.0  0.94514  0.71371  0.71031  1.0000
  C   C2216     1.0  0.50730  0.57969  0.53780  1.0000
  H   H1774     1.0  0.55563  0.67143  0.48851  1.0000
  H   H1775     1.0  0.98048  0.88161  0.62665  1.0000
  H   H1776     1.0  0.96435  0.91672  0.57279  1.0000
  H   H1777     1.0  0.56368  0.76186  0.60602  1.0000
  H   H1778     1.0  0.93740  0.62158  0.71032  1.0000
  C   C2217     1.0  0.86564  0.97416  0.50451  1.0000
  H   H1779     1.0  0.92132  0.92265  0.51546  1.0000
  C   C2218     1.0  0.83668  0.73665  0.71281  1.0000
  C   C2219     1.0  0.81211  0.70598  0.69892  1.0000
  C   C2220     1.0  0.95700  0.65231  0.71639  1.0000
  H   H1780     1.0  0.96041  0.84169  0.51803  1.0000
  H   H1781     1.0  0.50386  0.53453  0.64223  1.0000
  C   C2221     1.0  0.48974  0.59413  0.60448  1.0000
  H   H1782     1.0  0.97820  0.86311  0.54805  1.0000
  H   H1783     1.0  0.93362  0.75038  0.69560  1.0000
  C   C2222     1.0  0.77944  0.89620  0.73331  1.0000
  C   C2223     1.0  0.88470  0.73754  0.72707  1.0000
  C   C2224     1.0  0.93917  0.97515  0.62771  1.0000
  C   C2225     1.0  0.87816  0.93929  0.48976  1.0000
  C   C2226     1.0  0.49120  0.64364  0.63133  1.0000
  C   C2227     1.0  0.68052  0.55122  0.48703  1.0000
  C   C2228     1.0  0.97836  0.91850  0.50010  1.0000
  C   C2229     1.0  0.87445  0.87230  0.48971  1.0000
  C   C2230     1.0  0.96590  0.66677  0.73233  1.0000
  H   H1784     1.0  0.81626  0.98031  0.51401  1.0000
  H   H1785     1.0  0.82914  0.70547  0.73028  1.0000
  C   C2231     1.0  0.91279  0.70796  0.72883  1.0000
  C   C2232     1.0  0.98505  0.82851  0.49477  1.0000
  H   H1786     1.0  0.54604  0.48438  0.63693  1.0000
  H   H1787     1.0  0.91756  0.69169  0.73479  1.0000
  H   H1788     1.0  0.97601  0.68176  0.72749  1.0000
  C   C2233     1.0  0.83423  0.81175  0.73023  1.0000
  C   C2234     1.0  0.83469  0.78859  0.72984  1.0000
  C   C2235     1.0  0.98138  0.81668  0.53300  1.0000
  C   C2236     1.0  0.48920  0.51871  0.56332  1.0000
  C   C2237     1.0  0.85593  0.77784  0.73379  1.0000
  C   C2238     1.0  0.89096  0.71643  0.73470  1.0000
  P   P74       1.0  0.85602  0.74791  0.73374  1.0000
  H   H1789     1.0  0.81744  0.98264  0.57789  1.0000
  H   H1790     1.0  0.85446  0.84229  0.73545  1.0000
  C   C2239     1.0  0.85482  0.82433  0.73530  1.0000
  C   C2240     1.0  0.87552  0.96220  0.48740  1.0000
  Fe  Fe151     1.0  0.57558  0.86363  0.87146  1.0000
  S   S301      1.0  0.60197  0.83656  0.87472  1.0000
  S   S302      1.0  0.53665  0.85357  0.87735  1.0000
  Fe  Fe152     1.0  0.61434  0.90045  0.87484  1.0000
  S   S303      1.0  0.64324  0.87578  0.87863  1.0000
  S   S304      1.0  0.62560  0.93661  0.88085  1.0000
  Fe  Fe153     1.0  0.62517  0.85691  0.85118  1.0000
  S   S305      1.0  0.64786  0.84511  0.82208  1.0000
  Fe  Fe154     1.0  0.61794  0.85731  0.90164  1.0000
  S   S306      1.0  0.62702  0.84087  0.93430  1.0000
  S   S307      1.0  0.59744  0.88306  0.84597  1.0000
  S   S308      1.0  0.59053  0.88299  0.89967  1.0000
  Fe  Fe155     1.0  0.86920  0.57488  0.85372  1.0000
  S   S309      1.0  0.83669  0.58927  0.86839  1.0000
  S   S310      1.0  0.86963  0.54324  0.83406  1.0000
  Fe  Fe156     1.0  0.90210  0.61242  0.86970  1.0000
  S   S311      1.0  0.87194  0.62973  0.88558  1.0000
  S   S312      1.0  0.93951  0.62718  0.87527  1.0000
  Fe  Fe157     1.0  0.86005  0.59573  0.89787  1.0000
  S   S313      1.0  0.84946  0.58323  0.93217  1.0000
  Fe  Fe158     1.0  0.85086  0.62243  0.85461  1.0000
  S   S314      1.0  0.82619  0.64964  0.84116  1.0000
  S   S315      1.0  0.89140  0.57899  0.88386  1.0000
  S   S316      1.0  0.88210  0.60742  0.83807  1.0000
  H   H1791     1.0  0.88118  0.73759  0.77476  1.0000
  C   C2241     1.0  0.62255  0.98186  0.87807  1.0000
  S   S317      1.0  0.69212  0.76043  0.77572  1.0000
  C   C2242     1.0  0.86441  0.50269  0.94125  1.0000
  S   S318      1.0  0.78203  0.68942  0.75145  1.0000
  C   C2243     1.0  0.58081  0.98106  0.85356  1.0000
  C   C2244     1.0  0.96625  0.61507  0.86723  1.0000
  H   H1792     1.0  0.97227  0.51571  0.80433  1.0000
  C   C2245     1.0  0.57096  0.77976  0.81986  1.0000
  C   C2246     1.0  0.55096  0.85558  0.94702  1.0000
  C   C2247     1.0  0.96633  0.59603  0.85451  1.0000
  C   C2248     1.0  0.95960  0.50988  0.86623  1.0000
  H   H1793     1.0  0.94964  0.58788  0.84993  1.0000
  C   C2249     1.0  0.81370  0.65968  0.81586  1.0000
  C   C2250     1.0  0.82220  0.65402  0.79518  1.0000
  C   C2251     1.0  0.81229  0.66320  0.77582  1.0000
  C   C2252     1.0  0.79353  0.67801  0.77665  1.0000
  C   C2253     1.0  0.78490  0.68345  0.79733  1.0000
  C   C2254     1.0  0.79504  0.67458  0.81668  1.0000
  H   H1794     1.0  0.83651  0.64266  0.79411  1.0000
  H   H1795     1.0  0.81917  0.65869  0.76005  1.0000
  H   H1796     1.0  0.77052  0.69466  0.79843  1.0000
  H   H1797     1.0  0.78818  0.67916  0.83245  1.0000
  C   C2255     1.0  0.85669  0.59669  0.95705  1.0000
  C   C2256     1.0  0.72698  0.49114  0.96664  1.0000
  C   C2257     1.0  0.50768  0.79675  0.84598  1.0000
  H   H1798     1.0  0.54169  0.70601  0.87548  1.0000
  C   C2258     1.0  0.86575  0.51691  0.84721  1.0000
  H   H1799     1.0  0.62984  0.82762  0.97994  1.0000
  C   C2259     1.0  0.86400  0.51472  0.87000  1.0000
  H   H1800     1.0  0.92449  0.64256  0.83325  1.0000
  H   H1801     1.0  0.86519  0.52934  0.88002  1.0000
  C   C2260     1.0  0.62236  0.85550  0.95875  1.0000
  H   H1802     1.0  0.88467  0.57371  0.79189  1.0000
  C   C2261     1.0  0.61574  0.87759  0.95805  1.0000
  C   C2262     1.0  0.80136  0.54169  0.92268  1.0000
  H   H1803     1.0  0.61396  0.88615  0.94246  1.0000
  C   C2263     1.0  0.65980  0.82118  0.80949  1.0000
  C   C2264     1.0  0.65486  0.79940  0.81713  1.0000
  C   C2265     1.0  0.66481  0.78117  0.80658  1.0000
  C   C2266     1.0  0.67968  0.78426  0.78805  1.0000
  C   C2267     1.0  0.68442  0.80603  0.78028  1.0000
  C   C2268     1.0  0.67462  0.82425  0.79093  1.0000
  H   H1804     1.0  0.64345  0.79659  0.83125  1.0000
  H   H1805     1.0  0.66098  0.76451  0.81286  1.0000
  H   H1806     1.0  0.69567  0.80885  0.76606  1.0000
  H   H1807     1.0  0.67851  0.84092  0.78470  1.0000
  H   H1808     1.0  0.52909  0.81206  0.92797  1.0000
  C   C2269     1.0  0.61192  0.96128  0.87228  1.0000
  C   C2270     1.0  0.59089  0.96094  0.86010  1.0000
  H   H1809     1.0  0.82658  0.50676  0.97055  1.0000
  H   H1810     1.0  0.58258  0.94521  0.85550  1.0000
  H   H1811     1.0  0.92549  0.54881  0.90412  1.0000
  C   C2271     1.0  0.87629  0.79048  0.73985  1.0000
  C   C2272     1.0  0.50983  0.86065  0.86447  1.0000
  C   C2273     1.0  0.50919  0.87175  0.84416  1.0000
  H   H1812     1.0  0.61041  0.81615  0.79451  1.0000
  H   H1813     1.0  0.59772  0.79041  0.90941  1.0000
  H   H1814     1.0  0.87277  0.64704  0.97822  1.0000
  H   H1815     1.0  0.52562  0.87675  0.83594  1.0000
  C   C2274     1.0  0.54667  0.79132  0.87925  1.0000
  C   C2275     1.0  0.57045  0.78760  0.88467  1.0000
  C   C2276     1.0  0.57915  0.79256  0.90555  1.0000
  C   C2277     1.0  0.56421  0.80122  0.92120  1.0000
  C   C2278     1.0  0.97055  0.58993  0.95023  1.0000
  C   C2279     1.0  0.53178  0.80012  0.89508  1.0000
  H   H1816     1.0  0.71226  0.83732  0.84625  1.0000
  H   H1817     1.0  0.56652  0.76214  0.82049  1.0000
  H   H1818     1.0  0.58245  0.78131  0.87259  1.0000
  H   H1819     1.0  0.57122  0.80560  0.93716  1.0000
  C   C2280     1.0  0.96919  0.53109  0.87122  1.0000
  H   H1820     1.0  0.85772  0.49202  0.89734  1.0000
  H   H1821     1.0  0.70633  0.75528  0.85514  1.0000
  H   H1822     1.0  0.79934  0.79354  0.89684  1.0000
  C   C2281     1.0  0.89442  0.66288  0.82900  1.0000
  C   C2282     1.0  0.87994  0.67377  0.81409  1.0000
  H   H1823     1.0  0.69525  0.94950  0.90478  1.0000
  H   H1824     1.0  0.96437  0.56135  0.88866  1.0000
  C   C2283     1.0  0.92041  0.65265  0.79932  1.0000
  C   C2284     1.0  0.91432  0.65207  0.82161  1.0000
  P   P75       1.0  0.94445  0.63622  0.78979  1.0000
  C   C2285     1.0  0.93495  0.60734  0.79385  1.0000
  H   H1825     1.0  0.56465  0.98068  0.84399  1.0000
  H   H1826     1.0  0.66643  0.92022  0.91834  1.0000
  H   H1827     1.0  0.79185  0.49063  0.94684  1.0000
  H   H1828     1.0  0.51580  0.91673  0.87949  1.0000
  C   C2286     1.0  0.76180  0.51467  0.97490  1.0000
  H   H1829     1.0  0.93309  0.51047  0.82564  1.0000
  C   C2287     1.0  0.91111  0.60068  0.79010  1.0000
  C   C2288     1.0  0.90328  0.57861  0.79395  1.0000
  H   H1830     1.0  0.81373  0.89312  0.74839  1.0000
  H   H1831     1.0  0.86676  0.72519  0.81140  1.0000
  H   H1832     1.0  0.52022  0.69155  0.84291  1.0000
  H   H1833     1.0  0.80935  0.57777  0.96296  1.0000
  C   C2289     1.0  0.93613  0.57931  0.97267  1.0000
  H   H1834     1.0  0.80860  0.74038  0.75248  1.0000
  H   H1835     1.0  0.85212  0.53363  0.92804  1.0000
  C   C2290     1.0  0.94043  0.62774  0.74489  1.0000
  P   P76       1.0  0.97457  0.49238  0.84733  1.0000
  C   C2291     1.0  0.80297  0.49644  0.91357  1.0000
  H   H1836     1.0  0.51247  0.75818  0.81867  1.0000
  C   C2292     1.0  0.86226  0.73537  0.77762  1.0000
  H   H1837     1.0  0.48884  0.84510  0.89033  1.0000
  H   H1838     1.0  0.82688  0.76246  0.89593  1.0000
  C   C2293     1.0  0.86343  0.61925  0.95763  1.0000
  H   H1839     1.0  0.74308  0.80673  0.76252  1.0000
  H   H1840     1.0  0.87375  0.68201  0.78025  1.0000
  H   H1841     1.0  0.89100  0.55346  0.93115  1.0000
  H   H1842     1.0  0.89835  0.61261  0.78478  1.0000
  H   H1843     1.0  0.96915  0.59590  0.80464  1.0000
  C   C2294     1.0  0.79048  0.58029  0.96282  1.0000
  C   C2295     1.0  0.54051  0.80488  0.91600  1.0000
  C   C2296     1.0  0.64728  0.94242  0.93842  1.0000
  C   C2297     1.0  0.94290  0.56938  0.80505  1.0000
  C   C2298     1.0  0.55666  0.86004  0.96878  1.0000
  H   H1844     1.0  0.79540  0.61582  0.96032  1.0000
  C   C2299     1.0  0.91912  0.56301  0.80153  1.0000
  C   C2300     1.0  0.68163  0.95361  0.91639  1.0000
  H   H1845     1.0  0.75209  0.62230  0.95952  1.0000
  C   C2301     1.0  0.86400  0.49775  0.83444  1.0000
  H   H1846     1.0  0.95910  0.66484  0.82743  1.0000
  C   C2302     1.0  0.92114  0.58563  0.95564  1.0000
  C   C2303     1.0  0.58050  0.94533  0.97481  1.0000
  C   C2304     1.0  0.70826  0.77315  0.85351  1.0000
  H   H1847     1.0  0.60522  0.90540  0.97659  1.0000
  C   C2305     1.0  0.56591  0.81728  0.83214  1.0000
  C   C2306     1.0  0.79631  0.50316  0.93444  1.0000
  C   C2307     1.0  0.62470  0.84472  0.97925  1.0000
  H   H1848     1.0  0.84720  0.49436  0.93941  1.0000
  H   H1849     1.0  0.71390  0.48502  0.95496  1.0000
  H   H1850     1.0  0.78989  0.73574  0.84029  1.0000
  H   H1851     1.0  0.72866  0.78988  0.79731  1.0000
  C   C2308     1.0  0.64493  0.96449  0.94486  1.0000
  H   H1852     1.0  0.76966  0.89280  0.74840  1.0000
  C   C2309     1.0  0.93070  0.59344  0.93569  1.0000
  Fe  Fe159     1.0  0.71606  0.74908  0.74729  1.0000
  H   H1853     1.0  0.55001  0.97588  0.89258  1.0000
  C   C2310     1.0  0.53105  0.75527  0.84957  1.0000
  H   H1854     1.0  0.82201  0.73360  0.86762  1.0000
  H   H1855     1.0  0.67402  0.77803  0.86814  1.0000
  C   C2311     1.0  0.58938  0.78753  0.80596  1.0000
  C   C2312     1.0  0.86713  0.52495  0.93456  1.0000
  C   C2313     1.0  0.80843  0.51232  0.89719  1.0000
  H   H1856     1.0  0.79458  0.72909  0.78925  1.0000
  C   C2314     1.0  0.50130  0.89856  0.90747  1.0000
  H   H1857     1.0  0.71941  0.70565  0.78809  1.0000
  H   H1858     1.0  0.50858  0.97058  0.90630  1.0000
  C   C2315     1.0  0.58971  0.94709  0.93600  1.0000
  H   H1859     1.0  0.78564  0.80563  0.75248  1.0000
  H   H1860     1.0  0.79990  0.77114  0.81288  1.0000
  H   H1861     1.0  0.95506  0.55739  0.81140  1.0000
  P   P77       1.0  0.53602  0.78492  0.85204  1.0000
  C   C2316     1.0  0.96201  0.66179  0.75455  1.0000
  H   H1862     1.0  0.52041  0.81865  0.81944  1.0000
  C   C2317     1.0  0.68984  0.78599  0.86096  1.0000
  C   C2318     1.0  0.69140  0.80910  0.85845  1.0000
  C   C2319     1.0  0.90878  0.52491  0.94406  1.0000
  H   H1863     1.0  0.67676  0.81901  0.86353  1.0000
  H   H1864     1.0  0.73052  0.68949  0.85599  1.0000
  C   C2320     1.0  0.88918  0.53614  0.93625  1.0000
  H   H1865     1.0  0.73468  0.74387  0.79394  1.0000
  C   C2321     1.0  0.59593  0.81013  0.80504  1.0000
  C   C2322     1.0  0.55893  0.79465  0.83296  1.0000
  H   H1866     1.0  0.74537  0.81501  0.83376  1.0000
  H   H1867     1.0  0.57390  0.85603  0.97515  1.0000
  H   H1868     1.0  0.76702  0.79586  0.86984  1.0000
  C   C2323     1.0  0.55661  0.92367  0.94925  1.0000
  H   H1869     1.0  0.74485  0.72807  0.86248  1.0000
  H   H1870     1.0  0.71770  0.67820  0.81879  1.0000
  H   H1871     1.0  0.81400  0.78778  0.77781  1.0000
  C   C2324     1.0  0.75558  0.79941  0.77376  1.0000
  C   C2325     1.0  0.77959  0.79878  0.76814  1.0000
  C   C2326     1.0  0.79547  0.78860  0.78236  1.0000
  C   C2327     1.0  0.78735  0.77909  0.80224  1.0000
  C   C2328     1.0  0.76324  0.77975  0.80803  1.0000
  C   C2329     1.0  0.74742  0.78977  0.79350  1.0000
  P   P78       1.0  0.75215  0.76697  0.83328  1.0000
  C   C2330     1.0  0.74113  0.73886  0.82861  1.0000
  C   C2331     1.0  0.77600  0.76595  0.85302  1.0000
  C   C2332     1.0  0.79182  0.74851  0.85251  1.0000
  C   C2333     1.0  0.81009  0.74727  0.86793  1.0000
  C   C2334     1.0  0.81280  0.76350  0.88389  1.0000
  C   C2335     1.0  0.79727  0.78100  0.88441  1.0000
  C   C2336     1.0  0.77892  0.78226  0.86904  1.0000
  C   C2337     1.0  0.73388  0.73228  0.80767  1.0000
  C   C2338     1.0  0.72518  0.71055  0.80426  1.0000
  C   C2339     1.0  0.72410  0.69511  0.82162  1.0000
  C   C2340     1.0  0.73135  0.70149  0.84254  1.0000
  C   C2341     1.0  0.73963  0.72333  0.84610  1.0000
  C   C2342     1.0  0.72853  0.78340  0.84366  1.0000
  C   C2343     1.0  0.73004  0.80669  0.84144  1.0000
  C   C2344     1.0  0.71146  0.81943  0.84865  1.0000
  H   H1872     1.0  0.54858  0.74623  0.87992  1.0000
  C   C2345     1.0  0.48713  0.87553  0.83410  1.0000
  H   H1873     1.0  0.85049  0.56679  0.97653  1.0000
  C   C2346     1.0  0.74183  0.58744  0.96188  1.0000
  C   C2347     1.0  0.51134  0.86912  0.95265  1.0000
  H   H1874     1.0  0.58976  0.84241  0.81768  1.0000
  P   P79       1.0  0.78509  0.53423  0.96583  1.0000
  H   H1875     1.0  0.81324  0.50713  0.88091  1.0000
  C   C2348     1.0  0.58422  0.82497  0.81813  1.0000
  C   C2349     1.0  0.51495  0.72404  0.82885  1.0000
  C   C2350     1.0  0.79525  0.52586  0.93915  1.0000
  H   H1876     1.0  0.50558  0.71774  0.81461  1.0000
  H   H1877     1.0  0.96245  0.60142  0.91725  1.0000
  C   C2351     1.0  0.95533  0.59529  0.93285  1.0000
  C   C2352     1.0  0.81352  0.73087  0.78612  1.0000
  C   C2353     1.0  0.93508  0.53778  0.89387  1.0000
  H   H1878     1.0  0.56412  0.84873  0.93635  1.0000
  C   C2354     1.0  0.85991  0.49357  0.87981  1.0000
  C   C2355     1.0  0.53921  0.74035  0.86557  1.0000
  S   S319      1.0  0.75631  0.75079  0.74699  1.0000
  C   C2356     1.0  0.82667  0.51813  0.98394  1.0000
  Fe  Fe160     1.0  0.75449  0.71450  0.73893  1.0000
  H   H1879     1.0  0.60050  0.95337  0.92232  1.0000
  H   H1880     1.0  0.55730  0.82897  0.84249  1.0000
  C   C2357     1.0  0.82154  0.73722  0.76519  1.0000
  C   C2358     1.0  0.82979  0.72612  0.80266  1.0000
  C   C2359     1.0  0.50526  0.81243  0.82887  1.0000
  C   C2360     1.0  0.84596  0.73909  0.76067  1.0000
  H   H1881     1.0  0.86387  0.68116  0.81979  1.0000
  H   H1882     1.0  0.52382  0.85520  0.92246  1.0000
  H   H1883     1.0  0.96901  0.67315  0.76674  1.0000
  C   C2361     1.0  0.66186  0.98084  0.93781  1.0000
  H   H1884     1.0  0.81263  0.54718  0.88918  1.0000
  C   C2362     1.0  0.57057  0.93227  0.93190  1.0000
  C   C2363     1.0  0.61105  0.88862  0.97756  1.0000
  C   C2364     1.0  0.85524  0.58435  0.97684  1.0000
  C   C2365     1.0  0.52827  0.85971  0.93909  1.0000
  C   C2366     1.0  0.85417  0.72862  0.79848  1.0000
  H   H1885     1.0  0.88962  0.66195  0.84622  1.0000
  H   H1886     1.0  0.56700  0.92709  0.91526  1.0000
  H   H1887     1.0  0.98580  0.53733  0.86416  1.0000
  H   H1888     1.0  0.91903  0.59848  0.92253  1.0000
  C   C2367     1.0  0.68001  0.97543  0.92345  1.0000
  H   H1889     1.0  0.90924  0.66362  0.76699  1.0000
  H   H1890     1.0  0.92598  0.53357  0.94498  1.0000
  H   H1891     1.0  0.90235  0.49400  0.80159  1.0000
  H   H1892     1.0  0.93059  0.61252  0.74935  1.0000
  H   H1893     1.0  0.80118  0.55930  0.92570  1.0000
  H   H1894     1.0  0.59889  0.77604  0.79608  1.0000
  C   C2368     1.0  0.86791  0.62950  0.97788  1.0000
  C   C2369     1.0  0.90574  0.66372  0.78439  1.0000
  C   C2370     1.0  0.50017  0.91335  0.88960  1.0000
  H   H1895     1.0  0.82350  0.72028  0.81861  1.0000
  C   C2371     1.0  0.97440  0.65694  0.82104  1.0000
  H   H1896     1.0  0.51374  0.80419  0.89120  1.0000
  C   C2372     1.0  0.74978  0.56574  0.96340  1.0000
  C   C2373     1.0  0.56142  0.93037  0.97066  1.0000
  H   H1897     1.0  0.86469  0.49938  0.81679  1.0000
  C   C2374     1.0  0.95702  0.54489  0.88510  1.0000
  H   H1898     1.0  0.63484  0.92934  0.94401  1.0000
  H   H1899     1.0  0.54228  0.91163  0.94608  1.0000
  C   C2375     1.0  0.94936  0.64217  0.76100  1.0000
  C   C2376     1.0  0.66544  0.93708  0.92408  1.0000
  H   H1900     1.0  0.86478  0.62892  0.94253  1.0000
  C   C2377     1.0  0.52319  0.70930  0.84479  1.0000
  H   H1901     1.0  0.91274  0.54612  0.80519  1.0000
  C   C2378     1.0  0.77424  0.56203  0.96386  1.0000
  C   C2379     1.0  0.74468  0.50677  0.95992  1.0000
  H   H1902     1.0  0.51807  0.89118  0.91077  1.0000
  C   C2380     1.0  0.80789  0.53490  0.90181  1.0000
  H   H1903     1.0  0.90210  0.58450  0.95793  1.0000
  C   C2381     1.0  0.96078  0.58123  0.96994  1.0000
  H   H1904     1.0  0.73681  0.55204  0.96420  1.0000
  C   C2382     1.0  0.90618  0.50252  0.95046  1.0000
  H   H1905     1.0  0.74508  0.51262  0.94301  1.0000
  P   P80       1.0  0.62079  0.97158  0.96254  1.0000
  C   C2383     1.0  0.59536  0.95310  0.95758  1.0000
  C   C2384     1.0  0.51885  0.74694  0.83122  1.0000
  C   C2385     1.0  0.53529  0.71745  0.86313  1.0000
  H   H1906     1.0  0.50475  0.88055  0.98562  1.0000
  C   C2386     1.0  0.88557  0.67421  0.79179  1.0000
  H   H1907     1.0  0.55080  0.92347  0.98414  1.0000
  C   C2387     1.0  0.95082  0.59141  0.80118  1.0000
  C   C2388     1.0  0.78255  0.60191  0.96128  1.0000
  C   C2389     1.0  0.97259  0.64253  0.80321  1.0000
  S   S320      1.0  0.71432  0.71202  0.74081  1.0000
  C   C2390     1.0  0.93751  0.50282  0.87521  1.0000
  C   C2391     1.0  0.92531  0.51677  0.88896  1.0000
  H   H1908     1.0  0.90799  0.51147  0.89537  1.0000
  H   H1909     1.0  0.48675  0.88326  0.81798  1.0000
  C   C2392     1.0  0.93390  0.49313  0.82140  1.0000
  C   C2393     1.0  0.51743  0.87388  0.97447  1.0000
  H   H1910     1.0  0.72297  0.59025  0.96146  1.0000
  C   C2394     1.0  0.54003  0.86934  0.98245  1.0000
  C   C2395     1.0  0.88374  0.49143  0.94987  1.0000
  H   H1911     1.0  0.87882  0.70637  0.74489  1.0000
  H   H1912     1.0  0.92163  0.49389  0.95598  1.0000
  H   H1913     1.0  0.89165  0.82341  0.74464  1.0000
  H   H1914     1.0  0.89254  0.78248  0.74420  1.0000
  C   C2396     1.0  0.87579  0.81368  0.74034  1.0000
  H   H1915     1.0  0.97208  0.57615  0.98330  1.0000
  H   H1916     1.0  0.63886  0.98224  0.88743  1.0000
  C   C2397     1.0  0.48838  0.85403  0.87485  1.0000
  H   H1917     1.0  0.49416  0.82666  0.95156  1.0000
  H   H1918     1.0  0.97821  0.63522  0.94140  1.0000
  C   C2398     1.0  0.75821  0.60551  0.96081  1.0000
  H   H1919     1.0  0.48867  0.77656  0.87048  1.0000
  C   C2399     1.0  0.48730  0.78896  0.85752  1.0000
  H   H1920     1.0  0.92940  0.48677  0.87118  1.0000
  C   C2400     1.0  0.80913  0.53390  0.98543  1.0000
