data_image0
_chemical_formula_structural       HCSH5FeSCSFePFeC2HS2HCHCH2C2SHCHC2H8FeSHC2H2CHC2H2C2HC2HC2PC16SCHCH4CH5CH5CH2C2HC2HCHSH2C3HC2HC6HC2HC3H2CHC2H3FeCHCFeC2H2C3HSCHC3FeHCHCHCH4C3HSHC4SC9PHSCHCH2C2HC2HC2HCHC2H3CH3SHCFeS2C3HCHCHPH3CHC5HCFeS2FeSCFeCFeSCSFeSHFeSCFeSFeS2H2C5HC2SC2HSC6H4C3H2C2SH2C2H3CHCH4C2H4SC2HC2H3C2HCH3C6PC8HC8H6CH8CH3PC3HC5H6C3HCHC2HC4HC2H3C3H3PC3HC2HCHSC3H2C2HCHSCH3CH3C6HC3H2C2HCHCSC2PCFeSCHSHFeSHSFeS2FeS2FeSFeCS2C3H2C2H2C6H4CHC3HC3H2CHC2HCH2CH2PCHCH4CHC2SHC5HCHCSCPC3H3C5HCHC2HSHC3H3C2PCHCFeC2HCH2C3HCH4C6PC10HC7H6CH4C2H7C5HC3H4C3HCSH2CHCHCHCHCH4C3HCHPCHCHC3HCHCHCH2C3HC2HCHC3Fe2CSFeSH2FeCSHSHSFeCSC2H3C5H2C3FeH5C4H2C5H2CH2C4PC6HC4HCH2C2H2CH5CHCHC3H2CPC2PCH3C12H2CHC2H4CH2CHC2H3PC2HC2HC2HFeHC2H3CH3C2H2CH3SC3HC4H3C6HC3HS3H2SHCH2CSCH2CH2CH2C4HC3H6CH2C2H3C3HCH3SHPCHFeS2CH2CHFeHSCFeS2HCH2S2CFeHSFeCSC5H2CH2FeHFeHCH3C3HCHC6FeC4H3C2HCH2CHSCHC2H3CH2C6PC16HC2SCH5CH8C2H2CH2SCHSC3HCH2CHCHSHC2HFeH4CHC3H3C2HPC5HC3H3CH2C7H3SH6C8HPHCH3C2HCH3FeCHC8SHC2HCHCH4C2HCSCHC2FeHFeHSFeS2FeCFeS3FeS2FeC3FeCS2HCHC2H2CHC5H2SH2C6H4CHC3HC3PCH3C2HC3PC18H21CHCH2CPCH3C2HCHC3HCHCHCH2CFeC2HCHC3H2CSHC2HPC6H2C2HCH2C3H2C2HC3H5C3PC2HCHSH4C8HCH2CH2CH3C2H2C2HC9H3CHSH4C4HCH2C2HCHC5SCHSHC2HC3H3CSHFeSC2HFeS2FeCSFeS2FeHFeCS2HCH3CHCH2C2HC2HC2H2C6H4C2HCH3C2H2C4H3C2H2CH2C3SH2C3PCH2C2HCFeCHC3H3SC4HC3H3C4H2CHCPH3CH2C3HC2H2CSHC2HC5HCSC2HCHCHC3H6C6H5PSFeCH3C2HC4HC2SC3S2CH3CHC2H2C2HCHCHCH2SFeS2H3SHCH2C2HSFeS2CFeSCHCFeSFeHCFeHSFeS3HC3H2CH2C3H2CHFeHC2H4C3HCHC8HC2HC2HFeH2CHCH3CH2C2HCHPC4HC5HC3HC2H2C2H2CH2SC7SHCHCH2CFeHC3HSCHCH3C3HC2SHPHC3H3C2HC3PC19H3CH13CSHC3PCHCH2SHSCHCHC2H2S2C2HCH2C2FeCH5CHFeH3FeH4SC2FeCHSFeCHC2H3CHCHC2H2C2H2CHCHCHSHC2HC4HC4HC4HCHC2HC6HCH3PHPC7H2CHC7HC3H2CSC9SH2SH4SCSH4C8PCH2CH4CPSH2C4H3CH2CHCPH2CHC7H2CSCH7C7H2C4HC2H3C2HFeCH5C2SH2CHCSH2C4H2C2HCH2CH2CHCHCH2CH2CSC4H3C7HC2HFeCSFeS2FeSFeCS2FeSCFeSHFeCFeS2HCSC7H4C2H4CH4CPCHCHC2H2CH2C2SC2PC9HC6H6PH2SCH3C3HCHSHC2SCHCH2C2H2SHCHC3HC2H6C5H3C3H2C2HSC3HCHC3H3CH4C3H2C6HC2HCH4C3FeS2FeSHFeSFeS2HFeS2FeSHFeSFeCS2C6H4SH2C2HC4HCH8C2H2CHCHC6PC3HC5HC8H7CH3CH8C3HCHCH4CH2C7PC8HCHC2SHCH7C2HSH2C2HCHCHC3HC3HCHCHCHCHC3H2C2HCHC4H5CHC2H5C3H2CHC2HSC2H2C4FeSFe2S2H2SH2CFePFeCSCH2C2H7CHCHCHCHCHCH2SC2HCHC2H3CH3C5H2C4HC6H3CHCH2PH2CH4CHC3HC2PC3H2C2HCSH2C3H2C4HCH5C4HC2H3C6PC4H2C13HCH5CH4CH6C6PC3SC2HFeHS2CSC2HC2H4CHC3SCHFeC3SH3CHC6H2CH2C3HCHC
_chemical_formula_sum              "H1152 C1440 S192 Fe96 P48"
_cell_length_a       69.8184
_cell_length_b       37.2332
_cell_length_c       40.2298
_cell_angle_alpha    89.622
_cell_angle_beta     88.611
_cell_angle_gamma    90.8514

_space_group_name_H-M_alt    "P 1"
_space_group_IT_number       1

loop_
  _space_group_symop_operation_xyz
  'x, y, z'

loop_
  _atom_site_type_symbol
  _atom_site_label
  _atom_site_symmetry_multiplicity
  _atom_site_fract_x
  _atom_site_fract_y
  _atom_site_fract_z
  _atom_site_occupancy
  H   H1        1.0  0.01391  0.41473  0.29017  1.0000
  C   C1        1.0  0.04854  0.02990  0.33405  1.0000
  S   S1        1.0  0.29862  0.01418  0.30143  1.0000
  H   H2        1.0  0.03053  0.27309  0.11690  1.0000
  H   H3        1.0  0.23783  0.07954  0.31643  1.0000
  H   H4        1.0  0.28937  0.24369  0.29088  1.0000
  H   H5        1.0  0.01488  0.13427  0.25187  1.0000
  H   H6        1.0  0.25131  0.47718  0.38693  1.0000
  Fe  Fe1       1.0  0.02244  0.06650  0.17083  1.0000
  S   S2        1.0  0.04851  0.06441  0.20526  1.0000
  C   C2        1.0  0.15978  0.45387  0.26977  1.0000
  S   S3        1.0  0.02000  0.10096  0.12448  1.0000
  Fe  Fe2       1.0  0.02443  0.47417  0.16484  1.0000
  P   P1        1.0  0.13868  0.42658  0.27911  1.0000
  Fe  Fe3       1.0  0.00659  0.40158  0.14205  1.0000
  C   C3        1.0  0.15130  0.32610  0.24526  1.0000
  C   C4        1.0  0.01174  0.12094  0.27548  1.0000
  H   H7        1.0  0.04672  0.00730  0.06848  1.0000
  S   S4        1.0  0.02434  0.44510  0.11540  1.0000
  S   S5        1.0  0.00846  0.42920  0.19172  1.0000
  H   H8        1.0  0.32450  0.17567  0.45909  1.0000
  C   C5        1.0  0.00922  0.00067  0.98975  1.0000
  H   H9        1.0  0.30323  0.08958  0.46649  1.0000
  C   C6        1.0  0.07805  0.06491  0.33860  1.0000
  H   H10       1.0  0.20876  0.11411  0.35976  1.0000
  H   H11       1.0  0.15298  0.31320  0.22132  1.0000
  C   C7        1.0  0.22161  0.05306  0.45660  1.0000
  C   C8        1.0  0.28761  0.09341  0.42123  1.0000
  S   S6        1.0  0.00699  0.02933  0.05331  1.0000
  H   H12       1.0  0.07442  0.48194  0.29543  1.0000
  C   C9        1.0  0.27717  0.46951  0.41351  1.0000
  H   H13       1.0  0.29339  0.20592  0.46982  1.0000
  C   C10       1.0  0.99832  0.45919  0.27057  1.0000
  C   C11       1.0  0.07769  0.04120  0.24495  1.0000
  H   H14       1.0  0.24283  0.19465  0.30831  1.0000
  H   H15       1.0  0.99536  0.16472  0.29532  1.0000
  H   H16       1.0  0.07331  0.06282  0.26105  1.0000
  H   H17       1.0  0.27314  0.02253  0.37512  1.0000
  H   H18       1.0  0.15906  0.44190  0.34009  1.0000
  H   H19       1.0  0.11342  0.46249  0.41033  1.0000
  H   H20       1.0  0.02718  0.07368  0.26213  1.0000
  H   H21       1.0  0.06597  0.00167  0.17238  1.0000
  Fe  Fe4       1.0  0.99294  0.12282  0.14805  1.0000
  S   S7        1.0  0.01519  0.34253  0.13250  1.0000
  H   H22       1.0  0.24040  0.25013  0.34704  1.0000
  C   C12       1.0  0.24013  0.17838  0.33042  1.0000
  C   C13       1.0  0.27321  0.01835  0.30516  1.0000
  H   H23       1.0  0.03660  0.45356  0.32086  1.0000
  H   H24       1.0  0.30224  0.22156  0.23752  1.0000
  C   C14       1.0  0.29773  0.20262  0.25678  1.0000
  H   H25       1.0  0.22743  0.04121  0.43413  1.0000
  C   C15       1.0  0.11085  0.44112  0.32837  1.0000
  C   C16       1.0  0.23480  0.48080  0.32362  1.0000
  H   H26       1.0  0.12343  0.12772  0.01092  1.0000
  H   H27       1.0  0.13119  0.45521  0.46785  1.0000
  C   C17       1.0  0.15348  0.30626  0.27450  1.0000
  C   C18       1.0  0.00969  0.23251  0.13278  1.0000
  H   H28       1.0  0.30592  0.15623  0.22826  1.0000
  C   C19       1.0  0.29522  0.03739  0.44844  1.0000
  C   C20       1.0  0.07041  0.01669  0.10095  1.0000
  H   H29       1.0  0.04930  0.23148  0.16174  1.0000
  C   C21       1.0  0.08128  0.15088  0.13636  1.0000
  C   C22       1.0  0.06337  0.14497  0.15217  1.0000
  P   P2        1.0  0.09586  0.11291  0.12510  1.0000
  C   C23       1.0  0.08039  0.07905  0.10742  1.0000
  C   C24       1.0  0.11401  0.12661  0.09456  1.0000
  C   C25       1.0  0.11135  0.12126  0.06043  1.0000
  C   C26       1.0  0.12557  0.13201  0.03721  1.0000
  C   C27       1.0  0.14252  0.14818  0.04783  1.0000
  C   C28       1.0  0.14527  0.15366  0.08172  1.0000
  C   C29       1.0  0.13108  0.14296  0.10501  1.0000
  C   C30       1.0  0.08245  0.04248  0.11509  1.0000
  C   C31       1.0  0.99694  0.12086  0.33046  1.0000
  C   C32       1.0  0.13238  0.01913  0.46798  1.0000
  C   C33       1.0  0.05413  0.06348  0.07131  1.0000
  C   C34       1.0  0.06603  0.08936  0.08556  1.0000
  C   C35       1.0  0.10803  0.09571  0.16090  1.0000
  C   C36       1.0  0.10305  0.10698  0.19316  1.0000
  C   C37       1.0  0.11306  0.09425  0.22044  1.0000
  C   C38       1.0  0.12777  0.06960  0.21583  1.0000
  S   S8        1.0  0.31486  0.43183  0.36851  1.0000
  C   C39       1.0  0.12304  0.07133  0.15644  1.0000
  H   H30       1.0  0.15685  0.27797  0.27325  1.0000
  C   C40       1.0  0.28723  0.15363  0.30707  1.0000
  H   H31       1.0  0.10112  0.03895  0.36357  1.0000
  H   H32       1.0  0.10144  0.19177  0.11815  1.0000
  H   H33       1.0  0.05825  0.11788  0.15737  1.0000
  H   H34       1.0  0.09841  0.10874  0.05150  1.0000
  C   C41       1.0  0.00555  0.29789  0.13867  1.0000
  H   H35       1.0  0.15353  0.15643  0.02978  1.0000
  H   H36       1.0  0.15843  0.16617  0.08997  1.0000
  H   H37       1.0  0.13342  0.14750  0.13119  1.0000
  H   H38       1.0  0.09304  0.03364  0.13234  1.0000
  H   H39       1.0  0.19344  0.02934  0.45091  1.0000
  C   C42       1.0  0.28574  0.20647  0.41819  1.0000
  H   H40       1.0  0.04295  0.07154  0.05469  1.0000
  H   H41       1.0  0.06395  0.11742  0.07959  1.0000
  H   H42       1.0  0.09131  0.12511  0.19752  1.0000
  H   H43       1.0  0.10892  0.10242  0.24535  1.0000
  H   H44       1.0  0.22782  0.14770  0.46070  1.0000
  C   C43       1.0  0.24248  0.23364  0.47370  1.0000
  H   H45       1.0  0.12704  0.06210  0.13179  1.0000
  H   H46       1.0  0.24286  0.25969  0.46147  1.0000
  C   C44       1.0  0.01284  0.00628  0.38395  1.0000
  C   C45       1.0  0.13045  0.43800  0.32059  1.0000
  H   H47       1.0  0.07896  0.39377  0.22225  1.0000
  C   C46       1.0  0.01656  0.26829  0.12843  1.0000
  C   C47       1.0  0.27920  0.07440  0.39544  1.0000
  H   H48       1.0  0.03793  0.16903  0.17303  1.0000
  C   C48       1.0  0.00079  0.13807  0.29999  1.0000
  H   H49       1.0  0.08629  0.08928  0.33346  1.0000
  S   S9        1.0  0.27157  0.45469  0.31617  1.0000
  H   H50       1.0  0.14508  0.37156  0.33125  1.0000
  H   H51       1.0  0.30154  0.26604  0.35488  1.0000
  C   C49       1.0  0.25300  0.17929  0.35673  1.0000
  C   C50       1.0  0.28482  0.31367  0.35093  1.0000
  C   C51       1.0  0.07615  0.21526  0.13930  1.0000
  H   H52       1.0  0.08965  0.45337  0.36619  1.0000
  C   C52       1.0  0.23309  0.07544  0.47594  1.0000
  C   C53       1.0  0.05827  0.20906  0.15482  1.0000
  H   H53       1.0  0.23644  0.31579  0.34386  1.0000
  C   C54       1.0  0.06768  0.03513  0.21546  1.0000
  C   C55       1.0  0.14460  0.37951  0.27777  1.0000
  C   C56       1.0  0.25292  0.26743  0.34811  1.0000
  C   C57       1.0  0.29054  0.21506  0.28730  1.0000
  C   C58       1.0  0.08768  0.18631  0.13018  1.0000
  C   C59       1.0  0.08644  0.03653  0.35550  1.0000
  H   H54       1.0  0.27611  0.44046  0.41271  1.0000
  C   C60       1.0  0.14683  0.35939  0.30706  1.0000
  C   C61       1.0  0.25059  0.30471  0.34639  1.0000
  H   H55       1.0  0.21446  0.15417  0.31109  1.0000
  C   C62       1.0  0.29564  0.07492  0.44764  1.0000
  C   C63       1.0  0.22087  0.13278  0.35928  1.0000
  C   C64       1.0  0.20243  0.04659  0.46585  1.0000
  H   H56       1.0  0.22921  0.20668  0.43280  1.0000
  H   H57       1.0  0.10368  0.38638  0.26467  1.0000
  C   C65       1.0  0.26654  0.32780  0.34765  1.0000
  H   H58       1.0  0.27330  0.07525  0.31280  1.0000
  C   C66       1.0  0.19341  0.45987  0.25306  1.0000
  C   C67       1.0  0.29113  0.19695  0.38561  1.0000
  H   H59       1.0  0.25958  0.15529  0.40435  1.0000
  H   H60       1.0  0.23089  0.45326  0.32965  1.0000
  H   H61       1.0  0.28332  0.13439  0.32640  1.0000
  Fe  Fe5       1.0  0.99644  0.47244  0.10522  1.0000
  C   C68       1.0  0.13270  0.05805  0.18386  1.0000
  H   H62       1.0  0.27226  0.21962  0.42302  1.0000
  C   C69       1.0  0.11816  0.45532  0.38543  1.0000
  Fe  Fe6       1.0  0.00105  0.05608  0.10457  1.0000
  C   C70       1.0  0.09360  0.02017  0.25347  1.0000
  C   C71       1.0  0.12031  0.43327  0.24878  1.0000
  H   H63       1.0  0.26809  0.99523  0.48553  1.0000
  H   H64       1.0  0.26481  0.35669  0.34596  1.0000
  C   C72       1.0  0.15126  0.32291  0.30537  1.0000
  C   C73       1.0  0.26449  0.05140  0.31070  1.0000
  C   C74       1.0  0.27131  0.25307  0.35097  1.0000
  H   H65       1.0  0.14520  0.37761  0.22396  1.0000
  S   S10       1.0  0.99638  0.09110  0.19545  1.0000
  C   C75       1.0  0.28526  0.19055  0.31271  1.0000
  H   H66       1.0  0.10024  0.43796  0.30946  1.0000
  C   C76       1.0  0.13770  0.45213  0.37792  1.0000
  C   C77       1.0  0.29978  0.16578  0.25150  1.0000
  C   C78       1.0  0.10476  0.44991  0.36065  1.0000
  Fe  Fe7       1.0  0.30460  0.45280  0.31950  1.0000
  H   H67       1.0  0.15288  0.30750  0.32805  1.0000
  C   C79       1.0  0.23251  0.02298  0.30938  1.0000
  H   H68       1.0  0.20685  0.44783  0.24549  1.0000
  C   C80       1.0  0.22409  0.15538  0.33181  1.0000
  H   H69       1.0  0.27366  0.08860  0.37426  1.0000
  C   C81       1.0  0.12150  0.46182  0.22579  1.0000
  H   H70       1.0  0.17826  0.40958  0.25630  1.0000
  H   H71       1.0  0.14812  0.45674  0.39704  1.0000
  H   H72       1.0  0.28874  0.12236  0.42005  1.0000
  H   H73       1.0  0.30401  0.47001  0.43861  1.0000
  C   C82       1.0  0.05712  0.00142  0.35101  1.0000
  C   C83       1.0  0.17712  0.43829  0.25931  1.0000
  C   C84       1.0  0.24965  0.15637  0.38425  1.0000
  H   H74       1.0  0.29643  0.11273  0.27275  1.0000
  S   S11       1.0  0.20710  0.02798  0.31141  1.0000
  H   H75       1.0  0.10831  0.48792  0.18433  1.0000
  C   C85       1.0  0.01478  0.06888  0.31166  1.0000
  C   C86       1.0  0.29452  0.14128  0.27664  1.0000
  C   C87       1.0  0.24432  0.05368  0.31274  1.0000
  C   C88       1.0  0.23364  0.13326  0.38546  1.0000
  S   S12       1.0  0.15191  0.01340  0.31386  1.0000
  C   C89       1.0  0.14687  0.36256  0.24686  1.0000
  C   C90       1.0  0.10493  0.40857  0.24718  1.0000
  C   C91       1.0  0.09097  0.41247  0.22310  1.0000
  C   C92       1.0  0.23486  0.20375  0.45752  1.0000
  C   C93       1.0  0.02546  0.46555  0.30637  1.0000
  C   C94       1.0  0.09234  0.44084  0.20025  1.0000
  C   C95       1.0  0.14385  0.44375  0.34559  1.0000
  C   C96       1.0  0.27884  0.03686  0.39608  1.0000
  C   C97       1.0  0.28721  0.27650  0.35269  1.0000
  P   P3        1.0  0.27507  0.20519  0.35194  1.0000
  H   H76       1.0  0.29721  0.33154  0.35189  1.0000
  S   S13       1.0  0.00513  0.02093  0.15000  1.0000
  C   C98       1.0  0.10759  0.46544  0.20160  1.0000
  H   H77       1.0  0.10118  0.02561  0.27606  1.0000
  C   C99       1.0  0.29769  0.19880  0.44469  1.0000
  H   H78       1.0  0.31410  0.17591  0.35464  1.0000
  H   H79       1.0  0.23136  0.11495  0.40625  1.0000
  C   C100      1.0  0.30910  0.18163  0.37969  1.0000
  C   C101      1.0  0.05918  0.06169  0.32792  1.0000
  H   H80       1.0  0.08131  0.44436  0.18200  1.0000
  C   C102      1.0  0.02500  0.00013  0.28048  1.0000
  C   C103      1.0  0.00394  0.08640  0.33637  1.0000
  H   H81       1.0  0.30242  0.02360  0.46827  1.0000
  C   C104      1.0  0.01272  0.44369  0.28913  1.0000
  C   C105      1.0  0.05188  0.17391  0.16123  1.0000
  H   H82       1.0  0.08100  0.24257  0.13419  1.0000
  C   C106      1.0  0.99818  0.02127  0.01224  1.0000
  H   H83       1.0  0.01832  0.21028  0.12445  1.0000
  C   C107      1.0  0.28635  0.01807  0.42306  1.0000
  C   C108      1.0  0.01867  0.08650  0.28128  1.0000
  H   H84       1.0  0.13496  0.05855  0.23712  1.0000
  H   H85       1.0  0.05255  0.47233  0.24818  1.0000
  H   H86       1.0  0.24704  0.99537  0.41469  1.0000
  C   C109      1.0  0.31522  0.18206  0.43871  1.0000
  H   H87       1.0  0.01899  0.48300  0.01430  1.0000
  H   H88       1.0  0.05318  0.08383  0.31436  1.0000
  H   H89       1.0  0.24790  0.08042  0.46833  1.0000
  S   S14       1.0  0.12958  0.00104  0.40228  1.0000
  H   H90       1.0  0.99913  0.40127  0.05896  1.0000
  C   C110      1.0  0.25417  0.48965  0.31623  1.0000
  Fe  Fe8       1.0  0.32363  0.05202  0.31506  1.0000
  S   S15       1.0  0.32329  0.41453  0.28978  1.0000
  S   S16       1.0  0.32106  0.10077  0.34711  1.0000
  C   C111      1.0  0.23418  0.17019  0.47342  1.0000
  C   C112      1.0  0.32097  0.17374  0.40621  1.0000
  C   C113      1.0  0.13745  0.47914  0.47846  1.0000
  H   H91       1.0  0.02441  0.02364  0.39195  1.0000
  C   C114      1.0  0.29289  0.48615  0.42800  1.0000
  H   H92       1.0  0.14380  0.03824  0.18051  1.0000
  C   C115      1.0  0.07367  0.00717  0.19480  1.0000
  H   H93       1.0  0.12012  0.03587  0.46383  1.0000
  P   P4        1.0  0.02440  0.02483  0.31910  1.0000
  H   H94       1.0  0.99650  0.01558  0.26628  1.0000
  H   H95       1.0  0.00097  0.07365  0.36018  1.0000
  H   H96       1.0  0.22750  0.48523  0.45499  1.0000
  C   C116      1.0  0.07598  0.00485  0.36175  1.0000
  H   H97       1.0  0.13298  0.48155  0.22641  1.0000
  C   C117      1.0  0.14015  0.99901  0.44165  1.0000
  C   C118      1.0  0.05626  0.02719  0.07910  1.0000
  C   C119      1.0  0.00908  0.00031  0.25978  1.0000
  C   C120      1.0  0.10014  0.99327  0.23202  1.0000
  C   C121      1.0  0.00947  0.00151  0.34995  1.0000
  H   H98       1.0  0.00401  0.99226  0.43414  1.0000
  C   C122      1.0  0.26316  0.49032  0.39896  1.0000
  Fe  Fe9       1.0  0.17929  0.05265  0.65055  1.0000
  S   S17       1.0  0.17997  0.07666  0.59941  1.0000
  S   S18       1.0  0.20726  0.04734  0.67856  1.0000
  Fe  Fe10      1.0  0.13511  0.04001  0.65054  1.0000
  S   S19       1.0  0.13358  0.06349  0.59871  1.0000
  C   C123      1.0  0.24605  0.00473  0.61243  1.0000
  Fe  Fe11      1.0  0.15978  0.03162  0.58660  1.0000
  C   C124      1.0  0.07389  0.41280  0.59922  1.0000
  Fe  Fe12      1.0  0.15381  0.10703  0.61646  1.0000
  S   S20       1.0  0.15038  0.16531  0.59824  1.0000
  C   C125      1.0  0.26463  0.06831  0.54194  1.0000
  S   S21       1.0  0.15402  0.08537  0.66893  1.0000
  Fe  Fe13      1.0  0.17770  0.44449  0.63695  1.0000
  S   S22       1.0  0.16805  0.40013  0.60316  1.0000
  H   H99       1.0  0.27932  0.15317  0.51992  1.0000
  Fe  Fe14      1.0  0.13609  0.45531  0.66434  1.0000
  S   S23       1.0  0.12402  0.41190  0.63175  1.0000
  C   C126      1.0  0.22918  0.34972  0.81173  1.0000
  Fe  Fe15      1.0  0.14961  0.37881  0.64536  1.0000
  S   S24       1.0  0.14952  0.32100  0.66616  1.0000
  Fe  Fe16      1.0  0.14363  0.43639  0.59166  1.0000
  S   S25       1.0  0.13548  0.44147  0.53737  1.0000
  S   S26       1.0  0.16072  0.42088  0.68038  1.0000
  H   H100      1.0  0.10468  0.04684  0.73463  1.0000
  H   H101      1.0  0.20746  0.99794  0.54012  1.0000
  C   C127      1.0  0.22919  0.01941  0.62636  1.0000
  C   C128      1.0  0.23484  0.42421  0.80990  1.0000
  C   C129      1.0  0.28257  0.05378  0.54791  1.0000
  C   C130      1.0  0.23576  0.36759  0.83978  1.0000
  C   C131      1.0  0.09259  0.02855  0.73257  1.0000
  H   H102      1.0  0.10527  0.31453  0.68525  1.0000
  C   C132      1.0  0.18743  0.43099  0.51388  1.0000
  C   C133      1.0  0.29782  0.11069  0.53372  1.0000
  S   S27       1.0  0.16683  0.99346  0.54441  1.0000
  C   C134      1.0  0.09074  0.00797  0.70378  1.0000
  C   C135      1.0  0.06128  0.43642  0.61499  1.0000
  H   H103      1.0  0.31076  0.12692  0.53047  1.0000
  S   S28       1.0  0.21031  0.45333  0.63264  1.0000
  C   C136      1.0  0.15063  0.20829  0.61776  1.0000
  C   C137      1.0  0.14790  0.23922  0.59816  1.0000
  C   C138      1.0  0.14779  0.27386  0.61235  1.0000
  C   C139      1.0  0.15028  0.27808  0.64652  1.0000
  C   C140      1.0  0.15312  0.24715  0.66611  1.0000
  C   C141      1.0  0.15342  0.21255  0.65186  1.0000
  H   H104      1.0  0.14578  0.23636  0.57176  1.0000
  H   H105      1.0  0.14557  0.29724  0.59689  1.0000
  H   H106      1.0  0.15516  0.24999  0.69252  1.0000
  H   H107      1.0  0.15584  0.18923  0.66721  1.0000
  C   C142      1.0  0.24507  0.02599  0.67866  1.0000
  C   C143      1.0  0.00442  0.07445  0.74349  1.0000
  C   C144      1.0  0.24117  0.16630  0.50569  1.0000
  H   H108      1.0  0.99651  0.99741  0.70025  1.0000
  H   H109      1.0  0.16640  0.13228  0.72644  1.0000
  C   C145      1.0  0.00016  0.21297  0.78034  1.0000
  C   C146      1.0  0.07886  0.02513  0.75892  1.0000
  S   S29       1.0  0.16052  0.00577  0.63702  1.0000
  H   H110      1.0  0.25116  0.45121  0.62705  1.0000
  H   H111      1.0  0.24644  0.09550  0.59560  1.0000
  C   C147      1.0  0.14133  0.47978  0.51258  1.0000
  C   C148      1.0  0.22822  0.40647  0.78160  1.0000
  H   H112      1.0  0.00908  0.25131  0.74247  1.0000
  H   H113      1.0  0.17401  0.42362  0.50254  1.0000
  H   H114      1.0  0.03319  0.04790  0.85635  1.0000
  C   C149      1.0  0.23859  0.40482  0.83886  1.0000
  H   H115      1.0  0.21965  0.39845  0.56808  1.0000
  C   C150      1.0  0.99887  0.15043  0.76329  1.0000
  H   H116      1.0  0.20183  0.47606  0.69917  1.0000
  H   H117      1.0  0.01096  0.06102  0.90371  1.0000
  H   H118      1.0  0.21668  0.02264  0.61136  1.0000
  H   H119      1.0  0.24371  0.41870  0.86059  1.0000
  C   C151      1.0  0.02049  0.06368  0.85238  1.0000
  C   C152      1.0  0.24753  0.47794  0.63519  1.0000
  H   H120      1.0  0.19950  0.09793  0.53499  1.0000
  H   H121      1.0  0.03177  0.10262  0.74469  1.0000
  H   H122      1.0  0.13446  0.03359  0.51979  1.0000
  H   H123      1.0  0.01298  0.20525  0.69861  1.0000
  S   S30       1.0  0.15410  0.48192  0.62311  1.0000
  C   C153      1.0  0.02338  0.02683  0.70050  1.0000
  C   C154      1.0  0.22850  0.02977  0.65971  1.0000
  H   H124      1.0  0.22040  0.35451  0.76134  1.0000
  C   C155      1.0  0.21320  0.41671  0.55068  1.0000
  C   C156      1.0  0.03322  0.05650  0.71312  1.0000
  H   H125      1.0  0.09756  0.40785  0.56414  1.0000
  H   H126      1.0  0.99965  0.45202  0.87595  1.0000
  H   H127      1.0  0.23707  0.45309  0.80956  1.0000
  C   C157      1.0  0.26194  0.01107  0.66473  1.0000
  C   C158      1.0  0.20163  0.35943  0.67923  1.0000
  H   H128      1.0  0.24872  0.41493  0.68641  1.0000
  C   C159      1.0  0.19520  0.46549  0.50904  1.0000
  H   H129      1.0  0.22699  0.32084  0.81241  1.0000
  H   H130      1.0  0.19023  0.38005  0.53875  1.0000
  H   H131      1.0  0.12645  0.29114  0.72827  1.0000
  C   C160      1.0  0.10295  0.13518  0.62927  1.0000
  C   C161      1.0  0.09201  0.10350  0.62927  1.0000
  C   C162      1.0  0.08305  0.09117  0.65864  1.0000
  C   C163      1.0  0.08490  0.11059  0.68804  1.0000
  C   C164      1.0  0.09571  0.14272  0.68826  1.0000
  C   C165      1.0  0.10494  0.15459  0.65863  1.0000
  P   P5        1.0  0.09850  0.16805  0.72616  1.0000
  C   C166      1.0  0.09986  0.21513  0.71494  1.0000
  C   C167      1.0  0.07850  0.15935  0.75467  1.0000
  C   C168      1.0  0.06480  0.18576  0.76126  1.0000
  C   C169      1.0  0.04990  0.17913  0.78446  1.0000
  C   C170      1.0  0.04841  0.14604  0.80097  1.0000
  C   C171      1.0  0.06190  0.11950  0.79440  1.0000
  C   C172      1.0  0.07698  0.12624  0.77161  1.0000
  C   C173      1.0  0.08762  0.22885  0.69089  1.0000
  H   H132      1.0  0.23072  0.10736  0.64943  1.0000
  C   C174      1.0  0.11535  0.27382  0.71844  1.0000
  C   C175      1.0  0.11365  0.23799  0.72889  1.0000
  C   C176      1.0  0.12044  0.15563  0.74587  1.0000
  C   C177      1.0  0.12172  0.15598  0.78069  1.0000
  C   C178      1.0  0.13888  0.14709  0.79577  1.0000
  C   C179      1.0  0.15495  0.13838  0.77624  1.0000
  C   C180      1.0  0.15390  0.13881  0.74161  1.0000
  C   C181      1.0  0.13672  0.14743  0.72648  1.0000
  H   H133      1.0  0.11025  0.14435  0.60660  1.0000
  H   H134      1.0  0.09089  0.08795  0.60670  1.0000
  H   H135      1.0  0.07516  0.06586  0.65879  1.0000
  H   H136      1.0  0.07804  0.09996  0.71036  1.0000
  H   H137      1.0  0.11386  0.17868  0.65809  1.0000
  H   H138      1.0  0.06568  0.21169  0.74900  1.0000
  C   C182      1.0  0.19654  0.40648  0.53440  1.0000
  H   H139      1.0  0.03959  0.19983  0.78987  1.0000
  H   H140      1.0  0.06074  0.09369  0.80708  1.0000
  H   H141      1.0  0.08755  0.10564  0.76726  1.0000
  H   H142      1.0  0.07699  0.21161  0.67964  1.0000
  H   H143      1.0  0.25191  0.05161  0.54587  1.0000
  H   H144      1.0  0.12343  0.22819  0.74719  1.0000
  H   H145      1.0  0.10956  0.16330  0.79626  1.0000
  H   H146      1.0  0.13974  0.14701  0.82262  1.0000
  C   C183      1.0  0.08819  0.46250  0.56789  1.0000
  H   H147      1.0  0.16375  0.46723  0.80461  1.0000
  H   H148      1.0  0.13619  0.14780  0.69966  1.0000
  H   H149      1.0  0.21424  0.33906  0.63400  1.0000
  P   P6        1.0  0.23968  0.12357  0.52734  1.0000
  C   C184      1.0  0.22859  0.13177  0.56768  1.0000
  C   C185      1.0  0.26311  0.10450  0.53242  1.0000
  C   C186      1.0  0.27990  0.12545  0.52778  1.0000
  H   H150      1.0  0.31291  0.06361  0.54951  1.0000
  C   C187      1.0  0.21328  0.15582  0.57035  1.0000
  C   C188      1.0  0.20441  0.16230  0.60123  1.0000
  C   C189      1.0  0.21074  0.14491  0.62970  1.0000
  C   C190      1.0  0.22601  0.12118  0.62734  1.0000
  C   C191      1.0  0.23488  0.11445  0.59651  1.0000
  H   H151      1.0  0.18762  0.48446  0.49381  1.0000
  H   H152      1.0  0.23867  0.35257  0.86223  1.0000
  H   H153      1.0  0.20789  0.16908  0.54852  1.0000
  H   H154      1.0  0.19231  0.18021  0.60300  1.0000
  H   H155      1.0  0.20356  0.14925  0.65350  1.0000
  H   H156      1.0  0.18830  0.34456  0.67655  1.0000
  C   C192      1.0  0.27805  0.47350  0.73498  1.0000
  C   C193      1.0  0.08943  0.26467  0.68043  1.0000
  C   C194      1.0  0.20601  0.08546  0.51340  1.0000
  H   H157      1.0  0.04831  0.06031  0.70708  1.0000
  C   C195      1.0  0.26248  0.00012  0.63151  1.0000
  H   H158      1.0  0.24476  0.03411  0.70443  1.0000
  C   C196      1.0  0.22101  0.40238  0.70955  1.0000
  C   C197      1.0  0.10338  0.28707  0.69406  1.0000
  H   H159      1.0  0.28374  0.02629  0.55634  1.0000
  C   C198      1.0  0.23335  0.37594  0.65838  1.0000
  C   C199      1.0  0.06305  0.00128  0.75693  1.0000
  C   C200      1.0  0.26234  0.45005  0.73936  1.0000
  C   C201      1.0  0.15625  0.99618  0.50519  1.0000
  H   H160      1.0  0.24449  0.37431  0.63930  1.0000
  C   C202      1.0  0.02381  0.08026  0.73454  1.0000
  C   C203      1.0  0.00412  0.02084  0.70932  1.0000
  H   H161      1.0  0.08036  0.27491  0.66120  1.0000
  H   H162      1.0  0.00670  0.48078  0.69622  1.0000
  H   H163      1.0  0.09924  0.47233  0.55067  1.0000
  C   C204      1.0  0.08732  0.42587  0.57566  1.0000
  C   C205      1.0  0.19387  0.47468  0.72255  1.0000
  C   C206      1.0  0.29912  0.07497  0.54411  1.0000
  H   H164      1.0  0.07361  0.38454  0.60583  1.0000
  H   H165      1.0  0.03689  0.14106  0.81902  1.0000
  H   H166      1.0  0.23354  0.45900  0.55965  1.0000
  P   P7        1.0  0.22351  0.43220  0.74453  1.0000
  C   C207      1.0  0.22542  0.36902  0.78271  1.0000
  C   C208      1.0  0.22104  0.45118  0.54585  1.0000
  C   C209      1.0  0.00291  0.99319  0.95723  1.0000
  H   H167      1.0  0.19226  0.38493  0.72423  1.0000
  C   C210      1.0  0.24858  0.19658  0.52191  1.0000
  C   C211      1.0  0.22531  0.09195  0.50445  1.0000
  H   H168      1.0  0.03079  0.00802  0.68449  1.0000
  C   C212      1.0  0.00854  0.19727  0.72362  1.0000
  H   H169      1.0  0.25360  0.19433  0.54712  1.0000
  S   S31       1.0  0.04603  0.99878  0.79086  1.0000
  C   C213      1.0  0.00630  0.22321  0.74829  1.0000
  C   C214      1.0  0.23571  0.39901  0.68536  1.0000
  C   C215      1.0  0.00799  0.07102  0.87900  1.0000
  H   H170      1.0  0.27446  0.00789  0.67973  1.0000
  H   H171      1.0  0.08061  0.04074  0.78121  1.0000
  C   C216      1.0  0.21630  0.35624  0.65528  1.0000
  C   C217      1.0  0.01609  0.07471  0.82021  1.0000
  H   H172      1.0  0.99813  0.23315  0.79935  1.0000
  C   C218      1.0  0.99645  0.17674  0.78784  1.0000
  H   H173      1.0  0.02564  0.06715  0.80002  1.0000
  S   S32       1.0  0.10746  0.01083  0.66940  1.0000
  C   C219      1.0  0.24934  0.23004  0.50587  1.0000
  H   H174      1.0  0.25500  0.25332  0.51861  1.0000
  H   H175      1.0  0.29250  0.46324  0.73453  1.0000
  H   H176      1.0  0.16824  0.13136  0.78785  1.0000
  C   C220      1.0  0.21230  0.47554  0.52443  1.0000
  H   H177      1.0  0.05127  0.42649  0.63404  1.0000
  H   H178      1.0  0.26481  0.42162  0.74271  1.0000
  H   H179      1.0  0.00578  0.14158  0.71116  1.0000
  C   C221      1.0  0.24356  0.46312  0.73875  1.0000
  C   C222      1.0  0.00463  0.16108  0.73094  1.0000
  C   C223      1.0  0.20393  0.38245  0.70619  1.0000
  C   C224      1.0  0.20108  0.45549  0.74953  1.0000
  C   C225      1.0  0.14048  0.01792  0.49965  1.0000
  C   C226      1.0  0.99903  0.09304  0.81428  1.0000
  H   H180      1.0  0.08470  0.47455  0.66903  1.0000
  C   C227      1.0  0.07523  0.48622  0.58287  1.0000
  C   C228      1.0  0.99467  0.04455  0.73066  1.0000
  C   C229      1.0  0.19017  0.45312  0.77931  1.0000
  H   H181      1.0  0.24632  0.99664  0.58670  1.0000
  H   H182      1.0  0.19511  0.43796  0.80036  1.0000
  C   C230      1.0  0.99305  0.41631  0.91725  1.0000
  C   C231      1.0  0.22815  0.48687  0.63993  1.0000
  H   H183      1.0  0.17979  0.05794  0.50141  1.0000
  C   C232      1.0  0.06201  0.47305  0.60701  1.0000
  H   H184      1.0  0.00609  0.40120  0.91410  1.0000
  C   C233      1.0  0.17233  0.46968  0.78188  1.0000
  S   S33       1.0  0.12039  0.48783  0.70518  1.0000
  C   C234      1.0  0.19469  0.06274  0.49426  1.0000
  C   C235      1.0  0.08105  0.48782  0.69211  1.0000
  P   P8        1.0  0.99232  0.10418  0.77225  1.0000
  C   C236      1.0  0.16527  0.48870  0.75485  1.0000
  Fe  Fe17      1.0  0.14182  0.96641  0.28384  1.0000
  S   S34       1.0  0.13392  0.93209  0.32859  1.0000
  C   C237      1.0  0.14547  0.79895  0.45059  1.0000
  H   H185      1.0  0.99590  0.57028  0.35511  1.0000
  S   S35       1.0  0.17551  0.95613  0.35932  1.0000
  H   H186      1.0  0.19889  0.90545  0.39432  1.0000
  Fe  Fe18      1.0  0.16423  0.91243  0.32606  1.0000
  S   S36       1.0  0.17513  0.85609  0.33853  1.0000
  H   H187      1.0  0.13811  0.50894  0.43199  1.0000
  S   S37       1.0  0.17190  0.94370  0.27902  1.0000
  Fe  Fe19      1.0  0.14623  0.64204  0.33800  1.0000
  S   S38       1.0  0.15196  0.60314  0.29605  1.0000
  S   S39       1.0  0.13575  0.69971  0.33041  1.0000
  Fe  Fe20      1.0  0.15079  0.58292  0.39113  1.0000
  S   S40       1.0  0.15659  0.53993  0.35329  1.0000
  S   S41       1.0  0.15290  0.58016  0.44754  1.0000
  Fe  Fe21      1.0  0.17578  0.58145  0.32786  1.0000
  S   S42       1.0  0.20727  0.57654  0.31001  1.0000
  Fe  Fe22      1.0  0.13222  0.56431  0.32421  1.0000
  C   C238      1.0  0.25140  0.90502  0.36813  1.0000
  S   S43       1.0  0.17117  0.62339  0.36729  1.0000
  S   S44       1.0  0.12536  0.60429  0.36457  1.0000
  C   C239      1.0  0.12735  0.78222  0.44877  1.0000
  C   C240      1.0  0.28064  0.54476  0.41327  1.0000
  C   C241      1.0  0.17534  0.51268  0.26744  1.0000
  H   H188      1.0  0.02280  0.99033  0.99755  1.0000
  H   H189      1.0  0.00987  0.62825  0.33040  1.0000
  C   C242      1.0  0.21704  0.53442  0.47701  1.0000
  C   C243      1.0  0.09316  0.54502  0.24234  1.0000
  H   H190      1.0  0.03359  0.51917  0.31920  1.0000
  H   H191      1.0  0.10447  0.56513  0.24030  1.0000
  C   C244      1.0  0.16376  0.81293  0.33654  1.0000
  C   C245      1.0  0.14489  0.80833  0.32627  1.0000
  C   C246      1.0  0.13661  0.77356  0.32471  1.0000
  C   C247      1.0  0.14703  0.74288  0.33327  1.0000
  C   C248      1.0  0.16590  0.74749  0.34362  1.0000
  C   C249      1.0  0.17414  0.78229  0.34539  1.0000
  H   H192      1.0  0.13668  0.83151  0.31945  1.0000
  H   H193      1.0  0.12202  0.77039  0.31661  1.0000
  H   H194      1.0  0.17413  0.72423  0.35018  1.0000
  H   H195      1.0  0.18872  0.78545  0.35351  1.0000
  C   C250      1.0  0.31127  0.62870  0.44995  1.0000
  H   H196      1.0  0.02559  0.94657  0.19768  1.0000
  C   C251      1.0  0.22555  0.64676  0.39540  1.0000
  C   C252      1.0  0.08936  0.52828  0.47508  1.0000
  C   C253      1.0  0.12559  0.74711  0.43688  1.0000
  H   H197      1.0  0.11156  0.73471  0.43453  1.0000
  C   C254      1.0  0.14919  0.54062  0.47170  1.0000
  C   C255      1.0  0.10134  0.55817  0.46926  1.0000
  C   C256      1.0  0.09124  0.52407  0.27131  1.0000
  H   H198      1.0  0.11450  0.79686  0.45519  1.0000
  H   H199      1.0  0.09465  0.96589  0.18609  1.0000
  C   C257      1.0  0.03995  0.63815  0.33598  1.0000
  H   H200      1.0  0.21554  0.86067  0.48775  1.0000
  C   C258      1.0  0.22504  0.54268  0.31426  1.0000
  C   C259      1.0  0.12673  0.85613  0.40324  1.0000
  H   H201      1.0  0.03783  0.66045  0.35276  1.0000
  C   C260      1.0  0.29466  0.60683  0.45031  1.0000
  H   H202      1.0  0.25561  0.49439  0.48132  1.0000
  H   H203      1.0  0.02553  0.56635  0.16555  1.0000
  C   C261      1.0  0.15907  0.49123  0.27402  1.0000
  H   H204      1.0  0.22562  0.65909  0.44760  1.0000
  H   H205      1.0  0.26797  0.96183  0.29751  1.0000
  P   P9        1.0  0.28617  0.96958  0.42350  1.0000
  C   C262      1.0  0.15595  0.97733  0.44727  1.0000
  H   H206      1.0  0.22929  0.63027  0.34449  1.0000
  C   C263      1.0  0.26104  0.61448  0.40589  1.0000
  H   H207      1.0  0.25409  0.54313  0.38625  1.0000
  H   H208      1.0  0.16570  0.88603  0.40526  1.0000
  H   H209      1.0  0.17590  0.79217  0.44038  1.0000
  H   H210      1.0  0.25261  0.87987  0.35493  1.0000
  C   C264      1.0  0.28674  0.59508  0.48099  1.0000
  H   H211      1.0  0.28924  0.65933  0.37304  1.0000
  C   C265      1.0  0.23544  0.63074  0.36897  1.0000
  C   C266      1.0  0.16398  0.97596  0.47892  1.0000
  S   S45       1.0  0.12130  0.96799  0.23969  1.0000
  H   H212      1.0  0.30690  0.53601  0.43936  1.0000
  C   C267      1.0  0.01747  0.58010  0.18489  1.0000
  C   C268      1.0  0.11349  0.87330  0.38336  1.0000
  C   C269      1.0  0.22121  0.51113  0.45049  1.0000
  C   C270      1.0  0.17141  0.86216  0.45321  1.0000
  C   C271      1.0  0.12243  0.90178  0.44535  1.0000
  H   H213      1.0  0.00909  0.62318  0.15271  1.0000
  C   C272      1.0  0.24438  0.55150  0.30675  1.0000
  H   H214      1.0  0.04935  0.97640  0.35547  1.0000
  C   C273      1.0  0.10937  0.91911  0.42518  1.0000
  S   S46       1.0  0.99738  0.50425  0.15309  1.0000
  C   C274      1.0  0.00977  0.51872  0.28545  1.0000
  P   P10       1.0  0.00670  0.56674  0.28449  1.0000
  C   C275      1.0  0.26489  0.52781  0.39857  1.0000
  C   C276      1.0  0.20740  0.55273  0.41154  1.0000
  C   C277      1.0  0.04554  0.58179  0.29144  1.0000
  H   H215      1.0  0.19487  0.59986  0.43297  1.0000
  H   H216      1.0  0.11034  0.86266  0.35905  1.0000
  H   H217      1.0  0.24817  0.57869  0.29930  1.0000
  C   C278      1.0  0.24841  0.97017  0.40182  1.0000
  C   C279      1.0  0.30809  0.95767  0.40183  1.0000
  C   C280      1.0  0.26675  0.91783  0.38666  1.0000
  C   C281      1.0  0.22918  0.88193  0.27312  1.0000
  C   C282      1.0  0.19249  0.49705  0.25698  1.0000
  H   H218      1.0  0.16184  0.96129  0.42738  1.0000
  C   C283      1.0  0.22044  0.85555  0.29343  1.0000
  H   H219      1.0  0.12590  0.91381  0.46888  1.0000
  C   C284      1.0  0.23314  0.95748  0.38310  1.0000
  C   C285      1.0  0.25889  0.52543  0.30831  1.0000
  H   H220      1.0  0.22309  0.91595  0.35059  1.0000
  S   S47       1.0  0.10714  0.52858  0.30563  1.0000
  H   H221      1.0  0.27414  0.57775  0.48189  1.0000
  C   C286      1.0  0.16180  0.77979  0.44051  1.0000
  C   C287      1.0  0.28546  0.95225  0.46555  1.0000
  C   C288      1.0  0.23475  0.92516  0.36587  1.0000
  H   H222      1.0  0.22278  0.85520  0.31992  1.0000
  H   H223      1.0  0.08268  0.98293  0.37471  1.0000
  H   H224      1.0  0.26053  0.60215  0.35343  1.0000
  C   C289      1.0  0.04111  0.98006  0.27100  1.0000
  C   C290      1.0  0.01636  0.56557  0.21703  1.0000
  P   P11       1.0  0.28378  0.59302  0.41195  1.0000
  C   C291      1.0  0.25104  0.63078  0.43236  1.0000
  H   H225      1.0  0.05392  0.94606  0.23378  1.0000
  C   C292      1.0  0.25312  0.61476  0.37414  1.0000
  Fe  Fe23      1.0  0.14584  0.97785  0.35828  1.0000
  C   C293      1.0  0.22547  0.88285  0.23915  1.0000
  C   C294      1.0  0.02412  0.61955  0.32351  1.0000
  H   H226      1.0  0.09498  0.91866  0.37845  1.0000
  C   C295      1.0  0.02683  0.59056  0.30182  1.0000
  H   H227      1.0  0.07573  0.59284  0.29642  1.0000
  H   H228      1.0  0.31801  0.63768  0.42683  1.0000
  C   C296      1.0  0.17633  0.88063  0.42373  1.0000
  C   C297      1.0  0.99832  0.63029  0.20294  1.0000
  C   C298      1.0  0.20744  0.56651  0.47033  1.0000
  H   H229      1.0  0.30135  0.90418  0.45380  1.0000
  C   C299      1.0  0.23337  0.64687  0.42706  1.0000
  H   H230      1.0  0.27363  0.53277  0.30240  1.0000
  H   H231      1.0  0.22404  0.89374  0.43543  1.0000
  H   H232      1.0  0.21943  0.50214  0.39767  1.0000
  H   H233      1.0  0.21173  0.65873  0.39136  1.0000
  C   C300      1.0  0.18897  0.81420  0.12812  1.0000
  C   C301      1.0  0.19984  0.78537  0.11672  1.0000
  C   C302      1.0  0.20689  0.76052  0.13937  1.0000
  C   C303      1.0  0.20306  0.76440  0.17345  1.0000
  C   C304      1.0  0.19200  0.79313  0.18511  1.0000
  C   C305      1.0  0.18510  0.81815  0.16216  1.0000
  P   P12       1.0  0.18718  0.79903  0.22908  1.0000
  C   C306      1.0  0.20424  0.83076  0.24573  1.0000
  C   C307      1.0  0.16321  0.81651  0.23325  1.0000
  C   C308      1.0  0.15969  0.84791  0.25141  1.0000
  C   C309      1.0  0.14144  0.86294  0.25208  1.0000
  C   C310      1.0  0.12652  0.84658  0.23501  1.0000
  C   C311      1.0  0.12985  0.81521  0.21704  1.0000
  C   C312      1.0  0.14815  0.80039  0.21589  1.0000
  C   C313      1.0  0.20805  0.83008  0.27979  1.0000
  C   C314      1.0  0.00922  0.98066  0.23032  1.0000
  C   C315      1.0  0.00628  0.58337  0.24238  1.0000
  H   H234      1.0  0.23862  0.90195  0.28372  1.0000
  C   C316      1.0  0.21302  0.85743  0.22545  1.0000
  C   C317      1.0  0.18922  0.75617  0.25026  1.0000
  C   C318      1.0  0.20741  0.74357  0.25850  1.0000
  C   C319      1.0  0.20934  0.70973  0.27331  1.0000
  C   C320      1.0  0.19316  0.68807  0.27984  1.0000
  C   C321      1.0  0.17505  0.70043  0.27184  1.0000
  C   C322      1.0  0.17302  0.73444  0.25747  1.0000
  H   H235      1.0  0.18353  0.83354  0.11058  1.0000
  H   H236      1.0  0.20281  0.78231  0.09032  1.0000
  H   H237      1.0  0.21533  0.73817  0.13051  1.0000
  H   H238      1.0  0.20868  0.74481  0.19043  1.0000
  H   H239      1.0  0.17675  0.84083  0.17057  1.0000
  H   H240      1.0  0.17096  0.86111  0.26492  1.0000
  C   C323      1.0  0.14188  0.72840  0.42673  1.0000
  H   H241      1.0  0.11244  0.85847  0.23558  1.0000
  H   H242      1.0  0.11827  0.80256  0.20375  1.0000
  H   H243      1.0  0.15060  0.77651  0.20125  1.0000
  H   H244      1.0  0.20100  0.81048  0.29607  1.0000
  C   C324      1.0  0.00124  0.98870  0.40797  1.0000
  C   C325      1.0  0.20939  0.88500  0.44055  1.0000
  H   H245      1.0  0.31437  0.55417  0.37596  1.0000
  H   H246      1.0  0.21013  0.85908  0.19922  1.0000
  H   H247      1.0  0.22014  0.75975  0.25312  1.0000
  H   H248      1.0  0.22338  0.70010  0.27954  1.0000
  H   H249      1.0  0.19460  0.66172  0.29116  1.0000
  H   H250      1.0  0.16247  0.68381  0.27718  1.0000
  H   H251      1.0  0.15874  0.74345  0.25245  1.0000
  C   C326      1.0  0.31368  0.58108  0.36591  1.0000
  C   C327      1.0  0.05854  0.62830  0.32649  1.0000
  C   C328      1.0  0.26560  0.95115  0.40268  1.0000
  C   C329      1.0  0.99754  0.61620  0.23528  1.0000
  C   C330      1.0  0.29983  0.60518  0.37758  1.0000
  H   H252      1.0  0.10318  0.94426  0.43317  1.0000
  C   C331      1.0  0.02534  0.96107  0.22094  1.0000
  C   C332      1.0  0.19526  0.89186  0.41745  1.0000
  C   C333      1.0  0.06590  0.51316  0.21716  1.0000
  H   H253      1.0  0.17480  0.54148  0.27079  1.0000
  H   H254      1.0  0.31270  0.67747  0.32892  1.0000
  H   H255      1.0  0.27970  0.90223  0.38769  1.0000
  H   H256      1.0  0.99684  0.98094  0.21455  1.0000
  C   C334      1.0  0.99407  0.97942  0.34047  1.0000
  C   C335      1.0  0.31292  0.65051  0.33916  1.0000
  C   C336      1.0  0.29955  0.64004  0.36399  1.0000
  H   H257      1.0  0.02364  0.54075  0.22215  1.0000
  C   C337      1.0  0.15997  0.74464  0.42879  1.0000
  S   S48       1.0  0.05153  0.50580  0.18125  1.0000
  H   H258      1.0  0.13884  0.88746  0.26570  1.0000
  H   H259      1.0  0.25674  0.63117  0.45707  1.0000
  C   C338      1.0  0.10480  0.90479  0.39432  1.0000
  H   H260      1.0  0.23236  0.96608  0.30104  1.0000
  C   C339      1.0  0.08062  0.53955  0.21558  1.0000
  H   H261      1.0  0.07084  0.64268  0.33606  1.0000
  C   C340      1.0  0.18568  0.85502  0.47626  1.0000
  H   H262      1.0  0.08255  0.55558  0.19319  1.0000
  C   C341      1.0  0.30839  0.95387  0.36713  1.0000
  H   H263      1.0  0.14590  0.50375  0.28246  1.0000
  C   C342      1.0  0.00874  0.49696  0.99939  1.0000
  H   H264      1.0  0.10747  0.56333  0.44461  1.0000
  H   H265      1.0  0.04798  0.56066  0.27348  1.0000
  H   H266      1.0  0.17251  0.73035  0.42012  1.0000
  H   H267      1.0  0.29569  0.95883  0.35297  1.0000
  C   C343      1.0  0.06132  0.60023  0.30412  1.0000
  C   C344      1.0  0.21645  0.52035  0.41795  1.0000
  C   C345      1.0  0.32528  0.94465  0.35015  1.0000
  H   H268      1.0  0.32173  0.53470  0.23797  1.0000
  C   C346      1.0  0.20274  0.57559  0.43776  1.0000
  H   H269      1.0  0.23205  0.90365  0.22351  1.0000
  P   P13       1.0  0.14723  0.84610  0.46114  1.0000
  C   C347      1.0  0.13101  0.86981  0.43474  1.0000
  H   H270      1.0  0.13371  0.83234  0.39381  1.0000
  C   C348      1.0  0.08989  0.98674  0.20281  1.0000
  H   H271      1.0  0.20356  0.55969  0.38635  1.0000
  C   C349      1.0  0.29452  0.52359  0.42825  1.0000
  C   C350      1.0  0.04125  0.96068  0.24134  1.0000
  C   C351      1.0  0.00830  0.61222  0.17774  1.0000
  H   H272      1.0  0.22026  0.97323  0.38105  1.0000
  C   C352      1.0  0.20460  0.86647  0.46997  1.0000
  H   H273      1.0  0.17625  0.95924  0.48304  1.0000
  C   C353      1.0  0.29409  0.91942  0.47303  1.0000
  H   H274      1.0  0.14046  0.70162  0.41645  1.0000
  C   C354      1.0  0.26142  0.98756  0.30192  1.0000
  H   H275      1.0  0.07186  0.98857  0.10732  1.0000
  H   H276      1.0  0.20515  0.51381  0.25252  1.0000
  C   C355      1.0  0.06368  0.49280  0.24646  1.0000
  C   C356      1.0  0.31967  0.63878  0.47977  1.0000
  C   C357      1.0  0.14145  0.50936  0.45806  1.0000
  H   H277      1.0  0.05381  0.97982  0.28583  1.0000
  C   C358      1.0  0.22041  0.50716  0.32327  1.0000
  C   C359      1.0  0.02386  0.50293  0.30494  1.0000
  H   H278      1.0  0.08604  0.51044  0.45479  1.0000
  C   C360      1.0  0.07625  0.49819  0.27320  1.0000
  H   H279      1.0  0.20564  0.49971  0.32889  1.0000
  C   C361      1.0  0.99692  0.49654  0.26844  1.0000
  C   C362      1.0  0.32522  0.95397  0.41908  1.0000
  C   C363      1.0  0.24121  0.98982  0.30403  1.0000
  Fe  Fe24      1.0  0.18134  0.98852  0.31291  1.0000
  Fe  Fe25      1.0  0.31358  0.96405  0.62565  1.0000
  C   C364      1.0  0.11738  0.69476  0.81475  1.0000
  S   S49       1.0  0.99911  0.83687  0.83367  1.0000
  Fe  Fe26      1.0  0.30824  0.56904  0.64637  1.0000
  S   S50       1.0  0.27609  0.57062  0.65989  1.0000
  H   H280      1.0  0.29110  0.87796  0.61450  1.0000
  H   H281      1.0  0.17725  0.54813  0.61334  1.0000
  Fe  Fe27      1.0  0.01771  0.96711  0.80099  1.0000
  C   C365      1.0  0.27356  0.53252  0.56450  1.0000
  S   S51       1.0  0.01339  0.93641  0.84942  1.0000
  H   H282      1.0  0.99798  0.70496  0.84896  1.0000
  S   S52       1.0  0.01550  0.58858  0.81930  1.0000
  H   H283      1.0  0.32325  0.70232  0.65221  1.0000
  S   S53       1.0  0.32296  0.92103  0.58993  1.0000
  Fe  Fe28      1.0  0.01179  0.54867  0.77775  1.0000
  C   C366      1.0  0.32368  0.79646  0.73120  1.0000
  S   S54       1.0  0.00146  0.92589  0.77133  1.0000
  C   C367      1.0  0.12473  0.83939  0.55640  1.0000
  C   C368      1.0  0.08495  0.68304  0.83581  1.0000
  H   H284      1.0  0.24065  0.95059  0.71474  1.0000
  H   H285      1.0  0.10196  0.59226  0.54729  1.0000
  H   H286      1.0  0.30151  0.51634  0.54724  1.0000
  C   C369      1.0  0.14122  0.85509  0.50426  1.0000
  C   C370      1.0  0.03447  0.60536  0.59265  1.0000
  C   C371      1.0  0.12982  0.83105  0.52348  1.0000
  C   C372      1.0  0.19407  0.59454  0.59816  1.0000
  C   C373      1.0  0.22899  0.94514  0.69813  1.0000
  H   H287      1.0  0.00987  0.66954  0.91934  1.0000
  H   H288      1.0  0.17125  0.81033  0.65916  1.0000
  C   C374      1.0  0.06184  0.49722  0.69951  1.0000
  C   C375      1.0  0.07120  0.52271  0.75174  1.0000
  C   C376      1.0  0.08606  0.55855  0.63853  1.0000
  Fe  Fe29      1.0  0.99523  0.89711  0.82026  1.0000
  H   H289      1.0  0.06759  0.53605  0.77481  1.0000
  H   H290      1.0  0.18209  0.96450  0.68834  1.0000
  H   H291      1.0  0.29735  0.76994  0.74685  1.0000
  H   H292      1.0  0.20283  0.58409  0.49008  1.0000
  H   H293      1.0  0.22755  0.59627  0.53543  1.0000
  C   C377      1.0  0.17698  0.82257  0.63644  1.0000
  C   C378      1.0  0.25793  0.53795  0.65134  1.0000
  C   C379      1.0  0.23852  0.54699  0.65588  1.0000
  C   C380      1.0  0.22370  0.52162  0.65032  1.0000
  H   H294      1.0  0.23493  0.57376  0.66397  1.0000
  H   H295      1.0  0.20889  0.52893  0.65411  1.0000
  C   C381      1.0  0.19600  0.95303  0.68315  1.0000
  C   C382      1.0  0.23336  0.92597  0.51510  1.0000
  C   C383      1.0  0.27643  0.82725  0.62115  1.0000
  C   C384      1.0  0.18789  0.55882  0.59581  1.0000
  C   C385      1.0  0.13099  0.87170  0.57034  1.0000
  H   H296      1.0  0.12469  0.80608  0.51317  1.0000
  H   H297      1.0  0.18222  0.84021  0.49886  1.0000
  C   C386      1.0  0.01300  0.50447  0.96534  1.0000
  H   H298      1.0  0.00422  0.59844  0.58501  1.0000
  H   H299      1.0  0.01449  0.64827  0.74298  1.0000
  C   C387      1.0  0.14944  0.51084  0.52610  1.0000
  C   C388      1.0  0.23273  0.90607  0.54475  1.0000
  C   C389      1.0  0.22286  0.91907  0.57296  1.0000
  C   C390      1.0  0.21344  0.95202  0.57079  1.0000
  P   P14       1.0  0.22090  0.89180  0.61030  1.0000
  C   C391      1.0  0.20031  0.86204  0.60827  1.0000
  C   C392      1.0  0.24256  0.86610  0.61394  1.0000
  C   C393      1.0  0.24177  0.82880  0.61971  1.0000
  C   C394      1.0  0.25867  0.80950  0.62319  1.0000
  C   C395      1.0  0.26050  0.88355  0.61123  1.0000
  C   C396      1.0  0.19290  0.84572  0.63753  1.0000
  H   H300      1.0  0.06166  0.73971  0.88044  1.0000
  C   C397      1.0  0.14759  0.88731  0.51865  1.0000
  C   C398      1.0  0.19158  0.85483  0.57791  1.0000
  C   C399      1.0  0.21744  0.91939  0.64680  1.0000
  C   C400      1.0  0.19923  0.93335  0.65413  1.0000
  H   H301      1.0  0.03308  0.63223  0.60253  1.0000
  C   C401      1.0  0.29507  0.60560  0.51076  1.0000
  H   H302      1.0  0.06172  0.61092  0.85410  1.0000
  H   H303      1.0  0.17041  0.50545  0.70409  1.0000
  C   C402      1.0  0.27977  0.50373  0.51191  1.0000
  C   C403      1.0  0.26029  0.50545  0.50451  1.0000
  H   H304      1.0  0.15601  0.79759  0.60531  1.0000
  H   H305      1.0  0.23991  0.88051  0.54562  1.0000
  C   C404      1.0  0.31155  0.62736  0.51014  1.0000
  H   H306      1.0  0.22823  0.81445  0.62171  1.0000
  H   H307      1.0  0.26146  0.91233  0.60697  1.0000
  H   H308      1.0  0.19943  0.85099  0.66122  1.0000
  H   H309      1.0  0.19683  0.86740  0.55507  1.0000
  H   H310      1.0  0.15621  0.90654  0.50433  1.0000
  C   C405      1.0  0.29389  0.90644  0.50576  1.0000
  H   H311      1.0  0.00745  0.53729  0.56141  1.0000
  C   C406      1.0  0.25657  0.52359  0.73111  1.0000
  H   H312      1.0  0.24657  0.91569  0.66439  1.0000
  C   C407      1.0  0.99730  0.50945  0.65288  1.0000
  C   C408      1.0  0.16841  0.81539  0.60613  1.0000
  C   C409      1.0  0.21625  0.58575  0.55183  1.0000
  H   H313      1.0  0.15257  0.51163  0.55226  1.0000
  H   H314      1.0  0.19113  0.50860  0.57087  1.0000
  C   C410      1.0  0.09758  0.69462  0.81014  1.0000
  P   P15       1.0  0.05946  0.68456  0.82973  1.0000
  C   C411      1.0  0.05302  0.66130  0.79226  1.0000
  C   C412      1.0  0.04666  0.66058  0.86273  1.0000
  P   P16       1.0  0.07756  0.53385  0.57523  1.0000
  C   C413      1.0  0.24718  0.52051  0.52737  1.0000
  H   H315      1.0  0.15120  0.50066  0.75646  1.0000
  H   H316      1.0  0.01165  0.97735  0.94049  1.0000
  H   H317      1.0  0.24439  0.54343  0.57691  1.0000
  C   C414      1.0  0.03456  0.66505  0.77981  1.0000
  C   C415      1.0  0.02891  0.64559  0.75201  1.0000
  C   C416      1.0  0.04151  0.62156  0.73688  1.0000
  C   C417      1.0  0.05981  0.61717  0.74942  1.0000
  C   C418      1.0  0.06554  0.63673  0.77714  1.0000
  C   C419      1.0  0.05366  0.73171  0.82932  1.0000
  C   C420      1.0  0.05643  0.75217  0.85808  1.0000
  C   C421      1.0  0.05221  0.78877  0.85831  1.0000
  C   C422      1.0  0.04549  0.80532  0.82971  1.0000
  C   C423      1.0  0.04308  0.78538  0.80080  1.0000
  C   C424      1.0  0.04732  0.74878  0.80043  1.0000
  C   C425      1.0  0.02001  0.55185  0.56959  1.0000
  H   H318      1.0  0.12779  0.57584  0.67770  1.0000
  H   H319      1.0  0.31088  0.70879  0.74298  1.0000
  C   C426      1.0  0.09341  0.54962  0.60689  1.0000
  H   H320      1.0  0.09208  0.70360  0.78657  1.0000
  C   C427      1.0  0.21087  0.95895  0.70511  1.0000
  C   C428      1.0  0.09843  0.56874  0.66370  1.0000
  H   H321      1.0  0.24117  0.91598  0.49357  1.0000
  H   H322      1.0  0.02796  0.70433  0.87652  1.0000
  H   H323      1.0  0.02435  0.68240  0.79211  1.0000
  H   H324      1.0  0.03923  0.50935  0.55677  1.0000
  C   C429      1.0  0.01820  0.58635  0.58269  1.0000
  H   H325      1.0  0.06931  0.59771  0.73821  1.0000
  H   H326      1.0  0.07948  0.63174  0.78720  1.0000
  C   C430      1.0  0.02150  0.65714  0.90553  1.0000
  H   H327      1.0  0.07085  0.55640  0.64426  1.0000
  C   C431      1.0  0.02580  0.62117  0.91152  1.0000
  C   C432      1.0  0.99867  0.76279  0.84137  1.0000
  H   H328      1.0  0.04555  0.73420  0.77756  1.0000
  H   H329      1.0  0.30124  0.88186  0.51173  1.0000
  H   H330      1.0  0.14000  0.68402  0.84879  1.0000
  P   P17       1.0  0.22168  0.52066  0.51941  1.0000
  C   C433      1.0  0.11335  0.54957  0.60128  1.0000
  C   C434      1.0  0.03186  0.67681  0.88121  1.0000
  H   H331      1.0  0.28955  0.81246  0.62440  1.0000
  C   C435      1.0  0.09559  0.49641  0.71422  1.0000
  C   C436      1.0  0.26233  0.50313  0.64111  1.0000
  H   H332      1.0  0.11943  0.54055  0.57779  1.0000
  C   C437      1.0  0.08199  0.52107  0.50713  1.0000
  C   C438      1.0  0.24080  0.50019  0.73491  1.0000
  H   H333      1.0  0.12685  0.87845  0.59568  1.0000
  Fe  Fe30      1.0  0.99590  0.55179  0.85081  1.0000
  H   H334      1.0  0.10150  0.52071  0.76145  1.0000
  C   C439      1.0  0.19584  0.53644  0.57153  1.0000
  C   C440      1.0  0.23232  0.92554  0.66910  1.0000
  H   H335      1.0  0.11777  0.66500  0.89488  1.0000
  H   H336      1.0  0.27875  0.54301  0.58774  1.0000
  H   H337      1.0  0.15929  0.56525  0.51649  1.0000
  C   C441      1.0  0.05438  0.55459  0.57795  1.0000
  H   H338      1.0  0.25441  0.55207  0.72718  1.0000
  H   H339      1.0  0.28889  0.59670  0.53439  1.0000
  H   H340      1.0  0.00405  0.76837  0.86581  1.0000
  C   C442      1.0  0.15328  0.54117  0.50575  1.0000
  C   C443      1.0  0.11822  0.56945  0.65771  1.0000
  H   H341      1.0  0.09272  0.57440  0.68837  1.0000
  H   H342      1.0  0.01749  0.60558  0.92980  1.0000
  C   C444      1.0  0.27732  0.86423  0.61529  1.0000
  H   H343      1.0  0.25807  0.78081  0.62784  1.0000
  H   H344      1.0  0.21328  0.63553  0.57833  1.0000
  H   H345      1.0  0.12706  0.70355  0.79477  1.0000
  S   S55       1.0  0.31757  0.58641  0.59477  1.0000
  C   C445      1.0  0.17575  0.83140  0.57691  1.0000
  C   C446      1.0  0.04048  0.60484  0.89322  1.0000
  C   C447      1.0  0.99546  0.72670  0.83178  1.0000
  H   H346      1.0  0.04181  0.83354  0.83006  1.0000
  C   C448      1.0  0.12466  0.68384  0.84520  1.0000
  C   C449      1.0  0.99528  0.49600  0.68531  1.0000
  C   C450      1.0  0.20825  0.60801  0.57616  1.0000
  C   C451      1.0  0.28462  0.92560  0.53098  1.0000
  H   H347      1.0  0.03755  0.79828  0.77887  1.0000
  H   H348      1.0  0.18750  0.92925  0.63735  1.0000
  H   H349      1.0  0.18808  0.61158  0.61736  1.0000
  C   C452      1.0  0.99999  0.52264  0.94508  1.0000
  C   C453      1.0  0.11214  0.67306  0.87114  1.0000
  C   C454      1.0  0.31220  0.76650  0.73926  1.0000
  C   C455      1.0  0.05081  0.62436  0.86879  1.0000
  C   C456      1.0  0.21007  0.54980  0.54925  1.0000
  C   C457      1.0  0.05253  0.58972  0.58996  1.0000
  H   H350      1.0  0.03686  0.60543  0.71615  1.0000
  C   C458      1.0  0.05672  0.51477  0.72933  1.0000
  C   C459      1.0  0.03804  0.53605  0.56709  1.0000
  C   C460      1.0  0.09234  0.67292  0.86661  1.0000
  H   H351      1.0  0.16897  0.82594  0.55356  1.0000
  S   S56       1.0  0.32522  0.93420  0.66946  1.0000
  S   S57       1.0  0.99365  0.51090  0.80967  1.0000
  S   S58       1.0  0.00653  0.53196  0.90218  1.0000
  H   H352      1.0  0.28473  0.91600  0.55644  1.0000
  H   H353      1.0  0.14720  0.92090  0.56207  1.0000
  S   S59       1.0  0.03226  0.52744  0.73620  1.0000
  H   H354      1.0  0.08291  0.66516  0.88726  1.0000
  C   C461      1.0  0.12566  0.56004  0.62647  1.0000
  H   H355      1.0  0.31814  0.63524  0.53321  1.0000
  H   H356      1.0  0.05394  0.80434  0.88072  1.0000
  C   C462      1.0  0.14246  0.89559  0.55147  1.0000
  S   S60       1.0  0.28302  0.98042  0.61225  1.0000
  C   C463      1.0  0.09047  0.51392  0.74406  1.0000
  H   H357      1.0  0.27716  0.49559  0.63777  1.0000
  H   H358      1.0  0.31481  0.76436  0.66876  1.0000
  C   C464      1.0  0.21452  0.97223  0.54135  1.0000
  H   H359      1.0  0.06502  0.60499  0.59741  1.0000
  H   H360      1.0  0.11571  0.82104  0.57103  1.0000
  C   C465      1.0  0.27529  0.95741  0.52347  1.0000
  H   H361      1.0  0.20529  0.96245  0.59170  1.0000
  H   H362      1.0  0.04335  0.57661  0.89730  1.0000
  C   C466      1.0  0.07492  0.98417  0.70181  1.0000
  C   C467      1.0  0.08682  0.54346  0.53372  1.0000
  C   C468      1.0  0.09841  0.57404  0.52745  1.0000
  C   C469      1.0  0.06122  0.98072  0.72817  1.0000
  H   H363      1.0  0.14101  0.55963  0.62212  1.0000
  C   C470      1.0  0.25403  0.53337  0.55779  1.0000
  C   C471      1.0  0.22433  0.95913  0.51344  1.0000
  C   C472      1.0  0.27515  0.51024  0.73069  1.0000
  H   H364      1.0  0.22662  0.51130  0.73448  1.0000
  H   H365      1.0  0.07329  0.96807  0.67975  1.0000
  H   H366      1.0  0.04924  0.96217  0.72621  1.0000
  H   H367      1.0  0.07275  0.49777  0.51117  1.0000
  H   H368      1.0  0.20850  0.97536  0.72693  1.0000
  H   H369      1.0  0.28727  0.52842  0.72642  1.0000
  C   C473      1.0  0.27550  0.97058  0.49083  1.0000
  H   H370      1.0  0.26784  0.97169  0.54314  1.0000
  H   H371      1.0  0.31774  0.82318  0.73222  1.0000
  C   C474      1.0  0.28641  0.51754  0.54169  1.0000
  C   C475      1.0  0.99484  0.79172  0.81981  1.0000
  H   H372      1.0  0.22486  0.97472  0.49060  1.0000
  H   H373      1.0  0.01032  0.50444  0.63861  1.0000
  H   H374      1.0  0.02655  0.49607  0.95460  1.0000
  C   C476      1.0  0.31980  0.73211  0.73696  1.0000
  C   C477      1.0  0.10581  0.58107  0.49540  1.0000
  C   C478      1.0  0.32464  0.76039  0.64806  1.0000
  H   H375      1.0  0.11539  0.60385  0.49077  1.0000
  C   C479      1.0  0.17611  0.49145  0.72530  1.0000
  H   H376      1.0  0.05261  0.49117  0.62028  1.0000
  H   H377      1.0  0.28986  0.49141  0.49486  1.0000
  H   H378      1.0  0.05081  0.49078  0.68205  1.0000
  S   S61       1.0  0.64831  0.99209  0.40220  1.0000
  H   H379      1.0  0.38014  0.25406  0.28793  1.0000
  P   P18       1.0  0.53036  0.42548  0.27568  1.0000
  C   C480      1.0  0.56837  0.42730  0.29508  1.0000
  H   H380      1.0  0.59234  0.06553  0.19925  1.0000
  Fe  Fe31      1.0  0.63809  0.06691  0.29899  1.0000
  S   S62       1.0  0.61605  0.06650  0.25689  1.0000
  S   S63       1.0  0.63168  0.08142  0.35244  1.0000
  C   C481      1.0  0.39041  0.48250  0.23745  1.0000
  H   H381      1.0  0.53249  0.02808  0.00134  1.0000
  H   H382      1.0  0.48680  0.32310  0.25133  1.0000
  C   C482      1.0  0.55974  0.38462  0.19549  1.0000
  H   H383      1.0  0.48644  0.08954  0.12021  1.0000
  Fe  Fe32      1.0  0.64390  0.45604  0.30604  1.0000
  H   H384      1.0  0.42830  0.36417  0.28765  1.0000
  S   S64       1.0  0.63621  0.40952  0.34032  1.0000
  C   C483      1.0  0.52251  0.38297  0.00499  1.0000
  Fe  Fe33      1.0  0.36820  0.05786  0.31159  1.0000
  S   S65       1.0  0.36835  0.10729  0.34417  1.0000
  S   S66       1.0  0.39724  0.03127  0.29919  1.0000
  H   H385      1.0  0.33272  0.29900  0.21212  1.0000
  C   C484      1.0  0.52905  0.11146  0.32374  1.0000
  H   H386      1.0  0.44617  0.06257  0.26422  1.0000
  H   H387      1.0  0.55505  0.37058  0.24689  1.0000
  S   S67       1.0  0.34217  0.18357  0.29181  1.0000
  S   S68       1.0  0.34705  0.02808  0.34561  1.0000
  C   C485      1.0  0.33540  0.29126  0.30616  1.0000
  Fe  Fe34      1.0  0.33471  0.39635  0.33885  1.0000
  H   H388      1.0  0.54077  0.45690  0.15669  1.0000
  S   S69       1.0  0.33852  0.33909  0.35905  1.0000
  Fe  Fe35      1.0  0.34678  0.45756  0.29102  1.0000
  C   C486      1.0  0.57953  0.40749  0.34857  1.0000
  S   S70       1.0  0.35902  0.43738  0.33861  1.0000
  C   C487      1.0  0.56981  0.02574  0.20751  1.0000
  C   C488      1.0  0.34561  0.23155  0.34458  1.0000
  C   C489      1.0  0.34487  0.26619  0.35863  1.0000
  C   C490      1.0  0.33981  0.29630  0.33955  1.0000
  C   C491      1.0  0.34311  0.31902  0.21973  1.0000
  H   H389      1.0  0.34984  0.20887  0.35947  1.0000
  H   H390      1.0  0.34828  0.26969  0.38451  1.0000
  C   C492      1.0  0.45483  0.16076  0.29212  1.0000
  H   H391      1.0  0.42659  0.38892  0.16645  1.0000
  H   H392      1.0  0.64950  0.00099  0.23607  1.0000
  Fe  Fe36      1.0  0.65264  0.03832  0.36547  1.0000
  H   H393      1.0  0.62476  0.19344  0.22681  1.0000
  Fe  Fe37      1.0  0.64987  0.44242  0.38063  1.0000
  H   H394      1.0  0.42410  0.16231  0.29964  1.0000
  C   C493      1.0  0.41456  0.35041  0.24150  1.0000
  H   H395      1.0  0.37991  0.39122  0.24764  1.0000
  H   H396      1.0  0.49583  0.46127  0.25313  1.0000
  H   H397      1.0  0.41880  0.28500  0.31112  1.0000
  C   C494      1.0  0.58331  0.42209  0.31700  1.0000
  C   C495      1.0  0.44045  0.40057  0.21239  1.0000
  C   C496      1.0  0.41040  0.01604  0.26329  1.0000
  H   H398      1.0  0.32581  0.36388  0.20574  1.0000
  C   C497      1.0  0.48418  0.02991  0.27458  1.0000
  H   H399      1.0  0.58215  0.28549  0.42102  1.0000
  C   C498      1.0  0.51020  0.39541  0.28391  1.0000
  C   C499      1.0  0.46761  0.10354  0.27397  1.0000
  C   C500      1.0  0.48820  0.34629  0.99291  1.0000
  C   C501      1.0  0.49752  0.40214  0.31074  1.0000
  C   C502      1.0  0.64068  0.34809  0.24970  1.0000
  C   C503      1.0  0.39061  0.24699  0.26878  1.0000
  Fe  Fe38      1.0  0.34387  0.12650  0.31381  1.0000
  C   C504      1.0  0.36036  0.30828  0.23339  1.0000
  C   C505      1.0  0.48997  0.34482  0.26824  1.0000
  C   C506      1.0  0.55180  0.38950  0.22736  1.0000
  C   C507      1.0  0.54570  0.40339  0.33634  1.0000
  H   H400      1.0  0.51539  0.36137  0.24115  1.0000
  H   H401      1.0  0.46485  0.33484  0.29931  1.0000
  H   H402      1.0  0.39183  0.03789  0.22666  1.0000
  C   C508      1.0  0.59518  0.04014  0.24717  1.0000
  C   C509      1.0  0.43325  0.11076  0.28207  1.0000
  H   H403      1.0  0.53125  0.39652  0.34455  1.0000
  C   C510      1.0  0.50623  0.36665  0.26257  1.0000
  H   H404      1.0  0.52710  0.46613  0.21271  1.0000
  H   H405      1.0  0.47152  0.38582  0.33695  1.0000
  C   C511      1.0  0.58632  0.04569  0.21642  1.0000
  H   H406      1.0  0.62951  0.14964  0.27233  1.0000
  S   S71       1.0  0.36522  0.47506  0.24509  1.0000
  C   C512      1.0  0.34110  0.22646  0.31124  1.0000
  H   H407      1.0  0.50939  0.12641  0.15227  1.0000
  C   C513      1.0  0.34192  0.47586  0.46031  1.0000
  C   C514      1.0  0.40951  0.30411  0.32335  1.0000
  H   H408      1.0  0.46525  0.03992  0.21046  1.0000
  H   H409      1.0  0.34159  0.45237  0.44462  1.0000
  H   H410      1.0  0.49168  0.27222  0.99241  1.0000
  C   C515      1.0  0.41432  0.35759  0.20719  1.0000
  H   H411      1.0  0.37512  0.36586  0.30803  1.0000
  H   H412      1.0  0.36398  0.01671  0.42294  1.0000
  C   C516      1.0  0.62038  0.33147  0.38732  1.0000
  C   C517      1.0  0.60720  0.31868  0.41140  1.0000
  C   C518      1.0  0.59215  0.29594  0.40223  1.0000
  C   C519      1.0  0.59011  0.28644  0.36889  1.0000
  C   C520      1.0  0.60306  0.29990  0.34442  1.0000
  C   C521      1.0  0.61848  0.32177  0.35402  1.0000
  P   P19       1.0  0.60013  0.28826  0.30128  1.0000
  C   C522      1.0  0.61058  0.24508  0.29254  1.0000
  C   C523      1.0  0.57479  0.28711  0.29275  1.0000
  C   C524      1.0  0.56704  0.26113  0.27155  1.0000
  C   C525      1.0  0.54744  0.26068  0.26507  1.0000
  C   C526      1.0  0.53542  0.28609  0.27970  1.0000
  C   C527      1.0  0.54299  0.31202  0.30082  1.0000
  C   C528      1.0  0.56258  0.31256  0.30732  1.0000
  C   C529      1.0  0.61386  0.22040  0.31827  1.0000
  C   C530      1.0  0.62068  0.18614  0.31092  1.0000
  C   C531      1.0  0.62440  0.17634  0.27796  1.0000
  C   C532      1.0  0.62162  0.20103  0.25230  1.0000
  C   C533      1.0  0.61478  0.23531  0.25951  1.0000
  C   C534      1.0  0.61167  0.32255  0.27548  1.0000
  C   C535      1.0  0.60150  0.35257  0.26467  1.0000
  C   C536      1.0  0.61085  0.37995  0.24640  1.0000
  C   C537      1.0  0.63046  0.37787  0.23916  1.0000
  H   H413      1.0  0.52707  0.06383  0.23841  1.0000
  C   C538      1.0  0.63132  0.32046  0.26766  1.0000
  C   C539      1.0  0.41008  0.30744  0.35791  1.0000
  S   S72       1.0  0.34491  0.07878  0.27894  1.0000
  C   C540      1.0  0.64469  0.47879  0.45981  1.0000
  H   H414      1.0  0.57850  0.26852  0.36220  1.0000
  H   H415      1.0  0.62915  0.33128  0.33596  1.0000
  H   H416      1.0  0.57601  0.24107  0.26002  1.0000
  H   H417      1.0  0.54159  0.24046  0.24874  1.0000
  H   H418      1.0  0.52024  0.28557  0.27475  1.0000
  C   C541      1.0  0.42805  0.36838  0.26106  1.0000
  H   H419      1.0  0.56829  0.33294  0.32358  1.0000
  H   H420      1.0  0.61131  0.22737  0.34404  1.0000
  H   H421      1.0  0.62331  0.16724  0.33086  1.0000
  H   H422      1.0  0.41884  0.09937  0.28168  1.0000
  H   H423      1.0  0.45707  0.18842  0.29935  1.0000
  H   H424      1.0  0.61256  0.25402  0.23929  1.0000
  H   H425      1.0  0.58651  0.35553  0.27088  1.0000
  H   H426      1.0  0.60309  0.40350  0.23877  1.0000
  C   C542      1.0  0.37379  0.33400  0.24399  1.0000
  C   C543      1.0  0.36978  0.37065  0.24005  1.0000
  H   H427      1.0  0.63965  0.29815  0.27649  1.0000
  H   H428      1.0  0.34961  0.40950  0.22299  1.0000
  C   C544      1.0  0.48133  0.38018  0.31640  1.0000
  H   H429      1.0  0.41169  0.01743  0.17835  1.0000
  H   H430      1.0  0.38499  0.19026  0.27499  1.0000
  S   S73       1.0  0.63879  0.44188  0.43425  1.0000
  C   C545      1.0  0.50668  0.38735  0.02639  1.0000
  H   H431      1.0  0.50753  0.40586  0.04709  1.0000
  S   S74       1.0  0.65747  0.02145  0.31226  1.0000
  C   C546      1.0  0.43333  0.99283  0.20787  1.0000
  C   C547      1.0  0.44883  0.08971  0.27261  1.0000
  C   C548      1.0  0.62737  0.99660  0.20001  1.0000
  H   H432      1.0  0.56918  0.36234  0.19062  1.0000
  C   C549      1.0  0.54946  0.41766  0.30439  1.0000
  H   H433      1.0  0.33465  0.16096  0.40155  1.0000
  H   H434      1.0  0.59117  0.40386  0.36562  1.0000
  C   C550      1.0  0.48955  0.36890  0.02042  1.0000
  H   H435      1.0  0.52972  0.12346  0.34814  1.0000
  C   C551      1.0  0.44094  0.39334  0.24646  1.0000
  H   H436      1.0  0.46412  0.04715  0.14966  1.0000
  S   S75       1.0  0.34297  0.08355  0.43179  1.0000
  H   H437      1.0  0.63222  0.34875  0.39447  1.0000
  C   C552      1.0  0.39338  0.21074  0.26160  1.0000
  C   C553      1.0  0.56168  0.00002  0.22941  1.0000
  H   H438      1.0  0.40379  0.34462  0.19176  1.0000
  Fe  Fe39      1.0  0.34568  0.07851  0.37549  1.0000
  H   H439      1.0  0.65137  0.05687  0.44170  1.0000
  H   H440      1.0  0.37658  0.37182  0.36877  1.0000
  H   H441      1.0  0.55822  0.07767  0.26305  1.0000
  H   H442      1.0  0.59784  0.42997  0.30958  1.0000
  C   C554      1.0  0.42744  0.99693  0.26782  1.0000
  H   H443      1.0  0.60343  0.46648  0.20066  1.0000
  C   C555      1.0  0.42720  0.38263  0.19275  1.0000
  C   C556      1.0  0.47756  0.35150  0.29519  1.0000
  C   C557      1.0  0.35888  0.01811  0.44851  1.0000
  H   H444      1.0  0.55779  0.38755  0.38303  1.0000
  H   H445      1.0  0.55423  0.99308  0.11696  1.0000
  H   H446      1.0  0.53564  0.39794  0.00930  1.0000
  C   C558      1.0  0.54370  0.43778  0.17632  1.0000
  C   C559      1.0  0.40485  0.02329  0.23074  1.0000
  H   H447      1.0  0.55978  0.10764  0.31763  1.0000
  P   P20       1.0  0.39659  0.32057  0.26016  1.0000
  C   C560      1.0  0.34818  0.04756  0.45903  1.0000
  C   C561      1.0  0.52739  0.07824  0.26174  1.0000
  C   C562      1.0  0.54512  0.08569  0.27579  1.0000
  C   C563      1.0  0.43624  0.14619  0.29210  1.0000
  C   C564      1.0  0.56071  0.39829  0.35830  1.0000
  H   H448      1.0  0.41948  0.29069  0.37214  1.0000
  C   C565      1.0  0.33922  0.35548  0.21612  1.0000
  C   C566      1.0  0.53590  0.44292  0.20825  1.0000
  C   C567      1.0  0.35261  0.38122  0.22601  1.0000
  H   H449      1.0  0.53367  0.33164  0.31225  1.0000
  H   H450      1.0  0.65421  0.24369  0.40235  1.0000
  H   H451      1.0  0.33132  0.31405  0.29127  1.0000
  C   C568      1.0  0.40086  0.27386  0.25086  1.0000
  H   H452      1.0  0.36298  0.27987  0.23569  1.0000
  H   H453      1.0  0.47716  0.37302  0.03660  1.0000
  C   C569      1.0  0.40659  0.20095  0.23676  1.0000
  C   C570      1.0  0.41704  0.22747  0.21909  1.0000
  C   C571      1.0  0.41419  0.26385  0.22604  1.0000
  C   C572      1.0  0.39690  0.32500  0.30485  1.0000
  C   C573      1.0  0.39828  0.33200  0.37422  1.0000
  C   C574      1.0  0.38598  0.35328  0.35596  1.0000
  C   C575      1.0  0.38516  0.34971  0.32142  1.0000
  H   H454      1.0  0.43184  0.99095  0.29279  1.0000
  H   H455      1.0  0.45092  0.40811  0.26164  1.0000
  H   H456      1.0  0.60884  0.32616  0.43718  1.0000
  S   S76       1.0  0.62427  0.46878  0.26162  1.0000
  H   H457      1.0  0.56330  0.03049  0.18380  1.0000
  H   H458      1.0  0.40856  0.17278  0.23104  1.0000
  H   H459      1.0  0.42718  0.21976  0.19971  1.0000
  H   H460      1.0  0.42229  0.28392  0.21189  1.0000
  H   H461      1.0  0.39842  0.33431  0.40105  1.0000
  H   H462      1.0  0.56197  0.40534  0.14531  1.0000
  C   C576      1.0  0.55569  0.40879  0.16997  1.0000
  C   C577      1.0  0.53992  0.41887  0.23404  1.0000
  C   C578      1.0  0.49973  0.10770  0.16513  1.0000
  C   C579      1.0  0.48676  0.08713  0.14705  1.0000
  C   C580      1.0  0.47422  0.06313  0.16361  1.0000
  C   C581      1.0  0.47499  0.05885  0.19809  1.0000
  C   C582      1.0  0.48817  0.07889  0.21637  1.0000
  C   C583      1.0  0.50021  0.10409  0.19976  1.0000
  H   H463      1.0  0.49999  0.42481  0.32695  1.0000
  P   P21       1.0  0.48748  0.07591  0.26110  1.0000
  H   H464      1.0  0.33257  0.25298  0.26637  1.0000
  C   C584      1.0  0.64872  0.99938  0.44552  1.0000
  H   H465      1.0  0.63783  0.39987  0.22616  1.0000
  H   H466      1.0  0.50998  0.12089  0.21344  1.0000
  H   H467      1.0  0.45004  0.42081  0.20135  1.0000
  C   C585      1.0  0.52016  0.01404  0.99173  1.0000
  C   C586      1.0  0.42391  0.48053  0.25355  1.0000
  H   H468      1.0  0.49830  0.10966  0.32395  1.0000
  C   C587      1.0  0.51136  0.47615  0.99562  1.0000
  H   H469      1.0  0.59351  0.00985  0.29285  1.0000
  H   H470      1.0  0.43435  0.47395  0.27195  1.0000
  H   H471      1.0  0.48471  0.15148  0.28219  1.0000
  Fe  Fe40      1.0  0.33800  0.47400  0.36406  1.0000
  C   C588      1.0  0.47047  0.13962  0.28278  1.0000
  H   H472      1.0  0.57160  0.43944  0.27100  1.0000
  C   C589      1.0  0.51032  0.08826  0.27821  1.0000
  C   C590      1.0  0.58705  0.01445  0.26906  1.0000
  C   C591      1.0  0.54597  0.10246  0.30667  1.0000
  C   C592      1.0  0.50412  0.48033  0.26732  1.0000
  C   C593      1.0  0.51126  0.10402  0.30976  1.0000
  C   C594      1.0  0.65056  0.03397  0.45841  1.0000
  C   C595      1.0  0.33606  0.25657  0.29216  1.0000
  C   C596      1.0  0.59516  0.48273  0.21777  1.0000
  S   S77       1.0  0.50181  0.99279  0.14684  1.0000
  H   H473      1.0  0.60445  0.03731  0.45972  1.0000
  C   C597      1.0  0.41620  0.01168  0.20333  1.0000
  C   C598      1.0  0.40419  0.47458  0.26105  1.0000
  H   H474      1.0  0.39967  0.46360  0.28498  1.0000
  C   C599      1.0  0.52165  0.47059  0.28102  1.0000
  H   H475      1.0  0.48700  0.20682  0.99958  1.0000
  C   C600      1.0  0.60206  0.48873  0.24999  1.0000
  H   H476      1.0  0.52445  0.46407  0.00369  1.0000
  H   H477      1.0  0.62781  0.02506  0.19409  1.0000
  H   H478      1.0  0.54591  0.48988  0.30890  1.0000
  H   H479      1.0  0.46486  0.04177  0.31603  1.0000
  C   C601      1.0  0.47279  0.02131  0.30289  1.0000
  C   C602      1.0  0.57036  0.99492  0.26036  1.0000
  H   H480      1.0  0.50404  0.00892  0.23761  1.0000
  C   C603      1.0  0.60042  0.00923  0.46264  1.0000
  S   S78       1.0  0.65744  0.17334  0.37385  1.0000
  C   C604      1.0  0.49481  0.00284  0.25901  1.0000
  H   H481      1.0  0.65602  0.34694  0.24498  1.0000
  C   C605      1.0  0.36353  0.99095  0.47141  1.0000
  C   C606      1.0  0.65864  0.24744  0.37660  1.0000
  Fe  Fe41      1.0  0.65777  0.11826  0.34840  1.0000
  H   H482      1.0  0.60597  0.99705  0.41106  1.0000
  Fe  Fe42      1.0  0.52101  0.04806  0.78802  1.0000
  H   H483      1.0  0.47726  0.47261  0.67750  1.0000
  S   S79       1.0  0.54713  0.04162  0.75213  1.0000
  Fe  Fe43      1.0  0.50015  0.11442  0.81823  1.0000
  S   S80       1.0  0.47475  0.08056  0.83635  1.0000
  S   S81       1.0  0.50785  0.17500  0.82284  1.0000
  Fe  Fe44      1.0  0.49673  0.04036  0.85347  1.0000
  C   C607      1.0  0.63926  0.43808  0.64141  1.0000
  Fe  Fe45      1.0  0.47640  0.05217  0.78661  1.0000
  S   S82       1.0  0.45402  0.04000  0.74619  1.0000
  S   S83       1.0  0.52199  0.07570  0.83791  1.0000
  S   S84       1.0  0.50055  0.08843  0.76797  1.0000
  Fe  Fe46      1.0  0.48616  0.39440  0.81134  1.0000
  S   S85       1.0  0.46420  0.43519  0.82798  1.0000
  S   S86       1.0  0.47498  0.33539  0.81185  1.0000
  Fe  Fe47      1.0  0.51623  0.45427  0.79473  1.0000
  C   C608      1.0  0.41715  0.40452  0.78951  1.0000
  C   C609      1.0  0.48018  0.33660  0.91405  1.0000
  C   C610      1.0  0.40251  0.42079  0.77205  1.0000
  Fe  Fe48      1.0  0.47335  0.46800  0.78308  1.0000
  C   C611      1.0  0.62056  0.34369  0.61729  1.0000
  S   S87       1.0  0.50965  0.42043  0.84101  1.0000
  S   S88       1.0  0.49394  0.42568  0.76449  1.0000
  H   H484      1.0  0.58868  0.47896  0.77511  1.0000
  C   C612      1.0  0.43670  0.34660  0.63854  1.0000
  H   H485      1.0  0.48811  0.39140  0.92674  1.0000
  C   C613      1.0  0.43150  0.38463  0.73757  1.0000
  C   C614      1.0  0.63600  0.46057  0.66885  1.0000
  H   H486      1.0  0.47203  0.14066  0.65970  1.0000
  H   H487      1.0  0.41134  0.26790  0.68658  1.0000
  C   C615      1.0  0.49885  0.00262  0.94536  1.0000
  H   H488      1.0  0.39873  0.46847  0.67046  1.0000
  C   C616      1.0  0.39695  0.00949  0.74892  1.0000
  C   C617      1.0  0.49638  0.20925  0.91625  1.0000
  C   C618      1.0  0.61274  0.10417  0.88032  1.0000
  C   C619      1.0  0.43032  0.02554  0.73527  1.0000
  C   C620      1.0  0.41838  0.28983  0.67309  1.0000
  H   H489      1.0  0.51468  0.45692  0.94499  1.0000
  H   H490      1.0  0.59128  0.04226  0.64158  1.0000
  S   S89       1.0  0.65211  0.01719  0.55796  1.0000
  H   H491      1.0  0.38647  0.35970  0.64059  1.0000
  H   H492      1.0  0.41749  0.40652  0.81634  1.0000
  C   C621      1.0  0.49815  0.21917  0.81941  1.0000
  C   C622      1.0  0.47855  0.22609  0.82314  1.0000
  C   C623      1.0  0.47180  0.26168  0.82089  1.0000
  C   C624      1.0  0.48448  0.29104  0.81506  1.0000
  C   C625      1.0  0.50406  0.28410  0.81145  1.0000
  C   C626      1.0  0.51082  0.24857  0.81390  1.0000
  H   H493      1.0  0.46862  0.20413  0.82846  1.0000
  H   H494      1.0  0.45663  0.26654  0.82401  1.0000
  H   H495      1.0  0.51398  0.30605  0.80628  1.0000
  H   H496      1.0  0.52602  0.24381  0.81118  1.0000
  C   C627      1.0  0.60743  0.06797  0.87616  1.0000
  H   H497      1.0  0.60665  0.12507  0.86524  1.0000
  C   C628      1.0  0.55433  0.32743  0.86360  1.0000
  C   C629      1.0  0.62957  0.03686  0.76993  1.0000
  C   C630      1.0  0.41383  0.32533  0.68075  1.0000
  H   H498      1.0  0.54015  0.29289  0.93882  1.0000
  C   C631      1.0  0.56532  0.12548  0.78176  1.0000
  C   C632      1.0  0.56274  0.48323  0.74746  1.0000
  C   C633      1.0  0.65825  0.43081  0.63144  1.0000
  P   P22       1.0  0.41741  0.39956  0.67479  1.0000
  C   C634      1.0  0.36081  0.43533  0.62867  1.0000
  H   H499      1.0  0.65275  0.06584  0.50278  1.0000
  H   H500      1.0  0.61293  0.01330  0.89133  1.0000
  H   H501      1.0  0.58247  0.07866  0.77680  1.0000
  C   C635      1.0  0.38811  0.15610  0.66936  1.0000
  C   C636      1.0  0.41709  0.40166  0.71973  1.0000
  H   H502      1.0  0.53600  0.35477  0.82969  1.0000
  C   C637      1.0  0.40001  0.11648  0.72422  1.0000
  C   C638      1.0  0.40667  0.15206  0.71966  1.0000
  C   C639      1.0  0.40081  0.17156  0.69175  1.0000
  P   P23       1.0  0.42398  0.17164  0.74731  1.0000
  C   C640      1.0  0.42185  0.14987  0.78756  1.0000
  C   C641      1.0  0.44792  0.16464  0.73075  1.0000
  C   C642      1.0  0.46371  0.16950  0.75126  1.0000
  C   C643      1.0  0.48233  0.16554  0.73849  1.0000
  C   C644      1.0  0.48534  0.15522  0.70550  1.0000
  C   C645      1.0  0.46970  0.14936  0.68510  1.0000
  C   C646      1.0  0.45104  0.15422  0.69757  1.0000
  C   C647      1.0  0.42977  0.11584  0.79210  1.0000
  C   C648      1.0  0.42753  0.09786  0.82256  1.0000
  C   C649      1.0  0.41787  0.11414  0.84912  1.0000
  C   C650      1.0  0.41021  0.14831  0.84505  1.0000
  C   C651      1.0  0.41209  0.16609  0.81436  1.0000
  C   C652      1.0  0.41950  0.21912  0.75244  1.0000
  C   C653      1.0  0.43466  0.24384  0.75676  1.0000
  C   C654      1.0  0.43090  0.28009  0.76263  1.0000
  C   C655      1.0  0.41203  0.29200  0.76421  1.0000
  C   C656      1.0  0.39687  0.26771  0.75973  1.0000
  C   C657      1.0  0.40056  0.23141  0.75395  1.0000
  H   H503      1.0  0.38363  0.17119  0.64786  1.0000
  H   H504      1.0  0.40462  0.10016  0.74476  1.0000
  H   H505      1.0  0.40623  0.19854  0.68708  1.0000
  H   H506      1.0  0.46165  0.17646  0.77714  1.0000
  H   H507      1.0  0.49445  0.16974  0.75446  1.0000
  H   H508      1.0  0.54967  0.16164  0.85462  1.0000
  H   H509      1.0  0.41770  0.02774  0.78450  1.0000
  H   H510      1.0  0.43918  0.14927  0.68135  1.0000
  H   H511      1.0  0.43743  0.10293  0.77185  1.0000
  H   H512      1.0  0.43339  0.07130  0.82552  1.0000
  H   H513      1.0  0.41637  0.10027  0.87284  1.0000
  H   H514      1.0  0.40274  0.16094  0.86569  1.0000
  H   H515      1.0  0.40591  0.19237  0.81182  1.0000
  H   H516      1.0  0.44941  0.23543  0.75621  1.0000
  H   H517      1.0  0.44270  0.29886  0.76650  1.0000
  H   H518      1.0  0.40915  0.32002  0.76914  1.0000
  H   H519      1.0  0.38222  0.27693  0.76123  1.0000
  H   H520      1.0  0.38862  0.21277  0.75137  1.0000
  H   H521      1.0  0.40572  0.99935  0.66618  1.0000
  H   H522      1.0  0.55170  0.99532  0.93532  1.0000
  H   H523      1.0  0.45184  0.30551  0.61163  1.0000
  C   C658      1.0  0.62997  0.05108  0.91845  1.0000
  H   H524      1.0  0.50711  0.34819  0.86581  1.0000
  C   C659      1.0  0.56909  0.02040  0.89635  1.0000
  H   H525      1.0  0.56337  0.12797  0.75521  1.0000
  H   H526      1.0  0.61666  0.39125  0.68783  1.0000
  C   C660      1.0  0.49901  0.24629  0.91197  1.0000
  P   P24       1.0  0.50092  0.31723  0.93288  1.0000
  C   C661      1.0  0.61376  0.48581  0.59012  1.0000
  H   H527      1.0  0.63944  0.05277  0.75450  1.0000
  H   H528      1.0  0.56046  0.01350  0.81365  1.0000
  H   H529      1.0  0.61209  0.34328  0.64014  1.0000
  C   C662      1.0  0.61799  0.05343  0.79401  1.0000
  C   C663      1.0  0.65032  0.00947  0.51490  1.0000
  H   H530      1.0  0.56689  0.32990  0.84736  1.0000
  C   C664      1.0  0.60413  0.43483  0.55721  1.0000
  H   H531      1.0  0.33394  0.07224  0.50076  1.0000
  C   C665      1.0  0.64245  0.34295  0.55810  1.0000
  C   C666      1.0  0.60391  0.99558  0.80930  1.0000
  C   C667      1.0  0.55759  0.14430  0.83785  1.0000
  H   H532      1.0  0.49773  0.19156  0.89499  1.0000
  C   C668      1.0  0.34190  0.04922  0.49242  1.0000
  H   H533      1.0  0.40317  0.33053  0.70007  1.0000
  C   C669      1.0  0.49292  0.25508  0.97092  1.0000
  H   H534      1.0  0.43572  0.25517  0.64245  1.0000
  C   C670      1.0  0.53693  0.34154  0.85368  1.0000
  H   H535      1.0  0.50232  0.25680  0.88725  1.0000
  H   H536      1.0  0.64542  0.09466  0.94113  1.0000
  C   C671      1.0  0.63696  0.31063  0.57366  1.0000
  Fe  Fe49      1.0  0.48827  0.46258  0.85554  1.0000
  C   C672      1.0  0.62605  0.31101  0.60325  1.0000
  C   C673      1.0  0.38956  0.44886  0.65883  1.0000
  H   H537      1.0  0.56883  0.11200  0.87703  1.0000
  C   C674      1.0  0.40250  0.41957  0.73730  1.0000
  H   H538      1.0  0.43955  0.31379  0.87330  1.0000
  C   C675      1.0  0.40823  0.00543  0.69197  1.0000
  C   C676      1.0  0.46629  0.31498  0.89886  1.0000
  C   C677      1.0  0.57626  0.09750  0.79419  1.0000
  H   H539      1.0  0.59401  0.01398  0.51458  1.0000
  H   H540      1.0  0.37161  0.10872  0.65702  1.0000
  C   C678      1.0  0.62592  0.37630  0.60169  1.0000
  S   S90       1.0  0.49162  0.00852  0.90298  1.0000
  H   H541      1.0  0.47460  0.33327  0.98793  1.0000
  C   C679      1.0  0.42310  0.35397  0.66376  1.0000
  C   C680      1.0  0.57982  0.02384  0.71634  1.0000
  H   H542      1.0  0.59342  0.44746  0.50868  1.0000
  P   P25       1.0  0.59049  0.05478  0.84519  1.0000
  C   C681      1.0  0.59888  0.45812  0.53165  1.0000
  C   C682      1.0  0.37265  0.46015  0.64443  1.0000
  C   C683      1.0  0.57813  0.09293  0.82862  1.0000
  C   C684      1.0  0.56844  0.11620  0.85039  1.0000
  C   C685      1.0  0.50590  0.47224  0.96207  1.0000
  C   C686      1.0  0.55542  0.30983  0.89428  1.0000
  H   H543      1.0  0.39148  0.43549  0.78535  1.0000
  H   H544      1.0  0.57797  0.43621  0.61699  1.0000
  C   C687      1.0  0.44120  0.31105  0.63091  1.0000
  C   C688      1.0  0.42657  0.01756  0.70180  1.0000
  H   H545      1.0  0.55181  0.43209  0.65897  1.0000
  C   C689      1.0  0.45156  0.44018  0.67603  1.0000
  H   H546      1.0  0.45911  0.41798  0.90432  1.0000
  H   H547      1.0  0.38220  0.07370  0.70548  1.0000
  C   C690      1.0  0.34083  0.47201  0.49515  1.0000
  C   C691      1.0  0.46106  0.38918  0.90286  1.0000
  C   C692      1.0  0.53917  0.30678  0.91518  1.0000
  H   H548      1.0  0.62182  0.28594  0.61536  1.0000
  H   H549      1.0  0.55778  0.40836  0.71539  1.0000
  C   C693      1.0  0.52174  0.32161  0.90565  1.0000
  C   C694      1.0  0.47753  0.37392  0.91558  1.0000
  H   H550      1.0  0.39125  0.43323  0.72448  1.0000
  C   C695      1.0  0.38134  0.12092  0.67443  1.0000
  C   C696      1.0  0.38731  0.10116  0.70180  1.0000
  C   C697      1.0  0.55894  0.00903  0.84019  1.0000
  H   H551      1.0  0.46805  0.28632  0.89660  1.0000
  H   H552      1.0  0.44400  0.36816  0.62493  1.0000
  H   H553      1.0  0.56886  0.29850  0.90180  1.0000
  H   H554      1.0  0.54708  0.16994  0.79391  1.0000
  H   H555      1.0  0.43480  0.37958  0.87729  1.0000
  C   C698      1.0  0.39324  0.00110  0.71553  1.0000
  C   C699      1.0  0.63704  0.37565  0.57210  1.0000
  C   C700      1.0  0.55605  0.14894  0.80355  1.0000
  P   P26       1.0  0.61917  0.41888  0.61954  1.0000
  C   C701      1.0  0.36583  0.39912  0.62762  1.0000
  C   C702      1.0  0.61204  0.44858  0.58642  1.0000
  H   H556      1.0  0.53337  0.35923  0.96033  1.0000
  C   C703      1.0  0.57186  0.02524  0.86189  1.0000
  H   H557      1.0  0.64064  0.44866  0.50544  1.0000
  S   S91       1.0  0.49697  0.01017  0.80433  1.0000
  H   H558      1.0  0.60570  0.01117  0.68804  1.0000
  H   H559      1.0  0.61918  0.08222  0.79730  1.0000
  H   H560      1.0  0.59016  0.38793  0.72963  1.0000
  H   H561      1.0  0.49445  0.00812  0.70045  1.0000
  C   C704      1.0  0.65130  0.03897  0.49298  1.0000
  C   C705      1.0  0.35712  0.99245  0.50476  1.0000
  C   C706      1.0  0.59929  0.41336  0.64899  1.0000
  C   C707      1.0  0.60248  0.39954  0.68096  1.0000
  C   C708      1.0  0.58752  0.39751  0.70469  1.0000
  C   C709      1.0  0.56923  0.40894  0.69665  1.0000
  C   C710      1.0  0.56588  0.42234  0.66483  1.0000
  C   C711      1.0  0.58083  0.42467  0.64108  1.0000
  H   H562      1.0  0.35667  0.38005  0.61510  1.0000
  C   C712      1.0  0.63487  0.08722  0.92299  1.0000
  H   H563      1.0  0.49980  0.15117  0.69600  1.0000
  H   H564      1.0  0.63677  0.03049  0.93301  1.0000
  C   C713      1.0  0.44994  0.33046  0.88577  1.0000
  H   H565      1.0  0.61867  0.02793  0.60370  1.0000
  H   H566      1.0  0.33969  0.44543  0.50613  1.0000
  C   C714      1.0  0.34610  0.02158  0.51511  1.0000
  H   H567      1.0  0.44294  0.37066  0.72467  1.0000
  H   H568      1.0  0.64116  0.28529  0.56279  1.0000
  H   H569      1.0  0.63032  0.14170  0.90703  1.0000
  C   C715      1.0  0.49203  0.19505  0.94781  1.0000
  C   C716      1.0  0.49032  0.21794  0.97512  1.0000
  H   H570      1.0  0.57994  0.05169  0.70853  1.0000
  H   H571      1.0  0.49002  0.16628  0.95105  1.0000
  C   C717      1.0  0.64421  0.47462  0.49458  1.0000
  C   C718      1.0  0.56527  0.01124  0.73854  1.0000
  H   H572      1.0  0.56023  0.01012  0.63618  1.0000
  C   C719      1.0  0.41527  0.02157  0.75874  1.0000
  C   C720      1.0  0.43159  0.38635  0.77226  1.0000
  C   C721      1.0  0.38274  0.38771  0.64219  1.0000
  C   C722      1.0  0.60483  0.03299  0.81348  1.0000
  C   C723      1.0  0.50401  0.34191  0.97108  1.0000
  C   C724      1.0  0.39474  0.41262  0.65794  1.0000
  C   C725      1.0  0.60487  0.01483  0.60061  1.0000
  C   C726      1.0  0.58949  0.02273  0.62203  1.0000
  C   C727      1.0  0.59435  0.00087  0.70437  1.0000
  H   H573      1.0  0.60209  0.40622  0.55400  1.0000
  H   H574      1.0  0.55267  0.48771  0.85529  1.0000
  H   H575      1.0  0.42170  0.43614  0.61026  1.0000
  C   C728      1.0  0.52061  0.33824  0.87443  1.0000
  H   H576      1.0  0.64149  0.40049  0.55974  1.0000
  S   S92       1.0  0.54830  0.46258  0.78003  1.0000
  H   H577      1.0  0.34128  0.02319  0.54079  1.0000
  H   H578      1.0  0.62157  0.46738  0.67664  1.0000
  H   H579      1.0  0.43632  0.00297  0.83578  1.0000
  H   H580      1.0  0.44307  0.37408  0.78578  1.0000
  C   C729      1.0  0.43211  0.28268  0.64826  1.0000
  C   C730      1.0  0.51458  0.02089  0.95863  1.0000
  C   C731      1.0  0.61641  0.04145  0.89495  1.0000
  C   C732      1.0  0.44731  0.36751  0.88782  1.0000
  H   H581      1.0  0.45332  0.43063  0.70116  1.0000
  C   C733      1.0  0.62632  0.11372  0.90383  1.0000
  H   H582      1.0  0.34786  0.44434  0.61699  1.0000
  H   H583      1.0  0.57825  0.03382  0.91381  1.0000
  C   C734      1.0  0.43558  0.42998  0.65758  1.0000
  C   C735      1.0  0.49720  0.26953  0.93923  1.0000
  H   H584      1.0  0.52257  0.04009  0.94328  1.0000
  C   C736      1.0  0.65137  0.47508  0.68622  1.0000
  H   H585      1.0  0.43798  0.02056  0.68328  1.0000
  C   C737      1.0  0.48915  0.48815  0.95079  1.0000
  C   C738      1.0  0.62834  0.99973  0.76554  1.0000
  C   C739      1.0  0.46532  0.46411  0.66254  1.0000
  C   C740      1.0  0.43382  0.44366  0.62515  1.0000
  C   C741      1.0  0.52118  0.36062  0.97729  1.0000
  S   S93       1.0  0.34076  0.99731  0.61789  1.0000
  C   C742      1.0  0.58261  0.48753  0.75194  1.0000
  H   H586      1.0  0.38552  0.00653  0.76742  1.0000
  S   S94       1.0  0.48152  0.48511  0.90836  1.0000
  H   H587      1.0  0.65091  0.34275  0.53513  1.0000
  C   C743      1.0  0.55393  0.99882  0.90873  1.0000
  C   C744      1.0  0.44761  0.46762  0.61174  1.0000
  H   H588      1.0  0.36882  0.48827  0.64526  1.0000
  C   C745      1.0  0.57191  0.00484  0.61872  1.0000
  C   C746      1.0  0.46334  0.47794  0.63048  1.0000
  C   C747      1.0  0.59478  0.99563  0.49391  1.0000
  H   H589      1.0  0.44597  0.47854  0.58696  1.0000
  H   H590      1.0  0.65872  0.08839  0.60623  1.0000
  H   H591      1.0  0.35526  0.94172  0.41540  1.0000
  C   C748      1.0  0.33433  0.54630  0.22553  1.0000
  S   S95       1.0  0.49508  0.92192  0.19441  1.0000
  H   H592      1.0  0.51104  0.67851  0.07804  1.0000
  Fe  Fe50      1.0  0.50729  0.95502  0.10388  1.0000
  S   S96       1.0  0.48164  0.91907  0.11662  1.0000
  C   C749      1.0  0.53972  0.61096  0.05052  1.0000
  C   C750      1.0  0.50792  0.54063  0.28860  1.0000
  H   H593      1.0  0.38181  0.64793  0.31523  1.0000
  Fe  Fe51      1.0  0.50131  0.88724  0.14964  1.0000
  S   S97       1.0  0.50620  0.82676  0.16134  1.0000
  S   S98       1.0  0.52726  0.92101  0.13435  1.0000
  Fe  Fe52      1.0  0.52045  0.54404  0.17834  1.0000
  C   C751      1.0  0.39675  0.49684  0.20651  1.0000
  S   S99       1.0  0.54446  0.53866  0.21723  1.0000
  Fe  Fe53      1.0  0.49353  0.60055  0.14705  1.0000
  S   S100      1.0  0.47365  0.55717  0.12700  1.0000
  S   S101      1.0  0.48557  0.65956  0.13507  1.0000
  Fe  Fe54      1.0  0.47641  0.52930  0.17688  1.0000
  H   H594      1.0  0.33112  0.70477  0.23632  1.0000
  Fe  Fe55      1.0  0.50072  0.52886  0.11066  1.0000
  C   C752      1.0  0.59064  0.91600  0.10602  1.0000
  S   S102      1.0  0.49456  0.57424  0.19756  1.0000
  S   S103      1.0  0.52051  0.57325  0.12867  1.0000
  H   H595      1.0  0.64575  0.94304  0.45764  1.0000
  C   C753      1.0  0.64943  0.51243  0.44604  1.0000
  H   H596      1.0  0.34350  0.57405  0.26892  1.0000
  H   H597      1.0  0.55444  0.60224  0.05019  1.0000
  H   H598      1.0  0.46240  0.97926  0.33600  1.0000
  C   C754      1.0  0.34424  0.54031  0.46664  1.0000
  H   H599      1.0  0.56431  0.60580  0.20736  1.0000
  C   C755      1.0  0.49402  0.96771  0.27150  1.0000
  H   H600      1.0  0.59618  0.51539  0.29629  1.0000
  H   H601      1.0  0.56837  0.96504  0.16626  1.0000
  C   C756      1.0  0.60823  0.80126  0.16044  1.0000
  C   C757      1.0  0.50015  0.49553  0.01880  1.0000
  H   H602      1.0  0.62051  0.68411  0.00016  1.0000
  C   C758      1.0  0.40365  0.60974  0.23200  1.0000
  C   C759      1.0  0.59868  0.83274  0.16907  1.0000
  H   H603      1.0  0.35834  0.54521  0.15100  1.0000
  C   C760      1.0  0.33845  0.53804  0.19233  1.0000
  C   C761      1.0  0.58581  0.92812  0.13811  1.0000
  H   H604      1.0  0.37961  0.56013  0.38472  1.0000
  H   H605      1.0  0.56035  0.66034  0.01048  1.0000
  C   C762      1.0  0.49969  0.78053  0.15411  1.0000
  C   C763      1.0  0.50749  0.75350  0.17425  1.0000
  C   C764      1.0  0.50331  0.71662  0.16908  1.0000
  C   C765      1.0  0.49136  0.70591  0.14333  1.0000
  C   C766      1.0  0.48351  0.73295  0.12327  1.0000
  C   C767      1.0  0.48759  0.76986  0.12857  1.0000
  H   H606      1.0  0.51680  0.76118  0.19416  1.0000
  H   H607      1.0  0.50920  0.69655  0.18527  1.0000
  H   H608      1.0  0.47417  0.72530  0.10337  1.0000
  H   H609      1.0  0.48146  0.79004  0.11275  1.0000
  C   C768      1.0  0.55709  0.65204  0.12167  1.0000
  C   C769      1.0  0.54607  0.63928  0.17834  1.0000
  H   H610      1.0  0.37889  0.53864  0.28023  1.0000
  C   C770      1.0  0.57383  0.52542  0.26090  1.0000
  H   H611      1.0  0.55644  0.72605  0.13541  1.0000
  H   H612      1.0  0.48628  0.63767  0.05711  1.0000
  H   H613      1.0  0.56585  0.54246  0.27769  1.0000
  C   C771      1.0  0.53220  0.49628  0.29862  1.0000
  C   C772      1.0  0.59084  0.93642  0.47012  1.0000
  H   H614      1.0  0.50283  0.56788  0.29078  1.0000
  H   H615      1.0  0.60123  0.77538  0.16459  1.0000
  C   C773      1.0  0.57268  0.95606  0.14175  1.0000
  C   C774      1.0  0.60126  0.98653  0.43517  1.0000
  C   C775      1.0  0.60765  0.86642  0.16389  1.0000
  C   C776      1.0  0.50631  0.59775  0.04040  1.0000
  H   H616      1.0  0.58788  0.59680  0.16141  1.0000
  H   H617      1.0  0.62492  0.89560  0.22395  1.0000
  H   H618      1.0  0.53039  0.67029  0.14330  1.0000
  C   C777      1.0  0.56234  0.61881  0.18352  1.0000
  C   C778      1.0  0.53575  0.73529  0.05991  1.0000
  H   H619      1.0  0.39898  0.67988  0.26100  1.0000
  H   H620      1.0  0.45192  0.97103  0.24448  1.0000
  C   C779      1.0  0.54905  0.73814  0.11494  1.0000
  H   H621      1.0  0.53529  0.64172  0.19801  1.0000
  H   H622      1.0  0.58436  0.83050  0.17980  1.0000
  C   C780      1.0  0.54542  0.88221  0.24841  1.0000
  C   C781      1.0  0.54374  0.87473  0.21466  1.0000
  C   C782      1.0  0.60763  0.68180  0.01568  1.0000
  S   S104      1.0  0.54067  0.97395  0.21992  1.0000
  H   H623      1.0  0.42097  0.51415  0.17521  1.0000
  H   H624      1.0  0.41445  0.56913  0.26536  1.0000
  C   C783      1.0  0.35871  0.72751  0.24775  1.0000
  C   C784      1.0  0.62678  0.80313  0.14660  1.0000
  C   C785      1.0  0.57759  0.90559  0.23786  1.0000
  P   P27       1.0  0.59561  0.90752  0.17470  1.0000
  C   C786      1.0  0.53477  0.64442  0.06389  1.0000
  H   H625      1.0  0.38050  0.58405  0.18160  1.0000
  H   H626      1.0  0.44704  0.57021  0.24063  1.0000
  C   C787      1.0  0.54510  0.71845  0.08617  1.0000
  C   C788      1.0  0.34207  0.94443  0.40203  1.0000
  H   H627      1.0  0.52196  0.78341  0.04314  1.0000
  C   C789      1.0  0.37924  0.54550  0.33305  1.0000
  Fe  Fe56      1.0  0.52027  0.95714  0.17769  1.0000
  C   C790      1.0  0.51541  0.65389  0.06607  1.0000
  H   H628      1.0  0.54546  0.78852  0.14050  1.0000
  C   C791      1.0  0.48329  0.51105  0.00760  1.0000
  C   C792      1.0  0.59167  0.68699  0.06955  1.0000
  C   C793      1.0  0.38002  0.59494  0.29323  1.0000
  H   H629      1.0  0.56414  0.97557  0.27779  1.0000
  H   H630      1.0  0.53050  0.86336  0.20563  1.0000
  H   H631      1.0  0.52928  0.56175  0.02881  1.0000
  S   S105      1.0  0.50233  0.49822  0.15956  1.0000
  C   C794      1.0  0.52553  0.58790  0.03849  1.0000
  C   C795      1.0  0.34210  0.93963  0.36761  1.0000
  C   C796      1.0  0.49396  0.97171  0.99953  1.0000
  C   C797      1.0  0.59115  0.51016  0.27154  1.0000
  H   H632      1.0  0.45515  0.61009  0.19252  1.0000
  C   C798      1.0  0.57598  0.89825  0.20381  1.0000
  C   C799      1.0  0.57570  0.61393  0.15758  1.0000
  C   C800      1.0  0.43624  0.58763  0.23072  1.0000
  H   H633      1.0  0.33814  0.57319  0.33346  1.0000
  H   H634      1.0  0.59228  0.69398  0.09561  1.0000
  H   H635      1.0  0.48392  0.52271  0.26019  1.0000
  C   C801      1.0  0.57771  0.49761  0.20731  1.0000
  C   C802      1.0  0.56679  0.51904  0.22883  1.0000
  C   C803      1.0  0.52974  0.77083  0.06295  1.0000
  C   C804      1.0  0.62627  0.86806  0.14988  1.0000
  H   H636      1.0  0.35388  0.75504  0.24683  1.0000
  H   H637      1.0  0.60048  0.89418  0.10236  1.0000
  C   C805      1.0  0.37780  0.72037  0.25464  1.0000
  H   H638      1.0  0.39772  0.64926  0.19389  1.0000
  C   C806      1.0  0.34590  0.69918  0.24185  1.0000
  P   P28       1.0  0.55293  0.67268  0.08186  1.0000
  H   H639      1.0  0.38776  0.74236  0.25909  1.0000
  H   H640      1.0  0.34202  0.64224  0.23786  1.0000
  H   H641      1.0  0.34559  0.56687  0.45569  1.0000
  C   C807      1.0  0.57439  0.67495  0.05604  1.0000
  H   H642      1.0  0.62164  0.69884  0.06016  1.0000
  H   H643      1.0  0.37228  0.96877  0.46334  1.0000
  C   C808      1.0  0.37994  0.56988  0.35924  1.0000
  C   C809      1.0  0.59649  0.95015  0.43889  1.0000
  C   C810      1.0  0.50125  0.63065  0.05428  1.0000
  H   H644      1.0  0.48134  0.93168  0.30813  1.0000
  C   C811      1.0  0.34380  0.51003  0.44593  1.0000
  C   C812      1.0  0.63579  0.83652  0.14131  1.0000
  H   H645      1.0  0.63340  0.89378  0.14552  1.0000
  H   H646      1.0  0.64982  0.51603  0.41934  1.0000
  C   C813      1.0  0.56469  0.97202  0.11387  1.0000
  S   S106      1.0  0.44715  0.97942  0.17203  1.0000
  H   H647      1.0  0.59028  0.91839  0.24741  1.0000
  C   C814      1.0  0.35218  0.66368  0.24271  1.0000
  C   C815      1.0  0.62557  0.92373  0.21691  1.0000
  H   H648      1.0  0.35532  0.93346  0.35430  1.0000
  C   C816      1.0  0.38089  0.60674  0.35257  1.0000
  C   C817      1.0  0.54315  0.77375  0.11777  1.0000
  C   C818      1.0  0.37941  0.55793  0.30019  1.0000
  C   C819      1.0  0.57304  0.63024  0.12663  1.0000
  C   C820      1.0  0.49729  0.51518  0.27124  1.0000
  H   H649      1.0  0.65607  0.56799  0.45594  1.0000
  C   C821      1.0  0.56236  0.89752  0.26003  1.0000
  S   S107      1.0  0.50789  0.49894  0.06116  1.0000
  C   C822      1.0  0.47158  0.98590  0.31468  1.0000
  C   C823      1.0  0.53338  0.78999  0.09192  1.0000
  H   H650      1.0  0.52821  0.81718  0.09476  1.0000
  C   C824      1.0  0.54338  0.65558  0.14744  1.0000
  H   H651      1.0  0.58577  0.92177  0.05348  1.0000
  C   C825      1.0  0.61296  0.93734  0.19334  1.0000
  H   H652      1.0  0.47426  0.52562  0.02490  1.0000
  C   C826      1.0  0.64730  0.96986  0.46749  1.0000
  C   C827      1.0  0.43025  0.49480  0.22255  1.0000
  C   C828      1.0  0.48221  0.95910  0.29899  1.0000
  H   H653      1.0  0.37835  0.51691  0.33830  1.0000
  H   H654      1.0  0.50273  0.94724  0.25990  1.0000
  H   H655      1.0  0.43053  0.64934  0.16929  1.0000
  H   H656      1.0  0.53343  0.87680  0.26538  1.0000
  H   H657      1.0  0.59733  0.93262  0.41754  1.0000
  H   H658      1.0  0.38145  0.62553  0.37299  1.0000
  C   C829      1.0  0.36758  0.57412  0.19411  1.0000
  C   C830      1.0  0.38412  0.68492  0.25558  1.0000
  C   C831      1.0  0.37138  0.65627  0.24951  1.0000
  C   C832      1.0  0.36364  0.58229  0.22759  1.0000
  C   C833      1.0  0.44082  0.60999  0.20356  1.0000
  C   C834      1.0  0.35500  0.55211  0.17658  1.0000
  H   H659      1.0  0.56347  0.90410  0.28609  1.0000
  H   H660      1.0  0.53281  0.72077  0.03733  1.0000
  H   H661      1.0  0.49529  0.57938  0.03206  1.0000
  H   H662      1.0  0.58321  0.62514  0.10658  1.0000
  H   H663      1.0  0.55730  0.87679  0.16631  1.0000
  P   P29       1.0  0.37981  0.61060  0.25058  1.0000
  S   S108      1.0  0.34562  0.51625  0.40232  1.0000
  Fe  Fe57      1.0  0.47705  0.95561  0.16117  1.0000
  C   C835      1.0  0.55894  0.88266  0.19242  1.0000
  H   H664      1.0  0.48588  0.95269  0.01495  1.0000
  H   H665      1.0  0.53374  0.55113  0.31523  1.0000
  H   H666      1.0  0.65272  0.83243  0.40059  1.0000
  C   C836      1.0  0.52532  0.53115  0.30240  1.0000
  C   C837      1.0  0.42688  0.63211  0.19043  1.0000
  H   H667      1.0  0.65017  0.83801  0.13059  1.0000
  C   C838      1.0  0.34683  0.56839  0.24310  1.0000
  C   C839      1.0  0.41770  0.58722  0.24477  1.0000
  C   C840      1.0  0.38103  0.61930  0.31970  1.0000
  C   C841      1.0  0.40836  0.63200  0.20451  1.0000
  H   H668      1.0  0.38635  0.50285  0.18790  1.0000
  C   C842      1.0  0.57370  0.66796  0.02182  1.0000
  C   C843      1.0  0.60828  0.69001  0.04950  1.0000
  S   S109      1.0  0.32696  0.49698  0.31634  1.0000
  C   C844      1.0  0.41645  0.50324  0.19917  1.0000
  C   C845      1.0  0.43888  0.98559  0.24043  1.0000
  C   C846      1.0  0.63876  0.94654  0.23218  1.0000
  S   S110      1.0  0.51825  0.98113  0.05400  1.0000
  S   S111      1.0  0.45552  0.49999  0.21418  1.0000
  C   C847      1.0  0.58236  0.93163  0.07815  1.0000
  H   H669      1.0  0.58703  0.90821  0.47258  1.0000
  H   H670      1.0  0.33739  0.63465  0.30926  1.0000
  H   H671      1.0  0.64817  0.93615  0.25086  1.0000
  C   C848      1.0  0.65302  0.54186  0.46686  1.0000
  H   H672      1.0  0.57284  0.49281  0.18242  1.0000
  C   C849      1.0  0.61402  0.97400  0.18494  1.0000
  C   C850      1.0  0.56935  0.95956  0.08209  1.0000
  H   H673      1.0  0.63418  0.77870  0.14005  1.0000
  H   H674      1.0  0.33260  0.65528  0.47942  1.0000
  C   C851      1.0  0.50992  0.98946  0.01261  1.0000
  C   C852      1.0  0.63960  0.98301  0.22380  1.0000
  H   H675      1.0  0.56250  0.97110  0.06065  1.0000
  C   C853      1.0  0.59033  0.67100  0.00182  1.0000
  H   H676      1.0  0.60445  0.98559  0.16726  1.0000
  C   C854      1.0  0.32681  0.62643  0.32803  1.0000
  H   H677      1.0  0.32900  0.52015  0.17903  1.0000
  C   C855      1.0  0.32719  0.59179  0.34148  1.0000
  H   H678      1.0  0.32548  0.94282  0.32325  1.0000
  H   H679      1.0  0.32570  0.95893  0.44557  1.0000
  S   S112      1.0  0.65560  0.49045  0.34746  1.0000
  Fe  Fe58      1.0  0.63758  0.94068  0.66169  1.0000
  S   S113      1.0  0.63457  0.92536  0.60777  1.0000
  S   S114      1.0  0.61259  0.93457  0.70005  1.0000
  H   H680      1.0  0.46620  0.97403  0.72173  1.0000
  H   H681      1.0  0.52905  0.96702  0.89664  1.0000
  H   H682      1.0  0.45108  0.85685  0.81494  1.0000
  S   S115      1.0  0.49618  0.49818  0.81116  1.0000
  H   H683      1.0  0.38575  0.81015  0.81565  1.0000
  C   C856      1.0  0.60254  0.98972  0.57530  1.0000
  H   H684      1.0  0.39791  0.81047  0.57958  1.0000
  H   H685      1.0  0.37426  0.82515  0.67747  1.0000
  C   C857      1.0  0.39156  0.80612  0.79074  1.0000
  C   C858      1.0  0.56554  0.97525  0.74877  1.0000
  H   H686      1.0  0.50216  0.51987  0.71995  1.0000
  S   S116      1.0  0.33002  0.60491  0.67149  1.0000
  Fe  Fe59      1.0  0.63194  0.55583  0.64765  1.0000
  S   S117      1.0  0.60180  0.53353  0.66353  1.0000
  S   S118      1.0  0.62960  0.60093  0.61022  1.0000
  C   C859      1.0  0.63615  0.79416  0.74190  1.0000
  Fe  Fe60      1.0  0.35342  0.96416  0.65938  1.0000
  S   S119      1.0  0.36469  0.92075  0.62561  1.0000
  C   C860      1.0  0.48032  0.96314  0.72499  1.0000
  H   H687      1.0  0.34333  0.55995  0.51718  1.0000
  C   C861      1.0  0.37426  0.67984  0.68992  1.0000
  Fe  Fe61      1.0  0.35049  0.95230  0.58482  1.0000
  S   S120      1.0  0.36375  0.95810  0.53282  1.0000
  Fe  Fe62      1.0  0.33819  0.54084  0.59710  1.0000
  H   H688      1.0  0.47628  0.93192  0.88019  1.0000
  C   C862      1.0  0.38601  0.82158  0.62822  1.0000
  Fe  Fe63      1.0  0.34043  0.61943  0.61967  1.0000
  H   H689      1.0  0.42088  0.91119  0.77931  1.0000
  S   S121      1.0  0.34932  0.67544  0.59968  1.0000
  Fe  Fe64      1.0  0.35054  0.55819  0.66804  1.0000
  S   S122      1.0  0.36826  0.53940  0.71273  1.0000
  S   S123      1.0  0.36217  0.57465  0.61749  1.0000
  S   S124      1.0  0.65553  0.98976  0.64936  1.0000
  H   H690      1.0  0.45470  0.79125  0.81943  1.0000
  C   C863      1.0  0.54370  0.98777  0.85265  1.0000
  C   C864      1.0  0.34929  0.74945  0.59391  1.0000
  C   C865      1.0  0.34192  0.71934  0.61166  1.0000
  H   H691      1.0  0.40426  0.54247  0.67222  1.0000
  H   H692      1.0  0.57988  0.92434  0.74433  1.0000
  C   C866      1.0  0.40869  0.82322  0.78065  1.0000
  H   H693      1.0  0.42943  0.83122  0.74061  1.0000
  H   H694      1.0  0.41950  0.49454  0.78404  1.0000
  C   C867      1.0  0.51473  0.96933  0.71740  1.0000
  C   C868      1.0  0.39265  0.52790  0.72053  1.0000
  C   C869      1.0  0.40744  0.53196  0.69657  1.0000
  H   H695      1.0  0.52738  0.49648  0.89890  1.0000
  H   H696      1.0  0.35089  0.80759  0.59019  1.0000
  C   C870      1.0  0.47426  0.84191  0.74081  1.0000
  H   H697      1.0  0.44003  0.97134  0.78249  1.0000
  Fe  Fe65      1.0  0.65142  0.63093  0.63967  1.0000
  H   H698      1.0  0.48275  0.78983  0.72318  1.0000
  C   C871      1.0  0.34479  0.78482  0.60372  1.0000
  C   C872      1.0  0.33282  0.79056  0.63151  1.0000
  H   H699      1.0  0.39214  0.91547  0.74500  1.0000
  H   H700      1.0  0.47422  0.55982  0.71627  1.0000
  H   H701      1.0  0.60994  0.50606  0.73089  1.0000
  H   H702      1.0  0.36412  0.68748  0.67120  1.0000
  C   C873      1.0  0.39528  0.69496  0.73501  1.0000
  C   C874      1.0  0.50111  0.91791  0.74730  1.0000
  C   C875      1.0  0.47793  0.50752  0.97397  1.0000
  H   H703      1.0  0.47388  0.49692  0.62033  1.0000
  C   C876      1.0  0.40801  0.91525  0.69859  1.0000
  H   H704      1.0  0.36844  0.77121  0.77682  1.0000
  C   C877      1.0  0.48258  0.93081  0.74241  1.0000
  C   C878      1.0  0.38174  0.78417  0.76859  1.0000
  C   C879      1.0  0.39991  0.65869  0.73837  1.0000
  C   C880      1.0  0.34275  0.79208  0.72080  1.0000
  C   C881      1.0  0.42614  0.91447  0.68316  1.0000
  C   C882      1.0  0.33888  0.72762  0.72655  1.0000
  C   C883      1.0  0.61565  0.97911  0.78539  1.0000
  C   C884      1.0  0.55725  0.92885  0.53168  1.0000
  H   H705      1.0  0.40969  0.65023  0.75729  1.0000
  C   C885      1.0  0.57988  0.95212  0.73631  1.0000
  C   C886      1.0  0.32929  0.72507  0.63855  1.0000
  H   H706      1.0  0.61829  0.90964  0.51185  1.0000
  C   C887      1.0  0.62350  0.86395  0.54276  1.0000
  C   C888      1.0  0.60103  0.49524  0.53539  1.0000
  H   H707      1.0  0.50327  0.89372  0.76169  1.0000
  Fe  Fe66      1.0  0.33596  0.89276  0.63300  1.0000
  H   H708      1.0  0.47045  0.75749  0.77365  1.0000
  H   H709      1.0  0.38424  0.84990  0.62312  1.0000
  C   C889      1.0  0.39731  0.51451  0.75215  1.0000
  H   H710      1.0  0.63687  0.85752  0.53008  1.0000
  C   C890      1.0  0.37903  0.64369  0.69326  1.0000
  H   H711      1.0  0.63763  0.76043  0.67610  1.0000
  H   H712      1.0  0.35888  0.74543  0.57279  1.0000
  H   H713      1.0  0.35125  0.81583  0.71504  1.0000
  C   C891      1.0  0.45538  0.96831  0.86172  1.0000
  H   H714      1.0  0.46489  0.51984  0.96587  1.0000
  H   H715      1.0  0.45648  0.91220  0.68998  1.0000
  C   C892      1.0  0.59438  0.96470  0.71393  1.0000
  C   C893      1.0  0.48860  0.97806  0.96621  1.0000
  H   H716      1.0  0.61000  0.53787  0.56777  1.0000
  C   C894      1.0  0.38240  0.70587  0.71070  1.0000
  H   H717      1.0  0.47940  0.85559  0.71839  1.0000
  P   P30       1.0  0.37572  0.75254  0.70689  1.0000
  C   C895      1.0  0.54118  0.98269  0.88691  1.0000
  C   C896      1.0  0.38893  0.77942  0.73603  1.0000
  C   C897      1.0  0.41618  0.81793  0.74855  1.0000
  C   C898      1.0  0.40643  0.79593  0.72637  1.0000
  H   H718      1.0  0.53138  0.92695  0.73822  1.0000
  C   C899      1.0  0.38003  0.80715  0.65899  1.0000
  C   C900      1.0  0.38173  0.77021  0.66567  1.0000
  C   C901      1.0  0.38986  0.74823  0.64090  1.0000
  C   C902      1.0  0.39570  0.76273  0.61007  1.0000
  C   C903      1.0  0.58472  0.97282  0.57082  1.0000
  H   H719      1.0  0.63701  0.98686  0.74642  1.0000
  C   C904      1.0  0.65225  0.53789  0.50159  1.0000
  C   C905      1.0  0.61287  0.89344  0.53252  1.0000
  C   C906      1.0  0.55121  0.89276  0.52995  1.0000
  H   H720      1.0  0.64869  0.49290  0.70695  1.0000
  C   C907      1.0  0.46029  0.80544  0.79758  1.0000
  C   C908      1.0  0.56740  0.50945  0.69195  1.0000
  H   H721      1.0  0.52738  0.85630  0.52308  1.0000
  H   H722      1.0  0.41247  0.79220  0.70160  1.0000
  C   C909      1.0  0.54427  0.51197  0.85544  1.0000
  C   C910      1.0  0.65126  0.72970  0.63731  1.0000
  H   H723      1.0  0.39177  0.71986  0.64487  1.0000
  H   H724      1.0  0.40141  0.74531  0.59089  1.0000
  C   C911      1.0  0.51710  0.93688  0.73439  1.0000
  H   H725      1.0  0.62092  0.79699  0.74679  1.0000
  H   H726      1.0  0.47995  0.89944  0.82697  1.0000
  S   S125      1.0  0.65269  0.58719  0.67866  1.0000
  C   C912      1.0  0.61729  0.84335  0.57022  1.0000
  C   C913      1.0  0.60062  0.85253  0.58786  1.0000
  C   C914      1.0  0.58997  0.88201  0.57776  1.0000
  C   C915      1.0  0.59578  0.90220  0.54956  1.0000
  C   C916      1.0  0.35054  0.75760  0.71793  1.0000
  C   C917      1.0  0.65064  0.79554  0.63882  1.0000
  C   C918      1.0  0.49633  0.98244  0.71273  1.0000
  S   S126      1.0  0.65662  0.57606  0.52649  1.0000
  H   H727      1.0  0.64626  0.81991  0.65115  1.0000
  C   C919      1.0  0.58727  0.51384  0.69647  1.0000
  H   H728      1.0  0.39523  0.60496  0.72029  1.0000
  C   C920      1.0  0.64573  0.76177  0.65289  1.0000
  H   H729      1.0  0.56127  0.87116  0.53250  1.0000
  H   H730      1.0  0.56138  0.51778  0.66866  1.0000
  C   C921      1.0  0.42637  0.52186  0.70393  1.0000
  Fe  Fe67      1.0  0.65463  0.57643  0.58308  1.0000
  H   H731      1.0  0.39530  0.91771  0.68379  1.0000
  C   C922      1.0  0.44533  0.97962  0.83408  1.0000
  C   C923      1.0  0.42260  0.91222  0.75252  1.0000
  C   C924      1.0  0.46913  0.78641  0.77176  1.0000
  H   H732      1.0  0.43754  0.52475  0.68497  1.0000
  S   S127      1.0  0.64576  0.68812  0.65769  1.0000
  C   C925      1.0  0.64691  0.82311  0.72885  1.0000
  H   H733      1.0  0.37274  0.62373  0.67720  1.0000
  C   C926      1.0  0.56952  0.97982  0.59328  1.0000
  H   H734      1.0  0.62572  0.82086  0.57840  1.0000
  H   H735      1.0  0.59622  0.83720  0.60981  1.0000
  H   H736      1.0  0.57733  0.88933  0.59217  1.0000
  C   C927      1.0  0.43096  0.50791  0.73541  1.0000
  C   C928      1.0  0.59021  0.95894  0.49799  1.0000
  C   C929      1.0  0.64820  0.50396  0.51542  1.0000
  H   H737      1.0  0.34429  0.70065  0.72548  1.0000
  C   C930      1.0  0.40624  0.91405  0.73322  1.0000
  C   C931      1.0  0.52998  0.51678  0.87985  1.0000
  S   S128      1.0  0.32801  0.83435  0.64746  1.0000
  H   H738      1.0  0.40167  0.71419  0.75161  1.0000
  P   P31       1.0  0.58207  0.94077  0.53772  1.0000
  H   H739      1.0  0.64004  0.84845  0.72373  1.0000
  C   C932      1.0  0.45843  0.84272  0.79507  1.0000
  C   C933      1.0  0.39179  0.63310  0.71752  1.0000
  C   C934      1.0  0.44092  0.91225  0.73725  1.0000
  H   H740      1.0  0.50690  0.54996  0.89714  1.0000
  H   H741      1.0  0.55470  0.96525  0.76623  1.0000
  H   H742      1.0  0.54009  0.49086  0.71293  1.0000
  C   C935      1.0  0.64499  0.76143  0.74812  1.0000
  C   C936      1.0  0.51845  0.54707  0.87886  1.0000
  H   H743      1.0  0.64741  0.95198  0.51883  1.0000
  C   C937      1.0  0.54713  0.53757  0.83014  1.0000
  C   C938      1.0  0.53584  0.56841  0.82929  1.0000
  C   C939      1.0  0.52117  0.57255  0.85343  1.0000
  P   P32       1.0  0.53781  0.59943  0.79469  1.0000
  C   C940      1.0  0.56022  0.59555  0.77176  1.0000
  C   C941      1.0  0.51790  0.58819  0.76881  1.0000
  C   C942      1.0  0.51791  0.55552  0.75168  1.0000
  C   C943      1.0  0.50230  0.54554  0.73249  1.0000
  C   C944      1.0  0.48650  0.56798  0.73057  1.0000
  C   C945      1.0  0.48619  0.60021  0.74817  1.0000
  C   C946      1.0  0.50179  0.61024  0.76744  1.0000
  C   C947      1.0  0.56076  0.59728  0.73685  1.0000
  C   C948      1.0  0.57830  0.59657  0.71935  1.0000
  C   C949      1.0  0.59539  0.59406  0.73646  1.0000
  C   C950      1.0  0.59501  0.59267  0.77119  1.0000
  C   C951      1.0  0.57750  0.59380  0.78883  1.0000
  C   C952      1.0  0.53743  0.64568  0.80777  1.0000
  C   C953      1.0  0.54015  0.65500  0.84113  1.0000
  C   C954      1.0  0.54032  0.69110  0.85056  1.0000
  C   C955      1.0  0.53817  0.71813  0.82672  1.0000
  C   C956      1.0  0.53596  0.70908  0.79335  1.0000
  C   C957      1.0  0.53570  0.67300  0.78387  1.0000
  C   C958      1.0  0.39374  0.79937  0.60369  1.0000
  H   H744      1.0  0.55766  0.53236  0.81064  1.0000
  H   H745      1.0  0.51150  0.59495  0.85213  1.0000
  H   H746      1.0  0.52979  0.53736  0.75392  1.0000
  C   C959      1.0  0.47608  0.80463  0.74337  1.0000
  H   H747      1.0  0.54844  0.98409  0.52687  1.0000
  H   H748      1.0  0.47364  0.61689  0.74743  1.0000
  H   H749      1.0  0.50099  0.63467  0.78174  1.0000
  H   H750      1.0  0.54774  0.59928  0.72298  1.0000
  H   H751      1.0  0.57869  0.59712  0.69238  1.0000
  H   H752      1.0  0.60890  0.59267  0.72262  1.0000
  H   H753      1.0  0.60830  0.59059  0.78435  1.0000
  H   H754      1.0  0.57743  0.59320  0.81574  1.0000
  H   H755      1.0  0.54237  0.63459  0.85985  1.0000
  H   H756      1.0  0.54229  0.69813  0.87637  1.0000
  H   H757      1.0  0.53844  0.74609  0.83405  1.0000
  H   H758      1.0  0.53464  0.73002  0.77475  1.0000
  H   H759      1.0  0.53429  0.66634  0.75783  1.0000
  C   C960      1.0  0.46781  0.93934  0.85904  1.0000
  S   S129      1.0  0.45522  0.49550  0.74302  1.0000
  H   H760      1.0  0.50386  0.90480  0.51546  1.0000
  C   C961      1.0  0.44733  0.96142  0.80398  1.0000
  C   C962      1.0  0.45897  0.93114  0.80150  1.0000
  C   C963      1.0  0.46980  0.92103  0.82892  1.0000
  P   P33       1.0  0.46206  0.90887  0.76209  1.0000
  C   C964      1.0  0.46563  0.86127  0.76684  1.0000
  H   H761      1.0  0.61931  0.49688  0.61263  1.0000
  C   C965      1.0  0.44255  0.91278  0.70238  1.0000
  H   H762      1.0  0.41608  0.84068  0.79770  1.0000
  H   H763      1.0  0.42743  0.91586  0.65629  1.0000
  S   S130      1.0  0.36963  0.98586  0.70500  1.0000
  H   H764      1.0  0.61459  0.95036  0.78153  1.0000
  S   S131      1.0  0.32763  0.52152  0.64758  1.0000
  C   C966      1.0  0.34290  0.53648  0.50148  1.0000
  H   H765      1.0  0.47637  0.96374  0.95656  1.0000
  C   C967      1.0  0.64820  0.97485  0.50210  1.0000
  H   H766      1.0  0.63660  0.73878  0.75774  1.0000
  C   C968      1.0  0.53198  0.88418  0.52432  1.0000
  C   C969      1.0  0.34145  0.50223  0.51588  1.0000
  H   H767      1.0  0.64784  0.50047  0.54212  1.0000
  H   H768      1.0  0.51449  0.96861  0.51719  1.0000
  S   S132      1.0  0.34077  0.49575  0.55952  1.0000
  S   S133      1.0  0.65587  0.52901  0.61766  1.0000
  C   C970      1.0  0.59477  0.50282  0.72679  1.0000
  C   C971      1.0  0.51873  0.91149  0.51995  1.0000
  H   H769      1.0  0.58976  0.66510  0.97552  1.0000
  C   C972      1.0  0.54393  0.95611  0.52659  1.0000
  H   H770      1.0  0.61464  0.98355  0.55908  1.0000
  H   H771      1.0  0.59735  0.51331  0.51537  1.0000
  C   C973      1.0  0.52472  0.94744  0.52097  1.0000
  C   C974      1.0  0.60828  0.50908  0.56479  1.0000
  Fe  Fe68      1.0  0.65449  0.97211  0.59597  1.0000
  C   C975      1.0  0.55522  0.49439  0.71718  1.0000
  H   H772      1.0  0.53356  0.97598  0.83576  1.0000
  H   H773      1.0  0.52715  0.98473  0.70851  1.0000
  H   H774      1.0  0.59419  0.97899  0.82428  1.0000
  H   H775      1.0  0.55591  0.96580  0.59158  1.0000
  H   H776      1.0  0.38612  0.51163  0.77111  1.0000
  C   C976      1.0  0.41627  0.50470  0.75959  1.0000
  H   H777      1.0  0.45408  0.98277  0.88497  1.0000
  Fe  Fe69      1.0  0.68192  0.06158  0.31224  1.0000
  H   H778      1.0  0.81873  0.02991  0.43604  1.0000
  H   H779      1.0  0.74231  0.21753  0.39653  1.0000
  H   H780      1.0  0.80136  0.30023  0.47986  1.0000
  Fe  Fe70      1.0  0.68447  0.46494  0.33744  1.0000
  H   H781      1.0  0.77374  0.06138  0.36047  1.0000
  H   H782      1.0  0.72395  0.02252  0.47755  1.0000
  H   H783      1.0  0.88976  0.07988  0.16921  1.0000
  H   H784      1.0  0.95829  0.11040  0.23621  1.0000
  S   S134      1.0  0.97380  0.07990  0.12565  1.0000
  C   C977      1.0  0.71390  0.14821  0.47469  1.0000
  C   C978      1.0  0.97581  0.40768  0.02539  1.0000
  Fe  Fe71      1.0  0.97882  0.04742  0.17219  1.0000
  C   C979      1.0  0.98740  0.29103  0.15314  1.0000
  H   H785      1.0  0.86140  0.06405  0.45381  1.0000
  S   S135      1.0  0.97868  0.42747  0.12934  1.0000
  Fe  Fe72      1.0  0.98136  0.45794  0.17748  1.0000
  C   C980      1.0  0.86145  0.03656  0.46245  1.0000
  H   H786      1.0  0.79565  0.44254  0.33441  1.0000
  C   C981      1.0  0.87396  0.08511  0.03783  1.0000
  C   C982      1.0  0.76359  0.99301  0.43614  1.0000
  H   H787      1.0  0.86043  0.06278  0.34558  1.0000
  H   H788      1.0  0.95068  0.46036  0.04100  1.0000
  H   H789      1.0  0.92517  0.12188  0.25646  1.0000
  C   C983      1.0  0.77296  0.44978  0.41012  1.0000
  H   H790      1.0  0.82840  0.09191  0.31762  1.0000
  C   C984      1.0  0.92692  0.09923  0.11522  1.0000
  H   H791      1.0  0.66027  0.30548  0.38018  1.0000
  C   C985      1.0  0.90408  0.04218  0.23203  1.0000
  C   C986      1.0  0.83098  0.34992  0.42892  1.0000
  H   H792      1.0  0.83053  0.36783  0.40759  1.0000
  H   H793      1.0  0.67501  0.26134  0.28487  1.0000
  C   C987      1.0  0.80285  0.48433  0.40795  1.0000
  C   C988      1.0  0.77153  0.13984  0.48209  1.0000
  H   H794      1.0  0.94979  0.34368  0.18480  1.0000
  H   H795      1.0  0.92809  0.06494  0.20319  1.0000
  C   C989      1.0  0.88804  0.46978  0.07571  1.0000
  H   H796      1.0  0.85826  0.10082  0.39607  1.0000
  C   C990      1.0  0.92272  0.04198  0.21730  1.0000
  H   H797      1.0  0.88736  0.11374  0.42830  1.0000
  C   C991      1.0  0.82087  0.11727  0.36419  1.0000
  H   H798      1.0  0.89118  0.03616  0.32858  1.0000
  S   S136      1.0  0.71097  0.05067  0.28670  1.0000
  H   H799      1.0  0.71534  0.31867  0.36508  1.0000
  C   C992      1.0  0.76208  0.05810  0.43374  1.0000
  C   C993      1.0  0.77909  0.40271  0.47610  1.0000
  H   H800      1.0  0.97193  0.05023  0.01818  1.0000
  C   C994      1.0  0.76120  0.48845  0.29317  1.0000
  C   C995      1.0  0.87463  0.01820  0.06973  1.0000
  C   C996      1.0  0.96442  0.07435  0.27652  1.0000
  C   C997      1.0  0.90803  0.12637  0.17148  1.0000
  H   H801      1.0  0.74807  0.03307  0.25872  1.0000
  C   C998      1.0  0.93450  0.45591  0.99581  1.0000
  C   C999      1.0  0.87308  0.06850  0.35978  1.0000
  C   C1000     1.0  0.95849  0.39331  0.01392  1.0000
  C   C1001     1.0  0.97130  0.08462  0.41321  1.0000
  H   H802      1.0  0.95589  0.31810  0.06303  1.0000
  C   C1002     1.0  0.80623  0.47324  0.37531  1.0000
  C   C1003     1.0  0.73136  0.01960  0.33775  1.0000
  C   C1004     1.0  0.70074  0.12593  0.45884  1.0000
  C   C1005     1.0  0.87980  0.46112  0.04538  1.0000
  H   H803      1.0  0.98137  0.06528  0.46019  1.0000
  C   C1006     1.0  0.88680  0.07925  0.06340  1.0000
  H   H804      1.0  0.96647  0.25049  0.16868  1.0000
  C   C1007     1.0  0.94686  0.04780  0.38727  1.0000
  C   C1008     1.0  0.74123  0.18854  0.39483  1.0000
  H   H805      1.0  0.91393  0.01020  0.04458  1.0000
  C   C1009     1.0  0.84795  0.45251  0.18592  1.0000
  C   C1010     1.0  0.86175  0.00837  0.43936  1.0000
  C   C1011     1.0  0.95877  0.07853  0.38713  1.0000
  C   C1012     1.0  0.74195  0.48433  0.30452  1.0000
  C   C1013     1.0  0.90179  0.09400  0.15758  1.0000
  C   C1014     1.0  0.81409  0.33414  0.44191  1.0000
  H   H806      1.0  0.90080  0.13671  0.19345  1.0000
  C   C1015     1.0  0.66697  0.22250  0.32302  1.0000
  H   H807      1.0  0.85174  0.24486  0.46393  1.0000
  H   H808      1.0  0.95810  0.09818  0.36725  1.0000
  H   H809      1.0  0.97872  0.31329  0.16114  1.0000
  P   P34       1.0  0.90103  0.45412  0.13927  1.0000
  H   H810      1.0  0.89521  0.06544  0.22900  1.0000
  P   P35       1.0  0.92963  0.04157  0.35493  1.0000
  C   C1016     1.0  0.98064  0.03432  0.00147  1.0000
  C   C1017     1.0  0.87473  0.42556  0.03847  1.0000
  C   C1018     1.0  0.74491  0.05654  0.45250  1.0000
  C   C1019     1.0  0.93975  0.47186  0.02582  1.0000
  C   C1020     1.0  0.75542  0.16697  0.40827  1.0000
  C   C1021     1.0  0.92379  0.14500  0.15742  1.0000
  C   C1022     1.0  0.92589  0.00609  0.06065  1.0000
  H   H811      1.0  0.75767  0.14918  0.47487  1.0000
  H   H812      1.0  0.80979  0.13797  0.41032  1.0000
  C   C1023     1.0  0.81502  0.00551  0.48455  1.0000
  H   H813      1.0  0.73187  0.46879  0.29028  1.0000
  C   C1024     1.0  0.99160  0.22563  0.14743  1.0000
  C   C1025     1.0  0.87789  0.39856  0.06192  1.0000
  C   C1026     1.0  0.79977  0.10431  0.47175  1.0000
  C   C1027     1.0  0.77145  0.02611  0.42583  1.0000
  C   C1028     1.0  0.95738  0.05740  0.30556  1.0000
  C   C1029     1.0  0.75401  0.12940  0.40608  1.0000
  C   C1030     1.0  0.87192  0.09023  0.38791  1.0000
  H   H814      1.0  0.80799  0.08613  0.45642  1.0000
  C   C1031     1.0  0.72582  0.17279  0.37845  1.0000
  C   C1032     1.0  0.72473  0.13552  0.37512  1.0000
  C   C1033     1.0  0.73875  0.11386  0.38878  1.0000
  H   H815      1.0  0.81880  0.48283  0.36152  1.0000
  H   H816      1.0  0.93038  0.37856  0.22521  1.0000
  C   C1034     1.0  0.93850  0.06321  0.31696  1.0000
  S   S137      1.0  0.98195  0.18096  0.15345  1.0000
  C   C1035     1.0  0.66787  0.28795  0.33088  1.0000
  C   C1036     1.0  0.79038  0.09848  0.38965  1.0000
  C   C1037     1.0  0.78701  0.07656  0.36212  1.0000
  C   C1038     1.0  0.80081  0.07379  0.33656  1.0000
  C   C1039     1.0  0.81778  0.09401  0.33763  1.0000
  C   C1040     1.0  0.73460  0.46694  0.44099  1.0000
  C   C1041     1.0  0.80724  0.11953  0.39017  1.0000
  C   C1042     1.0  0.89056  0.05350  0.35012  1.0000
  C   C1043     1.0  0.73137  0.03053  0.30448  1.0000
  S   S138      1.0  0.67339  0.43398  0.29355  1.0000
  H   H817      1.0  0.88804  0.38603  0.11054  1.0000
  H   H818      1.0  0.91838  0.08898  0.41068  1.0000
  S   S139      1.0  0.67812  0.07582  0.36613  1.0000
  H   H819      1.0  0.93814  0.34888  0.01922  1.0000
  H   H820      1.0  0.71488  0.18943  0.36771  1.0000
  H   H821      1.0  0.71314  0.12344  0.36136  1.0000
  H   H822      1.0  0.73781  0.08506  0.38520  1.0000
  S   S140      1.0  0.95644  0.45959  0.21624  1.0000
  C   C1044     1.0  0.90715  0.06100  0.36798  1.0000
  S   S141      1.0  0.67888  0.41855  0.37268  1.0000
  H   H823      1.0  0.73768  0.08095  0.45949  1.0000
  H   H824      1.0  0.93446  0.08919  0.09342  1.0000
  H   H825      1.0  0.79826  0.05591  0.31588  1.0000
  H   H826      1.0  0.71412  0.38091  0.34363  1.0000
  C   C1045     1.0  0.88832  0.09749  0.40608  1.0000
  C   C1046     1.0  0.88604  0.40715  0.09234  1.0000
  C   C1047     1.0  0.72195  0.37522  0.36601  1.0000
  C   C1048     1.0  0.72271  0.34005  0.37809  1.0000
  C   C1049     1.0  0.73277  0.33269  0.40695  1.0000
  C   C1050     1.0  0.74200  0.36055  0.42385  1.0000
  C   C1051     1.0  0.74104  0.39606  0.41207  1.0000
  C   C1052     1.0  0.73090  0.40318  0.38305  1.0000
  P   P36       1.0  0.75236  0.43274  0.43382  1.0000
  C   C1053     1.0  0.95289  0.09780  0.25902  1.0000
  H   H827      1.0  0.86156  0.35523  0.43365  1.0000
  H   H828      1.0  0.92704  0.40475  0.10452  1.0000
  C   C1054     1.0  0.81550  0.00545  0.44984  1.0000
  H   H829      1.0  0.98167  0.43257  0.01507  1.0000
  H   H830      1.0  0.84935  0.43036  0.46306  1.0000
  H   H831      1.0  0.83378  0.13373  0.36444  1.0000
  H   H832      1.0  0.76756  0.17960  0.41998  1.0000
  C   C1055     1.0  0.76085  0.41793  0.47378  1.0000
  P   P37       1.0  0.77243  0.10128  0.42258  1.0000
  S   S142      1.0  0.67303  0.33152  0.31380  1.0000
  H   H833      1.0  0.92673  0.45365  0.26674  1.0000
  H   H834      1.0  0.76578  0.47568  0.27031  1.0000
  C   C1056     1.0  0.77652  0.43886  0.37721  1.0000
  C   C1057     1.0  0.90592  0.08311  0.39610  1.0000
  C   C1058     1.0  0.93423  0.10423  0.27044  1.0000
  C   C1059     1.0  0.88715  0.04578  0.07967  1.0000
  H   H835      1.0  0.73325  0.30541  0.41630  1.0000
  H   H836      1.0  0.74962  0.35433  0.44621  1.0000
  H   H837      1.0  0.72983  0.43045  0.37363  1.0000
  C   C1060     1.0  0.67036  0.25764  0.31053  1.0000
  H   H838      1.0  0.71842  0.17333  0.46299  1.0000
  H   H839      1.0  0.90908  0.42577  0.20595  1.0000
  C   C1061     1.0  0.92699  0.08688  0.29912  1.0000
  H   H840      1.0  0.93801  0.00030  0.41547  1.0000
  C   C1062     1.0  0.85511  0.18922  0.47592  1.0000
  P   P38       1.0  0.90400  0.03734  0.11206  1.0000
  H   H841      1.0  0.78471  0.02646  0.41141  1.0000
  H   H842      1.0  0.98037  0.10850  0.41313  1.0000
  C   C1063     1.0  0.73704  0.02344  0.46264  1.0000
  H   H843      1.0  0.76658  0.42168  0.36438  1.0000
  C   C1064     1.0  0.71510  0.45712  0.44407  1.0000
  C   C1065     1.0  0.93903  0.37129  0.14203  1.0000
  C   C1066     1.0  0.94005  0.36383  0.17601  1.0000
  C   C1067     1.0  0.92900  0.38328  0.19878  1.0000
  C   C1068     1.0  0.91691  0.41021  0.18768  1.0000
  C   C1069     1.0  0.91566  0.41773  0.15358  1.0000
  C   C1070     1.0  0.92703  0.39835  0.13082  1.0000
  H   H844      1.0  0.98861  0.13439  0.34950  1.0000
  H   H845      1.0  0.71040  0.42953  0.44098  1.0000
  C   C1071     1.0  0.95985  0.02995  0.44032  1.0000
  S   S143      1.0  0.95838  0.01059  0.20381  1.0000
  C   C1072     1.0  0.93311  0.13160  0.12915  1.0000
  H   H846      1.0  0.91238  0.09198  0.30688  1.0000
  H   H847      1.0  0.87383  0.37100  0.05672  1.0000
  H   H848      1.0  0.71882  0.02407  0.35337  1.0000
  H   H849      1.0  0.78810  0.39935  0.45410  1.0000
  H   H850      1.0  0.98821  0.44226  0.25765  1.0000
  H   H851      1.0  0.89647  0.10082  0.07019  1.0000
  H   H852      1.0  0.86211  0.01413  0.41298  1.0000
  C   C1073     1.0  0.86310  0.44608  0.16339  1.0000
  C   C1074     1.0  0.98051  0.25526  0.15741  1.0000
  C   C1075     1.0  0.83214  0.30479  0.48508  1.0000
  C   C1076     1.0  0.88420  0.48220  0.19690  1.0000
  C   C1077     1.0  0.70131  0.48291  0.45127  1.0000
  C   C1078     1.0  0.84911  0.32000  0.47129  1.0000
  C   C1079     1.0  0.74789  0.02470  0.28453  1.0000
  H   H853      1.0  0.94809  0.35695  0.12453  1.0000
  H   H854      1.0  0.96660  0.03949  0.31890  1.0000
  C   C1080     1.0  0.79317  0.45033  0.36007  1.0000
  C   C1081     1.0  0.92584  0.48034  0.25617  1.0000
  C   C1082     1.0  0.85037  0.45776  0.47168  1.0000
  C   C1083     1.0  0.78231  0.11778  0.46079  1.0000
  H   H855      1.0  0.83914  0.47921  0.23117  1.0000
  C   C1084     1.0  0.93451  0.01230  0.22125  1.0000
  C   C1085     1.0  0.91141  0.07981  0.12967  1.0000
  H   H856      1.0  0.86589  0.03905  0.14375  1.0000
  H   H857      1.0  0.97873  0.06907  0.26713  1.0000
  H   H858      1.0  0.80056  0.33956  0.43040  1.0000
  C   C1086     1.0  0.88136  0.46115  0.16859  1.0000
  C   C1087     1.0  0.74752  0.00270  0.35073  1.0000
  H   H859      1.0  0.96000  0.01145  0.46123  1.0000
  Fe  Fe73      1.0  0.66590  0.38907  0.33000  1.0000
  C   C1088     1.0  0.95130  0.36091  0.02774  1.0000
  H   H860      1.0  0.83386  0.44106  0.18176  1.0000
  H   H861      1.0  0.86256  0.18334  0.45272  1.0000
  H   H862      1.0  0.87722  0.48209  0.02731  1.0000
  H   H863      1.0  0.87378  0.11097  0.02531  1.0000
  H   H864      1.0  0.66898  0.19959  0.30698  1.0000
  C   C1089     1.0  0.66119  0.21712  0.35625  1.0000
  C   C1090     1.0  0.89127  0.44284  0.09940  1.0000
  S   S144      1.0  0.87293  0.01425  0.26813  1.0000
  H   H865      1.0  0.90799  0.39478  0.00478  1.0000
  H   H866      1.0  0.94544  0.14600  0.11846  1.0000
  C   C1091     1.0  0.81463  0.31174  0.46993  1.0000
  H   H867      1.0  0.92893  0.16973  0.16845  1.0000
  C   C1092     1.0  0.76415  0.00791  0.29759  1.0000
  S   S145      1.0  0.66314  0.10641  0.29432  1.0000
  H   H868      1.0  0.78411  0.48046  0.45094  1.0000
  H   H869      1.0  0.94082  0.01917  0.13979  1.0000
  C   C1093     1.0  0.66196  0.28259  0.36405  1.0000
  C   C1094     1.0  0.84848  0.34274  0.44354  1.0000
  C   C1095     1.0  0.94741  0.02365  0.41418  1.0000
  C   C1096     1.0  0.97185  0.06032  0.43977  1.0000
  H   H870      1.0  0.86042  0.42953  0.14199  1.0000
  H   H871      1.0  0.69499  0.13384  0.43507  1.0000
  C   C1097     1.0  0.78636  0.47240  0.42541  1.0000
  C   C1098     1.0  0.89682  0.01263  0.25072  1.0000
  H   H872      1.0  0.68475  0.07617  0.46127  1.0000
  C   C1099     1.0  0.96132  0.34326  0.05258  1.0000
  H   H873      1.0  0.86827  0.41901  0.01500  1.0000
  H   H874      1.0  0.77670  0.00367  0.28190  1.0000
  C   C1100     1.0  0.98578  0.38996  0.05019  1.0000
  H   H875      1.0  0.96991  0.99150  0.11594  1.0000
  H   H876      1.0  0.94223  0.46706  0.12554  1.0000
  C   C1101     1.0  0.97855  0.35776  0.06377  1.0000
  H   H877      1.0  0.69442  0.01267  0.43285  1.0000
  C   C1102     1.0  0.85100  0.48625  0.44843  1.0000
  H   H878      1.0  0.85217  0.00280  0.03665  1.0000
  C   C1103     1.0  0.86145  0.05763  0.02826  1.0000
  H   H879      1.0  0.85154  0.06220  0.00837  1.0000
  H   H880      1.0  0.98637  0.34401  0.08290  1.0000
  C   C1104     1.0  0.76407  0.99670  0.33086  1.0000
  H   H881      1.0  0.85061  0.48080  0.42208  1.0000
  H   H882      1.0  0.84981  0.00140  0.18720  1.0000
  C   C1105     1.0  0.89218  0.00883  0.14321  1.0000
  S   S146      1.0  0.84040  0.99293  0.34708  1.0000
  C   C1106     1.0  0.69491  0.09344  0.47367  1.0000
  C   C1107     1.0  0.86180  0.02418  0.04419  1.0000
  C   C1108     1.0  0.85090  0.47392  0.21380  1.0000
  C   C1109     1.0  0.94105  0.01098  0.11399  1.0000
  H   H883      1.0  0.74708  0.99436  0.37640  1.0000
  H   H884      1.0  0.86279  0.31493  0.48245  1.0000
  H   H885      1.0  0.68629  0.47515  0.45318  1.0000
  C   C1110     1.0  0.87333  0.01630  0.15386  1.0000
  C   C1111     1.0  0.92501  0.01620  0.09427  1.0000
  C   C1112     1.0  0.84890  0.22411  0.48240  1.0000
  C   C1113     1.0  0.95759  0.99543  0.10054  1.0000
  C   C1114     1.0  0.92531  0.99405  0.34890  1.0000
  C   C1115     1.0  0.74629  0.99163  0.45427  1.0000
  C   C1116     1.0  0.94259  0.99107  0.04714  1.0000
  H   H886      1.0  0.87489  0.99199  0.08158  1.0000
  C   C1117     1.0  0.86903  0.48869  0.21929  1.0000
  C   C1118     1.0  0.86407  0.99486  0.17818  1.0000
  H   H887      1.0  0.84702  0.35106  0.53355  1.0000
  Fe  Fe74      1.0  0.85104  0.06107  0.57856  1.0000
  C   C1119     1.0  0.96675  0.09891  0.76718  1.0000
  S   S147      1.0  0.86088  0.06603  0.52445  1.0000
  Fe  Fe75      1.0  0.83182  0.11372  0.62702  1.0000
  S   S148      1.0  0.82521  0.06940  0.66461  1.0000
  S   S149      1.0  0.81870  0.16970  0.62178  1.0000
  Fe  Fe76      1.0  0.85570  0.05060  0.65358  1.0000
  S   S150      1.0  0.87298  0.03165  0.69898  1.0000
  Fe  Fe77      1.0  0.81659  0.03474  0.62160  1.0000
  C   C1120     1.0  0.89629  0.35932  0.96822  1.0000
  S   S151      1.0  0.86249  0.09739  0.61846  1.0000
  S   S152      1.0  0.82103  0.07984  0.58525  1.0000
  Fe  Fe78      1.0  0.80671  0.44066  0.63807  1.0000
  S   S153      1.0  0.81828  0.39465  0.60763  1.0000
  C   C1121     1.0  0.67920  0.07133  0.64204  1.0000
  Fe  Fe79      1.0  0.84793  0.46178  0.66010  1.0000
  S   S154      1.0  0.86140  0.41771  0.63010  1.0000
  H   H888      1.0  0.81783  0.03015  0.49792  1.0000
  Fe  Fe80      1.0  0.84131  0.43319  0.58965  1.0000
  C   C1122     1.0  0.79600  0.13633  0.52367  1.0000
  Fe  Fe81      1.0  0.83727  0.38216  0.65003  1.0000
  S   S155      1.0  0.84595  0.32628  0.66824  1.0000
  S   S156      1.0  0.82446  0.42556  0.68257  1.0000
  H   H889      1.0  0.87109  0.37628  0.57052  1.0000
  C   C1123     1.0  0.78603  0.30947  0.57705  1.0000
  S   S157      1.0  0.77423  0.44494  0.62854  1.0000
  C   C1124     1.0  0.85434  0.33318  0.55012  1.0000
  C   C1125     1.0  0.82684  0.21287  0.63481  1.0000
  C   C1126     1.0  0.81626  0.24326  0.62600  1.0000
  C   C1127     1.0  0.82199  0.27807  0.63580  1.0000
  C   C1128     1.0  0.83833  0.28298  0.65475  1.0000
  C   C1129     1.0  0.84883  0.25255  0.66377  1.0000
  C   C1130     1.0  0.84325  0.21774  0.65363  1.0000
  H   H890      1.0  0.80345  0.23985  0.61177  1.0000
  H   H891      1.0  0.81360  0.30113  0.62945  1.0000
  H   H892      1.0  0.86142  0.25597  0.67866  1.0000
  H   H893      1.0  0.85150  0.19469  0.66077  1.0000
  C   C1131     1.0  0.68749  0.08969  0.58556  1.0000
  C   C1132     1.0  0.74961  0.42230  0.50289  1.0000
  H   H894      1.0  0.71312  0.01475  0.56535  1.0000
  H   H895      1.0  0.73912  0.02486  0.69210  1.0000
  H   H896      1.0  0.82011  0.10305  0.51123  1.0000
  H   H897      1.0  0.97984  0.03892  0.73748  1.0000
  C   C1133     1.0  0.69841  0.06410  0.64769  1.0000
  H   H898      1.0  0.77008  0.16612  0.52979  1.0000
  H   H899      1.0  0.88325  0.48137  0.60164  1.0000
  H   H900      1.0  0.85611  0.24593  0.57606  1.0000
  H   H901      1.0  0.80127  0.14335  0.54803  1.0000
  C   C1134     1.0  0.84287  0.16971  0.52994  1.0000
  P   P39       1.0  0.94622  0.41591  0.98083  1.0000
  C   C1135     1.0  0.78608  0.39260  0.50705  1.0000
  H   H902      1.0  0.79651  0.45458  0.56385  1.0000
  C   C1136     1.0  0.95616  0.07341  0.78617  1.0000
  H   H903      1.0  0.90369  0.45926  0.64667  1.0000
  C   C1137     1.0  0.97429  0.02672  0.96900  1.0000
  C   C1138     1.0  0.80442  0.48265  0.51852  1.0000
  H   H904      1.0  0.93091  0.12740  0.71752  1.0000
  H   H905      1.0  0.78045  0.39051  0.56001  1.0000
  C   C1139     1.0  0.96337  0.42802  0.94802  1.0000
  H   H906      1.0  0.79927  0.22859  0.52116  1.0000
  H   H907      1.0  0.84098  0.14885  0.54879  1.0000
  C   C1140     1.0  0.93121  0.36920  0.93349  1.0000
  C   C1141     1.0  0.70205  0.08333  0.50450  1.0000
  S   S158      1.0  0.99152  0.00051  0.81054  1.0000
  C   C1142     1.0  0.75554  0.05021  0.53534  1.0000
  C   C1143     1.0  0.73704  0.04935  0.54982  1.0000
  P   P40       1.0  0.72516  0.09075  0.55951  1.0000
  C   C1144     1.0  0.70684  0.08235  0.59107  1.0000
  C   C1145     1.0  0.74151  0.12215  0.57876  1.0000
  C   C1146     1.0  0.73636  0.15822  0.58282  1.0000
  C   C1147     1.0  0.74865  0.18236  0.59866  1.0000
  C   C1148     1.0  0.76598  0.17052  0.61115  1.0000
  C   C1149     1.0  0.77077  0.13436  0.60864  1.0000
  C   C1150     1.0  0.75850  0.11015  0.59302  1.0000
  C   C1151     1.0  0.71218  0.06938  0.62229  1.0000
  C   C1152     1.0  0.71519  0.10570  0.52078  1.0000
  H   H908      1.0  0.81279  0.46072  0.50881  1.0000
  C   C1153     1.0  0.89643  0.47164  0.72056  1.0000
  C   C1154     1.0  0.86102  0.02942  0.49677  1.0000
  C   C1155     1.0  0.77845  0.14933  0.51327  1.0000
  C   C1156     1.0  0.67361  0.44553  0.64879  1.0000
  C   C1157     1.0  0.72118  0.13810  0.50546  1.0000
  C   C1158     1.0  0.75535  0.47468  0.64042  1.0000
  H   H909      1.0  0.72266  0.16750  0.57435  1.0000
  H   H910      1.0  0.74460  0.21010  0.60197  1.0000
  H   H911      1.0  0.77556  0.18901  0.62364  1.0000
  H   H912      1.0  0.78389  0.12492  0.61946  1.0000
  H   H913      1.0  0.76224  0.08202  0.59308  1.0000
  H   H914      1.0  0.72700  0.06324  0.62705  1.0000
  P   P41       1.0  0.83283  0.27755  0.52247  1.0000
  H   H915      1.0  0.91942  0.44748  0.74758  1.0000
  H   H916      1.0  0.66134  0.41414  0.61020  1.0000
  S   S159      1.0  0.82915  0.47989  0.61766  1.0000
  C   C1159     1.0  0.98681  0.10120  0.84139  1.0000
  H   H917      1.0  0.94725  0.47277  0.92885  1.0000
  H   H918      1.0  0.96069  0.03698  0.96120  1.0000
  H   H919      1.0  0.74818  0.41620  0.55635  1.0000
  C   C1160     1.0  0.74348  0.00895  0.67090  1.0000
  C   C1161     1.0  0.93795  0.11279  0.73702  1.0000
  C   C1162     1.0  0.91053  0.38165  0.98118  1.0000
  H   H920      1.0  0.77968  0.01915  0.51914  1.0000
  C   C1163     1.0  0.67372  0.08383  0.61091  1.0000
  H   H921      1.0  0.90927  0.02205  0.66048  1.0000
  S   S160      1.0  0.79114  0.99739  0.61063  1.0000
  H   H922      1.0  0.70262  0.05378  0.67166  1.0000
  C   C1164     1.0  0.93660  0.06817  0.78098  1.0000
  C   C1165     1.0  0.92752  0.08762  0.75626  1.0000
  S   S161      1.0  0.84638  0.01334  0.61249  1.0000
  C   C1166     1.0  0.79499  0.47890  0.54929  1.0000
  H   H923      1.0  0.88841  0.32494  0.92766  1.0000
  C   C1167     1.0  0.95749  0.11848  0.74244  1.0000
  H   H924      1.0  0.91937  0.33367  0.89696  1.0000
  H   H925      1.0  0.96300  0.05686  0.80448  1.0000
  C   C1168     1.0  0.83954  0.23200  0.51273  1.0000
  C   C1169     1.0  0.73890  0.47623  0.62081  1.0000
  H   H926      1.0  0.85746  0.13531  0.49516  1.0000
  H   H927      1.0  0.75859  0.28310  0.58386  1.0000
  S   S162      1.0  0.97635  0.99735  0.90575  1.0000
  H   H928      1.0  0.80041  0.38194  0.50887  1.0000
  C   C1170     1.0  0.77748  0.25291  0.55167  1.0000
  H   H929      1.0  0.69725  0.05808  0.51570  1.0000
  C   C1171     1.0  0.85073  0.46455  0.50603  1.0000
  C   C1172     1.0  0.76801  0.99290  0.62977  1.0000
  C   C1173     1.0  0.76199  0.01409  0.65654  1.0000
  H   H930      1.0  0.89005  0.44618  0.71372  1.0000
  C   C1174     1.0  0.80663  0.11372  0.50293  1.0000
  C   C1175     1.0  0.80948  0.27833  0.54267  1.0000
  H   H931      1.0  0.91247  0.08262  0.75155  1.0000
  H   H932      1.0  0.73815  0.46003  0.59871  1.0000
  H   H933      1.0  0.77170  0.03397  0.66653  1.0000
  H   H934      1.0  0.78243  0.33179  0.59313  1.0000
  H   H935      1.0  0.76710  0.23164  0.54764  1.0000
  H   H936      1.0  0.71397  0.48285  0.53547  1.0000
  C   C1176     1.0  0.83630  0.20434  0.53622  1.0000
  C   C1177     1.0  0.97271  0.46455  0.89982  1.0000
  C   C1178     1.0  0.76504  0.01828  0.52859  1.0000
  C   C1179     1.0  0.77486  0.39735  0.53587  1.0000
  C   C1180     1.0  0.75666  0.41212  0.53379  1.0000
  H   H937      1.0  0.96537  0.13755  0.72678  1.0000
  H   H938      1.0  0.73552  0.43392  0.50193  1.0000
  H   H939      1.0  0.76290  0.07550  0.53019  1.0000
  C   C1181     1.0  0.98533  0.00611  0.94652  1.0000
  C   C1182     1.0  0.79580  0.25116  0.53690  1.0000
  C   C1183     1.0  0.86789  0.34775  0.57137  1.0000
  H   H940      1.0  0.91571  0.45986  0.95388  1.0000
  H   H941      1.0  0.68282  0.09972  0.56187  1.0000
  C   C1184     1.0  0.89965  0.00424  0.74211  1.0000
  C   C1185     1.0  0.72755  0.01615  0.55479  1.0000
  H   H942      1.0  0.88682  0.33740  0.61169  1.0000
  S   S163      1.0  0.84839  0.42807  0.53426  1.0000
  C   C1186     1.0  0.85016  0.29617  0.55067  1.0000
  C   C1187     1.0  0.87695  0.32579  0.59421  1.0000
  C   C1188     1.0  0.89946  0.34209  0.93785  1.0000
  H   H943      1.0  0.73161  0.15545  0.51686  1.0000
  C   C1189     1.0  0.87273  0.28905  0.59532  1.0000
  H   H944      1.0  0.98303  0.38524  0.95930  1.0000
  C   C1190     1.0  0.80430  0.30789  0.56217  1.0000
  C   C1191     1.0  0.85939  0.27424  0.57376  1.0000
  C   C1192     1.0  0.98002  0.40770  0.94315  1.0000
  H   H945      1.0  0.82924  0.20974  0.55991  1.0000
  H   H946      1.0  0.92860  0.04819  0.79550  1.0000
  H   H947      1.0  0.87933  0.27221  0.61376  1.0000
  C   C1193     1.0  0.90731  0.48440  0.63411  1.0000
  H   H948      1.0  0.97351  0.11507  0.83759  1.0000
  H   H949      1.0  0.81451  0.32939  0.56654  1.0000
  H   H950      1.0  0.97012  0.48701  0.88330  1.0000
  H   H951      1.0  0.68825  0.44035  0.64079  1.0000
  C   C1194     1.0  0.91316  0.47250  0.73987  1.0000
  C   C1195     1.0  0.86097  0.99378  0.50797  1.0000
  C   C1196     1.0  0.85222  0.16211  0.49978  1.0000
  H   H952      1.0  0.68212  0.47958  0.68914  1.0000
  H   H953      1.0  0.66853  0.06662  0.66163  1.0000
  C   C1197     1.0  0.89628  0.01542  0.70917  1.0000
  C   C1198     1.0  0.92963  0.00111  0.69542  1.0000
  C   C1199     1.0  0.77265  0.28194  0.57192  1.0000
  C   C1200     1.0  0.95981  0.45646  0.92600  1.0000
  C   C1201     1.0  0.92802  0.38696  0.96377  1.0000
  C   C1202     1.0  0.91147  0.01363  0.68587  1.0000
  H   H954      1.0  0.98134  0.09474  0.89417  1.0000
  C   C1203     1.0  0.67018  0.46759  0.67619  1.0000
  C   C1204     1.0  0.92012  0.47179  0.97703  1.0000
  H   H955      1.0  0.94461  0.37259  0.91963  1.0000
  C   C1205     1.0  0.91692  0.34699  0.92055  1.0000
  H   H956      1.0  0.94118  0.00004  0.67707  1.0000
  H   H957      1.0  0.88810  0.00543  0.76046  1.0000
  H   H958      1.0  0.99143  0.16945  0.81266  1.0000
  H   H959      1.0  0.88278  0.35538  0.98165  1.0000
  C   C1206     1.0  0.91778  0.99160  0.75162  1.0000
  C   C1207     1.0  0.98939  0.44472  0.89561  1.0000
  C   C1208     1.0  0.99123  0.08999  0.87354  1.0000
  Fe  Fe82      1.0  0.81470  0.95975  0.33222  1.0000
  S   S164      1.0  0.82467  0.91006  0.35898  1.0000
  S   S165      1.0  0.98507  0.49944  0.05728  1.0000
  Fe  Fe83      1.0  0.85539  0.97318  0.30016  1.0000
  S   S166      1.0  0.86753  0.92471  0.32505  1.0000
  H   H960      1.0  0.91190  0.58588  0.13852  1.0000
  Fe  Fe84      1.0  0.84020  0.89582  0.31162  1.0000
  S   S167      1.0  0.84216  0.83993  0.28845  1.0000
  Fe  Fe85      1.0  0.85100  0.94252  0.37054  1.0000
  S   S168      1.0  0.86293  0.93675  0.42215  1.0000
  S   S169      1.0  0.82870  0.94351  0.28335  1.0000
  H   H961      1.0  0.69492  0.77928  0.33979  1.0000
  Fe  Fe86      1.0  0.86556  0.56967  0.30422  1.0000
  S   S170      1.0  0.86525  0.60636  0.34891  1.0000
  S   S171      1.0  0.89187  0.56908  0.26794  1.0000
  Fe  Fe87      1.0  0.82325  0.54753  0.31630  1.0000
  S   S172      1.0  0.82035  0.58212  0.36112  1.0000
  H   H962      1.0  0.85057  0.84471  0.42438  1.0000
  Fe  Fe88      1.0  0.83659  0.62544  0.33237  1.0000
  S   S173      1.0  0.82480  0.68126  0.34536  1.0000
  Fe  Fe89      1.0  0.84897  0.56170  0.37565  1.0000
  C   C1209     1.0  0.67974  0.86057  0.39379  1.0000
  S   S174      1.0  0.83757  0.59192  0.28573  1.0000
  S   S175      1.0  0.85124  0.52339  0.33234  1.0000
  C   C1210     1.0  0.83829  0.79622  0.30608  1.0000
  C   C1211     1.0  0.84443  0.76608  0.28797  1.0000
  C   C1212     1.0  0.84102  0.73081  0.30007  1.0000
  C   C1213     1.0  0.83108  0.72513  0.33028  1.0000
  C   C1214     1.0  0.82496  0.75526  0.34852  1.0000
  C   C1215     1.0  0.82867  0.79059  0.33669  1.0000
  H   H963      1.0  0.85182  0.77004  0.26424  1.0000
  H   H964      1.0  0.84572  0.70801  0.28563  1.0000
  H   H965      1.0  0.81715  0.75118  0.37180  1.0000
  H   H966      1.0  0.82377  0.81342  0.35084  1.0000
  S   S176      1.0  0.79871  0.51321  0.29549  1.0000
  H   H967      1.0  0.91646  0.89128  0.33844  1.0000
  H   H968      1.0  0.81293  0.97347  0.40582  1.0000
  C   C1216     1.0  0.91919  0.91978  0.34167  1.0000
  C   C1217     1.0  0.86188  0.97274  0.45049  1.0000
  H   H969      1.0  0.97060  0.94499  0.35710  1.0000
  C   C1218     1.0  0.90998  0.53834  0.25460  1.0000
  C   C1219     1.0  0.85222  0.52172  0.45946  1.0000
  C   C1220     1.0  0.73036  0.93358  0.28999  1.0000
  C   C1221     1.0  0.70338  0.91158  0.44886  1.0000
  H   H970      1.0  0.74458  0.53304  0.37508  1.0000
  C   C1222     1.0  0.94858  0.58007  0.33977  1.0000
  H   H971      1.0  0.93608  0.95938  0.24290  1.0000
  H   H972      1.0  0.77845  0.54064  0.35487  1.0000
  H   H973      1.0  0.96494  0.53485  0.00456  1.0000
  H   H974      1.0  0.89930  0.92419  0.38320  1.0000
  H   H975      1.0  0.77294  0.91005  0.46829  1.0000
  H   H976      1.0  0.99140  0.65542  0.19749  1.0000
  H   H977      1.0  0.89196  0.53092  0.14386  1.0000
  H   H978      1.0  0.78560  0.70030  0.48667  1.0000
  C   C1223     1.0  0.81161  0.80214  0.45983  1.0000
  C   C1224     1.0  0.74915  0.52093  0.35200  1.0000
  H   H979      1.0  0.94345  0.98402  0.02104  1.0000
  H   H980      1.0  0.71424  0.96645  0.25676  1.0000
  C   C1225     1.0  0.82780  0.80769  0.43916  1.0000
  H   H981      1.0  0.81488  0.59492  0.45016  1.0000
  C   C1226     1.0  0.99138  0.50784  0.01409  1.0000
  H   H982      1.0  0.68579  0.93864  0.34922  1.0000
  C   C1227     1.0  0.74444  0.60618  0.27786  1.0000
  C   C1228     1.0  0.76247  0.59405  0.26763  1.0000
  C   C1229     1.0  0.77817  0.59908  0.28802  1.0000
  C   C1230     1.0  0.77573  0.61488  0.31921  1.0000
  C   C1231     1.0  0.75751  0.62557  0.33037  1.0000
  C   C1232     1.0  0.74204  0.62264  0.30882  1.0000
  P   P42       1.0  0.75450  0.64652  0.37048  1.0000
  C   C1233     1.0  0.73252  0.63209  0.39194  1.0000
  C   C1234     1.0  0.77344  0.63138  0.39691  1.0000
  C   C1235     1.0  0.77272  0.59602  0.40931  1.0000
  H   H983      1.0  0.78713  0.55536  0.43709  1.0000
  C   C1236     1.0  0.80302  0.60534  0.43625  1.0000
  C   C1237     1.0  0.80383  0.64061  0.42418  1.0000
  C   C1238     1.0  0.78908  0.65370  0.40474  1.0000
  C   C1239     1.0  0.72670  0.64910  0.42151  1.0000
  C   C1240     1.0  0.71013  0.63752  0.43896  1.0000
  H   H984      1.0  0.68653  0.59954  0.44083  1.0000
  C   C1241     1.0  0.78744  0.58306  0.42880  1.0000
  C   C1242     1.0  0.72207  0.60181  0.38136  1.0000
  C   C1243     1.0  0.75620  0.69437  0.36216  1.0000
  C   C1244     1.0  0.77223  0.70839  0.34436  1.0000
  C   C1245     1.0  0.77392  0.74521  0.33767  1.0000
  C   C1246     1.0  0.75949  0.76838  0.34820  1.0000
  C   C1247     1.0  0.74317  0.75459  0.36491  1.0000
  C   C1248     1.0  0.74139  0.71770  0.37150  1.0000
  H   H985      1.0  0.73230  0.60254  0.26189  1.0000
  H   H986      1.0  0.76435  0.58075  0.24392  1.0000
  H   H987      1.0  0.79220  0.59005  0.27992  1.0000
  H   H988      1.0  0.78813  0.61875  0.33445  1.0000
  H   H989      1.0  0.72804  0.63240  0.31613  1.0000
  H   H990      1.0  0.93483  0.58239  0.35266  1.0000
  H   H991      1.0  0.96714  0.57337  0.26137  1.0000
  C   C1249     1.0  0.69838  0.93708  0.33299  1.0000
  H   H992      1.0  0.81634  0.65734  0.42863  1.0000
  H   H993      1.0  0.79042  0.68082  0.39524  1.0000
  H   H994      1.0  0.73496  0.67140  0.43107  1.0000
  C   C1250     1.0  0.86165  0.96554  0.48485  1.0000
  H   H995      1.0  0.73852  0.89948  0.47954  1.0000
  H   H996      1.0  0.99024  0.63101  0.25476  1.0000
  H   H997      1.0  0.72670  0.58638  0.36003  1.0000
  H   H998      1.0  0.78357  0.69089  0.33572  1.0000
  H   H999      1.0  0.78647  0.75562  0.32412  1.0000
  H   H1000     1.0  0.76090  0.79691  0.34292  1.0000
  H   H1001     1.0  0.73179  0.77239  0.37246  1.0000
  H   H1002     1.0  0.72831  0.70765  0.38327  1.0000
  C   C1251     1.0  0.69941  0.60843  0.42737  1.0000
  C   C1252     1.0  0.92322  0.54908  0.22926  1.0000
  C   C1253     1.0  0.67257  0.80221  0.37040  1.0000
  H   H1003     1.0  0.76257  0.65667  0.46318  1.0000
  C   C1254     1.0  0.69818  0.95374  0.30175  1.0000
  H   H1004     1.0  0.97707  0.95293  0.41691  1.0000
  C   C1255     1.0  0.98606  0.96656  0.39829  1.0000
  H   H1005     1.0  0.92226  0.57571  0.21855  1.0000
  H   H1006     1.0  0.66261  0.77999  0.36690  1.0000
  H   H1007     1.0  0.96466  0.57689  0.38461  1.0000
  H   H1008     1.0  0.70668  0.97518  0.38747  1.0000
  C   C1256     1.0  0.91557  0.49463  0.13532  1.0000
  H   H1009     1.0  0.93931  0.92386  0.30038  1.0000
  H   H1010     1.0  0.69757  0.56694  0.39029  1.0000
  C   C1257     1.0  0.71420  0.95229  0.28041  1.0000
  C   C1258     1.0  0.83189  0.86728  0.46184  1.0000
  C   C1259     1.0  0.69407  0.96994  0.46928  1.0000
  C   C1260     1.0  0.69080  0.80174  0.35526  1.0000
  C   C1261     1.0  0.70357  0.83055  0.35958  1.0000
  C   C1262     1.0  0.69831  0.85972  0.37959  1.0000
  C   C1263     1.0  0.94940  0.57917  0.30508  1.0000
  P   P43       1.0  0.71471  0.89724  0.38356  1.0000
  C   C1264     1.0  0.70677  0.92614  0.41691  1.0000
  C   C1265     1.0  0.73818  0.88218  0.39495  1.0000
  C   C1266     1.0  0.74072  0.84803  0.40913  1.0000
  C   C1267     1.0  0.75915  0.83627  0.41635  1.0000
  C   C1268     1.0  0.77508  0.85861  0.40969  1.0000
  C   C1269     1.0  0.77253  0.89306  0.39680  1.0000
  C   C1270     1.0  0.75415  0.90504  0.39010  1.0000
  C   C1271     1.0  0.90859  0.98285  0.25458  1.0000
  H   H1011     1.0  0.84002  0.89220  0.46263  1.0000
  C   C1272     1.0  0.90948  0.93832  0.36682  1.0000
  H   H1012     1.0  0.81310  0.50219  0.41949  1.0000
  C   C1273     1.0  0.71482  0.91923  0.34332  1.0000
  C   C1274     1.0  0.73061  0.91668  0.32111  1.0000
  S   S177      1.0  0.78429  0.97635  0.34940  1.0000
  H   H1013     1.0  0.91136  0.54534  0.02457  1.0000
  C   C1275     1.0  0.93519  0.97511  0.32393  1.0000
  H   H1014     1.0  0.71748  0.83034  0.34701  1.0000
  H   H1015     1.0  0.72857  0.83035  0.41442  1.0000
  H   H1016     1.0  0.67488  0.88363  0.40776  1.0000
  H   H1017     1.0  0.78943  0.84928  0.41429  1.0000
  H   H1018     1.0  0.78481  0.91043  0.39126  1.0000
  H   H1019     1.0  0.75252  0.93176  0.37993  1.0000
  H   H1020     1.0  0.98567  0.50801  0.25377  1.0000
  C   C1276     1.0  0.76833  0.65188  0.48746  1.0000
  C   C1277     1.0  0.91749  0.52008  0.01683  1.0000
  H   H1021     1.0  0.74322  0.90191  0.32747  1.0000
  S   S178      1.0  0.85256  0.55879  0.43176  1.0000
  H   H1022     1.0  0.69605  0.53839  0.46169  1.0000
  H   H1023     1.0  0.83259  0.78677  0.42237  1.0000
  C   C1278     1.0  0.80936  0.94136  0.45030  1.0000
  C   C1279     1.0  0.98409  0.57413  0.30599  1.0000
  H   H1024     1.0  0.68577  0.96854  0.29424  1.0000
  C   C1280     1.0  0.89197  0.95738  0.18082  1.0000
  H   H1025     1.0  0.74287  0.93282  0.27354  1.0000
  C   C1281     1.0  0.70551  0.59033  0.39880  1.0000
  H   H1026     1.0  0.90327  0.95977  0.26863  1.0000
  C   C1282     1.0  0.69710  0.93345  0.47497  1.0000
  C   C1283     1.0  0.93762  0.52570  0.21744  1.0000
  C   C1284     1.0  0.70398  0.96297  0.41158  1.0000
  H   H1027     1.0  0.91584  0.97226  0.14944  1.0000
  C   C1285     1.0  0.91840  0.55985  0.13526  1.0000
  C   C1286     1.0  0.98241  0.96210  0.36458  1.0000
  C   C1287     1.0  0.93206  0.93814  0.32029  1.0000
  H   H1028     1.0  0.75483  0.51153  0.44303  1.0000
  C   C1288     1.0  0.76836  0.52519  0.34062  1.0000
  H   H1029     1.0  0.76101  0.57815  0.40320  1.0000
  C   C1289     1.0  0.90717  0.52855  0.13854  1.0000
  H   H1030     1.0  0.70532  0.88318  0.45347  1.0000
  C   C1290     1.0  0.66701  0.83170  0.38947  1.0000
  H   H1031     1.0  0.94494  0.98869  0.30661  1.0000
  C   C1291     1.0  0.80950  0.94086  0.48522  1.0000
  H   H1032     1.0  0.70556  0.65098  0.46155  1.0000
  C   C1292     1.0  0.92724  0.98271  0.23988  1.0000
  C   C1293     1.0  0.72616  0.52879  0.45277  1.0000
  C   C1294     1.0  0.96701  0.57561  0.28822  1.0000
  H   H1033     1.0  0.89931  0.93493  0.19180  1.0000
  H   H1034     1.0  0.80392  0.77669  0.45918  1.0000
  C   C1295     1.0  0.70683  0.51866  0.45578  1.0000
  C   C1296     1.0  0.94645  0.52400  0.12454  1.0000
  H   H1035     1.0  0.74012  0.96603  0.46206  1.0000
  C   C1297     1.0  0.81528  0.86252  0.48181  1.0000
  H   H1036     1.0  0.87131  0.50542  0.24086  1.0000
  C   C1298     1.0  0.73573  0.50095  0.33388  1.0000
  C   C1299     1.0  0.96540  0.57710  0.35769  1.0000
  C   C1300     1.0  0.98307  0.57372  0.34089  1.0000
  C   C1301     1.0  0.81247  0.97347  0.43275  1.0000
  H   H1037     1.0  0.80742  0.91689  0.43643  1.0000
  H   H1038     1.0  0.73035  0.55661  0.45610  1.0000
  H   H1039     1.0  0.76114  0.80965  0.42662  1.0000
  H   H1040     1.0  0.94761  0.53448  0.19801  1.0000
  H   H1041     1.0  0.96164  0.52222  0.11870  1.0000
  C   C1302     1.0  0.93804  0.55758  0.12818  1.0000
  H   H1042     1.0  0.94679  0.58177  0.12566  1.0000
  C   C1303     1.0  0.83796  0.84024  0.44029  1.0000
  C   C1304     1.0  0.87339  0.96543  0.19167  1.0000
  H   H1043     1.0  0.90452  0.98908  0.38985  1.0000
  H   H1044     1.0  0.93627  0.58066  0.29129  1.0000
  H   H1045     1.0  0.89173  0.49754  0.08064  1.0000
  H   H1046     1.0  0.90156  0.49500  0.28767  1.0000
  H   H1047     1.0  0.99095  0.97530  0.31460  1.0000
  C   C1305     1.0  0.69732  0.98459  0.43754  1.0000
  C   C1306     1.0  0.80536  0.82941  0.48118  1.0000
  C   C1307     1.0  0.95842  0.98573  0.06709  1.0000
  H   H1048     1.0  0.77078  0.96848  0.42934  1.0000
  H   H1049     1.0  0.81156  0.51843  0.47775  1.0000
  C   C1308     1.0  0.74002  0.50306  0.44535  1.0000
  H   H1050     1.0  0.93614  0.51677  0.05854  1.0000
  C   C1309     1.0  0.91150  0.50378  0.26814  1.0000
  C   C1310     1.0  0.93897  0.49098  0.23065  1.0000
  H   H1051     1.0  0.89816  0.49382  0.20154  1.0000
  S   S179      1.0  0.71141  0.49896  0.34873  1.0000
  C   C1311     1.0  0.77451  0.50919  0.31090  1.0000
  C   C1312     1.0  0.90138  0.97898  0.15681  1.0000
  H   H1052     1.0  0.97149  0.97466  0.05651  1.0000
  H   H1053     1.0  0.86639  0.94941  0.21118  1.0000
  C   C1313     1.0  0.97835  0.52595  0.99379  1.0000
  C   C1314     1.0  0.91243  0.97528  0.37036  1.0000
  C   C1315     1.0  0.93135  0.50390  0.03612  1.0000
  C   C1316     1.0  0.93531  0.49265  0.12825  1.0000
  Fe  Fe90      1.0  0.68140  0.95447  0.65182  1.0000
  S   S180      1.0  0.68124  0.93966  0.59800  1.0000
  Fe  Fe91      1.0  0.98655  0.96809  0.85765  1.0000
  Fe  Fe92      1.0  0.67645  0.56354  0.64648  1.0000
  S   S181      1.0  0.70472  0.54800  0.67091  1.0000
  S   S182      1.0  0.67649  0.60979  0.61010  1.0000
  H   H1054     1.0  0.73215  0.73177  0.73501  1.0000
  H   H1055     1.0  0.67113  0.73196  0.74612  1.0000
  S   S183      1.0  0.96787  0.92747  0.83104  1.0000
  H   H1056     1.0  0.94652  0.94035  0.92464  1.0000
  H   H1057     1.0  0.79942  0.68866  0.54192  1.0000
  C   C1317     1.0  0.78925  0.57753  0.64986  1.0000
  Fe  Fe93      1.0  0.97483  0.95824  0.78345  1.0000
  P   P44       1.0  0.80690  0.89882  0.50786  1.0000
  Fe  Fe94      1.0  0.96766  0.54091  0.79254  1.0000
  C   C1318     1.0  0.77394  0.58829  0.67025  1.0000
  S   S184      1.0  0.96865  0.57964  0.83590  1.0000
  C   C1319     1.0  0.89976  0.53007  0.59368  1.0000
  H   H1058     1.0  0.71255  0.85763  0.71578  1.0000
  H   H1059     1.0  0.74069  0.53263  0.70093  1.0000
  C   C1320     1.0  0.72506  0.68172  0.71205  1.0000
  C   C1321     1.0  0.71203  0.66284  0.69261  1.0000
  H   H1060     1.0  0.74400  0.60144  0.67253  1.0000
  H   H1061     1.0  0.93144  0.49498  0.66445  1.0000
  H   H1062     1.0  0.96130  0.86631  0.75378  1.0000
  H   H1063     1.0  0.97582  0.64608  0.52962  1.0000
  H   H1064     1.0  0.88086  0.83426  0.95074  1.0000
  H   H1065     1.0  0.79125  0.56725  0.49871  1.0000
  H   H1066     1.0  0.95439  0.54682  0.57201  1.0000
  C   C1322     1.0  0.72200  0.71791  0.71960  1.0000
  H   H1067     1.0  0.84575  0.87538  0.52457  1.0000
  C   C1323     1.0  0.71753  0.51093  0.53912  1.0000
  H   H1068     1.0  0.67445  0.84205  0.71155  1.0000
  C   C1324     1.0  0.81203  0.97339  0.50223  1.0000
  H   H1069     1.0  0.71915  0.89941  0.66929  1.0000
  C   C1325     1.0  0.75335  0.58916  0.62261  1.0000
  H   H1070     1.0  0.97952  0.92164  0.93624  1.0000
  C   C1326     1.0  0.85059  0.89336  0.57407  1.0000
  H   H1071     1.0  0.69051  0.78557  0.79005  1.0000
  C   C1327     1.0  0.96601  0.53709  0.65807  1.0000
  H   H1072     1.0  0.69409  0.92205  0.49946  1.0000
  H   H1073     1.0  0.69628  0.59233  0.54303  1.0000
  S   S185      1.0  0.86632  0.50461  0.68688  1.0000
  C   C1328     1.0  0.98791  0.78380  0.78826  1.0000
  C   C1329     1.0  0.95129  0.91410  0.91675  1.0000
  H   H1074     1.0  0.74064  0.80477  0.72707  1.0000
  C   C1330     1.0  0.67543  0.78631  0.72737  1.0000
  H   H1075     1.0  0.74316  0.82181  0.83229  1.0000
  C   C1331     1.0  0.96541  0.59454  0.54755  1.0000
  C   C1332     1.0  0.70582  0.73549  0.70769  1.0000
  H   H1076     1.0  0.71676  0.87844  0.61109  1.0000
  H   H1077     1.0  0.92000  0.98314  0.77698  1.0000
  H   H1078     1.0  0.97231  0.54712  0.94475  1.0000
  C   C1333     1.0  0.69608  0.68028  0.68040  1.0000
  H   H1079     1.0  0.74726  0.50117  0.54510  1.0000
  H   H1080     1.0  0.68586  0.66571  0.66551  1.0000
  H   H1081     1.0  0.85200  0.50553  0.54338  1.0000
  C   C1334     1.0  0.96415  0.52342  0.69060  1.0000
  C   C1335     1.0  0.82074  0.90196  0.54524  1.0000
  C   C1336     1.0  0.70987  0.82376  0.62513  1.0000
  C   C1337     1.0  0.92307  0.50489  0.64417  1.0000
  C   C1338     1.0  0.73058  0.98349  0.65798  1.0000
  H   H1082     1.0  0.70816  0.81490  0.59975  1.0000
  H   H1083     1.0  0.91964  0.56264  0.74630  1.0000
  C   C1339     1.0  0.78367  0.50662  0.56152  1.0000
  C   C1340     1.0  0.81341  0.92005  0.57322  1.0000
  C   C1341     1.0  0.82453  0.92451  0.60137  1.0000
  C   C1342     1.0  0.84314  0.91132  0.60177  1.0000
  H   H1084     1.0  0.72958  0.61159  0.55340  1.0000
  C   C1343     1.0  0.83947  0.88867  0.54590  1.0000
  C   C1344     1.0  0.78162  0.89156  0.51671  1.0000
  C   C1345     1.0  0.77512  0.87674  0.54723  1.0000
  C   C1346     1.0  0.75549  0.87132  0.55364  1.0000
  C   C1347     1.0  0.74226  0.87970  0.52936  1.0000
  C   C1348     1.0  0.76826  0.89931  0.49223  1.0000
  H   H1085     1.0  0.76345  0.96074  0.53035  1.0000
  H   H1086     1.0  0.75888  0.82253  0.77630  1.0000
  H   H1087     1.0  0.97325  0.67496  0.58496  1.0000
  C   C1349     1.0  0.88783  0.50364  0.71069  1.0000
  H   H1088     1.0  0.78512  0.86928  0.56613  1.0000
  C   C1350     1.0  0.72389  0.51929  0.65836  1.0000
  H   H1089     1.0  0.71409  0.63462  0.68720  1.0000
  H   H1090     1.0  0.68046  0.72928  0.67862  1.0000
  P   P45       1.0  0.70083  0.78158  0.71873  1.0000
  H   H1091     1.0  0.79930  0.93172  0.57310  1.0000
  H   H1092     1.0  0.81888  0.93918  0.62258  1.0000
  C   C1351     1.0  0.79194  0.54262  0.51286  1.0000
  H   H1093     1.0  0.85187  0.91565  0.62335  1.0000
  H   H1094     1.0  0.89050  0.53993  0.57451  1.0000
  H   H1095     1.0  0.79049  0.63371  0.57329  1.0000
  H   H1096     1.0  0.77620  0.50326  0.58519  1.0000
  C   C1352     1.0  0.76318  0.62059  0.50509  1.0000
  H   H1097     1.0  0.75993  0.94981  0.59731  1.0000
  C   C1353     1.0  0.85191  0.50001  0.51701  1.0000
  C   C1354     1.0  0.91548  0.55069  0.60367  1.0000
  C   C1355     1.0  0.78135  0.67643  0.50070  1.0000
  H   H1098     1.0  0.86189  0.93806  0.49365  1.0000
  C   C1356     1.0  0.78175  0.53836  0.54315  1.0000
  C   C1357     1.0  0.70540  0.79357  0.78664  1.0000
  P   P46       1.0  0.76543  0.57210  0.55788  1.0000
  C   C1358     1.0  0.74108  0.55798  0.54987  1.0000
  C   C1359     1.0  0.76866  0.57836  0.60192  1.0000
  C   C1360     1.0  0.98253  0.53313  0.95967  1.0000
  H   H1099     1.0  0.72684  0.94302  0.62079  1.0000
  H   H1100     1.0  0.98505  0.80547  0.77114  1.0000
  C   C1361     1.0  0.69302  0.71637  0.68786  1.0000
  C   C1362     1.0  0.78669  0.57285  0.61579  1.0000
  H   H1101     1.0  0.96791  0.60300  0.69420  1.0000
  C   C1363     1.0  0.70728  0.81141  0.68446  1.0000
  S   S186      1.0  0.70774  0.97663  0.67772  1.0000
  H   H1102     1.0  0.86514  0.88365  0.57422  1.0000
  H   H1103     1.0  0.67458  0.76693  0.56972  1.0000
  C   C1364     1.0  0.77094  0.61381  0.53637  1.0000
  C   C1365     1.0  0.72646  0.58346  0.54911  1.0000
  C   C1366     1.0  0.91336  0.53723  0.73913  1.0000
  H   H1104     1.0  0.88994  0.56129  0.71308  1.0000
  H   H1105     1.0  0.73741  0.66811  0.72157  1.0000
  C   C1367     1.0  0.66458  0.75757  0.74117  1.0000
  C   C1368     1.0  0.75606  0.59436  0.65657  1.0000
  C   C1369     1.0  0.89648  0.53636  0.72021  1.0000
  C   C1370     1.0  0.96997  0.90361  0.92324  1.0000
  H   H1106     1.0  0.85365  0.55583  0.50247  1.0000
  C   C1371     1.0  0.74016  0.51716  0.67831  1.0000
  H   H1107     1.0  0.90702  0.91462  0.77524  1.0000
  H   H1108     1.0  0.70161  0.77262  0.64576  1.0000
  H   H1109     1.0  0.77582  0.59110  0.69676  1.0000
  H   H1110     1.0  0.75056  0.86048  0.57749  1.0000
  H   H1111     1.0  0.79878  0.56450  0.60047  1.0000
  C   C1372     1.0  0.70757  0.57267  0.54339  1.0000
  C   C1373     1.0  0.73646  0.52160  0.54457  1.0000
  C   C1374     1.0  0.73510  0.81396  0.81074  1.0000
  C   C1375     1.0  0.74396  0.81435  0.77921  1.0000
  H   H1112     1.0  0.70899  0.80319  0.83891  1.0000
  C   C1376     1.0  0.71585  0.80350  0.81446  1.0000
  C   C1377     1.0  0.71218  0.84750  0.69063  1.0000
  H   H1113     1.0  0.94333  0.71737  0.80190  1.0000
  H   H1114     1.0  0.66624  0.70737  0.59512  1.0000
  H   H1115     1.0  0.79279  0.82464  0.49692  1.0000
  C   C1378     1.0  0.91809  0.89602  0.78201  1.0000
  C   C1379     1.0  0.93393  0.89143  0.76063  1.0000
  C   C1380     1.0  0.94866  0.86868  0.76975  1.0000
  C   C1381     1.0  0.94743  0.85007  0.80004  1.0000
  C   C1382     1.0  0.93130  0.85357  0.82118  1.0000
  C   C1383     1.0  0.91686  0.87748  0.81238  1.0000
  P   P47       1.0  0.93066  0.83122  0.86115  1.0000
  C   C1384     1.0  0.93848  0.78531  0.85792  1.0000
  C   C1385     1.0  0.94568  0.85827  0.88728  1.0000
  C   C1386     1.0  0.93923  0.89170  0.89857  1.0000
  C   C1387     1.0  0.78400  0.63862  0.54956  1.0000
  H   H1116     1.0  0.80305  0.57219  0.66052  1.0000
  H   H1117     1.0  0.93504  0.90638  0.73741  1.0000
  C   C1388     1.0  0.96448  0.84801  0.89379  1.0000
  C   C1389     1.0  0.94407  0.76670  0.88649  1.0000
  C   C1390     1.0  0.94964  0.73083  0.88440  1.0000
  C   C1391     1.0  0.94931  0.71309  0.85392  1.0000
  C   C1392     1.0  0.94327  0.73112  0.82557  1.0000
  C   C1393     1.0  0.93779  0.76703  0.82752  1.0000
  C   C1394     1.0  0.90650  0.82761  0.87784  1.0000
  C   C1395     1.0  0.89161  0.81656  0.85724  1.0000
  C   C1396     1.0  0.87290  0.81272  0.87012  1.0000
  C   C1397     1.0  0.86900  0.81935  0.90375  1.0000
  C   C1398     1.0  0.88383  0.82957  0.92457  1.0000
  C   C1399     1.0  0.90256  0.83345  0.91175  1.0000
  C   C1400     1.0  0.97069  0.63064  0.55107  1.0000
  H   H1118     1.0  0.96640  0.58197  0.52336  1.0000
  C   C1401     1.0  0.75526  0.96691  0.61743  1.0000
  H   H1119     1.0  0.95927  0.83362  0.80741  1.0000
  H   H1120     1.0  0.90483  0.88241  0.82908  1.0000
  H   H1121     1.0  0.92510  0.90095  0.89248  1.0000
  H   H1122     1.0  0.72706  0.87539  0.53440  1.0000
  H   H1123     1.0  0.96125  0.64043  0.63370  1.0000
  C   C1402     1.0  0.74868  0.89338  0.49855  1.0000
  H   H1124     1.0  0.97018  0.82329  0.88393  1.0000
  H   H1125     1.0  0.94424  0.78000  0.91035  1.0000
  H   H1126     1.0  0.95438  0.71681  0.90632  1.0000
  H   H1127     1.0  0.95403  0.68553  0.85201  1.0000
  C   C1403     1.0  0.66648  0.81929  0.72178  1.0000
  H   H1128     1.0  0.93310  0.78034  0.80523  1.0000
  H   H1129     1.0  0.89450  0.81082  0.83123  1.0000
  H   H1130     1.0  0.86145  0.80439  0.85404  1.0000
  H   H1131     1.0  0.97908  0.74216  0.75442  1.0000
  H   H1132     1.0  0.97715  0.49275  0.72938  1.0000
  H   H1133     1.0  0.91393  0.84063  0.92842  1.0000
  C   C1404     1.0  0.94694  0.63328  0.72133  1.0000
  C   C1405     1.0  0.92768  0.64252  0.72453  1.0000
  C   C1406     1.0  0.91438  0.62858  0.70243  1.0000
  C   C1407     1.0  0.92030  0.60511  0.67730  1.0000
  C   C1408     1.0  0.93959  0.59521  0.67430  1.0000
  C   C1409     1.0  0.95292  0.60989  0.69623  1.0000
  P   P48       1.0  0.94753  0.56532  0.64174  1.0000
  C   C1410     1.0  0.98270  0.52978  0.63922  1.0000
  C   C1411     1.0  0.95686  0.59099  0.60648  1.0000
  C   C1412     1.0  0.96237  0.62719  0.60987  1.0000
  S   S187      1.0  0.95638  0.97442  0.73865  1.0000
  C   C1413     1.0  0.73357  0.80439  0.75136  1.0000
  C   C1414     1.0  0.92178  0.50523  0.74943  1.0000
  H   H1134     1.0  0.72975  0.95867  0.55182  1.0000
  Fe  Fe95      1.0  0.98818  0.61448  0.80259  1.0000
  H   H1135     1.0  0.73919  0.59285  0.61295  1.0000
  S   S188      1.0  0.66371  0.90617  0.66868  1.0000
  S   S189      1.0  0.98295  0.67380  0.78740  1.0000
  C   C1415     1.0  0.97657  0.87062  0.91169  1.0000
  S   S190      1.0  0.94279  0.50432  0.77455  1.0000
  C   C1416     1.0  0.70608  0.79977  0.65145  1.0000
  C   C1417     1.0  0.98464  0.74771  0.77874  1.0000
  H   H1136     1.0  0.85450  0.81627  0.91374  1.0000
  C   C1418     1.0  0.89568  0.49695  0.60889  1.0000
  C   C1419     1.0  0.71586  0.87142  0.66425  1.0000
  H   H1137     1.0  0.95725  0.64393  0.73859  1.0000
  H   H1138     1.0  0.92307  0.66021  0.74435  1.0000
  H   H1139     1.0  0.89939  0.63533  0.70518  1.0000
  H   H1140     1.0  0.90968  0.59414  0.66088  1.0000
  C   C1420     1.0  0.72340  0.49869  0.62941  1.0000
  H   H1141     1.0  0.81227  0.97422  0.52908  1.0000
  C   C1421     1.0  0.73652  0.96280  0.63086  1.0000
  C   C1422     1.0  0.71417  0.79414  0.75486  1.0000
  C   C1423     1.0  0.71461  0.85960  0.63150  1.0000
  S   S191      1.0  0.66718  0.83962  0.58970  1.0000
  C   C1424     1.0  0.80336  0.51489  0.50075  1.0000
  H   H1142     1.0  0.95157  0.52904  0.70580  1.0000
  Fe  Fe96      1.0  0.66156  0.89374  0.61427  1.0000
  C   C1425     1.0  0.95855  0.57475  0.57514  1.0000
  C   C1426     1.0  0.96924  0.64691  0.58223  1.0000
  C   C1427     1.0  0.78915  0.66984  0.53177  1.0000
  S   S192      1.0  0.98570  0.57676  0.75894  1.0000
  H   H1143     1.0  0.71101  0.49981  0.61385  1.0000
  H   H1144     1.0  0.76832  0.49460  0.68470  1.0000
  H   H1145     1.0  0.68839  0.52801  0.53485  1.0000
  C   C1428     1.0  0.92741  0.53808  0.62876  1.0000
  H   H1146     1.0  0.91809  0.57669  0.59213  1.0000
  C   C1429     1.0  0.98834  0.71882  0.80039  1.0000
  C   C1430     1.0  0.85278  0.52843  0.49378  1.0000
  C   C1431     1.0  0.70309  0.53641  0.53871  1.0000
  C   C1432     1.0  0.75592  0.49561  0.66914  1.0000
  C   C1433     1.0  0.97867  0.50283  0.70406  1.0000
  C   C1434     1.0  0.66656  0.76561  0.59304  1.0000
  H   H1147     1.0  0.86069  0.98799  0.53437  1.0000
  H   H1148     1.0  0.98462  0.54003  0.61422  1.0000
  C   C1435     1.0  0.73688  0.98424  0.54688  1.0000
  H   H1149     1.0  0.75350  0.60134  0.49400  1.0000
  H   H1150     1.0  0.90114  0.51654  0.97222  1.0000
  C   C1436     1.0  0.66178  0.73179  0.60729  1.0000
  C   C1437     1.0  0.66106  0.79765  0.60875  1.0000
  C   C1438     1.0  0.75579  0.98533  0.53460  1.0000
  H   H1151     1.0  0.99130  0.86309  0.91548  1.0000
  C   C1439     1.0  0.91178  0.50389  0.98737  1.0000
  H   H1152     1.0  0.68878  0.98676  0.48930  1.0000
  C   C1440     1.0  0.93301  0.99015  0.72837  1.0000
