data_image0
_chemical_formula_structural       CSHC2HC6H6C7H3CH2SHC7H2C2H6C2HCHC2PHCH3C2H2CFeCHSCHC4H2CHC3SH3SC3HC3HCH3CHCHC2H2CHCHCH5C3HSFeS2FeSFeSFeS3HFeS2CSFeSFeSH2S4FeSH2C3HC2H2CHC2H4C6H4C6HC2HCHC2HC6H4CHC4H3FeCSC6PC18H19C6PC18H20SCHSC6PC9SC7HCH11CH7C3HC2HCHCHCSH3C2HC2HC2H3PH6CHCHC3H3C2H2C2HSH2CHC7H2C8H2C2H2C6HC4H2CP2C2HC3HC2HCH3C4H5FeHC5H2CH2CHC2H4CH2C2HFeHCHC2H4C3FeCH2CS2CPHCSCFe2CSFeHSFeCHS2FeCSFeHSC2HS3CSHSFeSH3FeHSCHC3SH2CHCH3C2H2C4FeHC7H4C6H4C4HC2H4CHSC2HCSCH2C6HCH2SCHC5H4SH6C7PC17H15PC5HC5Fe2C2SH3C2H6CHC6H2CHCHC2HCH2CH2CHC3PCFeHC2HCHC3H2CHCHSC2H3C2H4CH2FeCH5C2HC2S2C2HPCSC2HC2SHSFeS2FeS2FeSFeS3FeS2FeS2FeSFeS3C2S2HSC6H4C6H4C6H4C6H5C2PCHC7H4C6H3CHC6PC14H16C2FeHCH3CPHCH4CHCH2PH2PC2H4CH2CSHC2P2C5HCFeC2H2C6PC9H2C3HC3H10CH2C2H3C5H2CHC7H2C2HCHCH4C4PCHC2HC2HC2H2C2HC5HCH3C2H2CH2C4H3SCH3C2HCH3C3HCHC3H5CHC6HC2HCH3C2H3CH2CHC2HC2HCH2CHCHC3SC2HC2HC2H2CHCFeSFeSFeSFeS3FeCSFeHSC3SC2FeHSFeSCFeCSH2CHSC3H3C6H4C3H2CHC6H3C5HCHSHC2SCSHC4HC3H2CHCHCSHFeHC3HC2H8C2HSC2H3CHCH2SHPC9H2CFeCH2CHCHCHCH2CH3SC2HCFeCHCHC2H4CH3CHCHCHC2FeHCHCSHFeHSFeCSFeCSCFeCSFeCHCHSH2S2CFeH2CH2C5H2C2SC6H5C2HCHSC3FeSHC2H3CH2CHC2HCHSC4H2C3H2CHCHC4H2CH2FeCHCHCHCPHC3H4CHCFeH2C3HCH2CH2CH5CSC2HCH2C2HCHC3HPC5H3CSHSCFeS2FeS2FeSFeS3FeS2FeS2FeSFeS3CFeCSC3SFeCSH3CH2SH2CSCHCH2C2HC3H4C6H5CHC6H4C6H4C6H4CPHC6H2C3HC3HC2HCH4C6H2CH3C4HCPCH6C2HCHC8HCHC3HCH2C2H2C3PC4HC3HC9H5CHPH10CSC7HC5H3PH2C3HCH3CH2CHC4HPCH2C2HC2SH2CH2CFeCH2C3HCHCHC4H2C3HCH2FeHC2H2C2HCHCHCH2C3H3CH4CHC2H5CHC4H2CSH2CHC3HC3H2CSC2H2CSFeSHFeSFeSHSFeSHFeSFeSFeS3FeS2HFeS2CSHCHCFeHCH2C3HC6H4C6H5C5H2C3H2C3HCH2CH3CHCHSC2HC2HCH2C4H3CH2CHPC7HC4HC6H9CH2C5PSC3PC3H3C8HC2H2CH6C2H5C7PC18HCH18C2HCH3C2SC3HCHC5HFeH2C5H8C4HC2HC8H2CHCHSC2HC2HCHCHCSCHCH2SC3H2CHCHCH3C2H4C2PCH4CPC3HC2H2CFeS2FeSFeSFeS4HSCS2FeSFeSH5CHSC3FeSCFeCSHCH3SC2H2C3HCH6SHC9H5CHC4H2C2HC2H3C7H4C6HCHC2HC4PC3HC15HCH4SH13C4HPHC6SCHCHCFeC4H9CHCHCHCH2CH3CHCPC2H2C2HC3HC8HCH2CH2CH2C3PC2H2CH2C3H3CHFeHC2PHC2HCH2C3H5CH2C6H2CHC2SC2H2CHC3H3C2HC2HC3PC2HCH4CHCHC2SH3CHC2HCHCH2SCHC2HC4HC3HCH5C7H2C2HSHC2HCFeC4HC4H2CPC9HC3H3C2PSC2HC3H4FeHC3H2CHC2HC4H2CH5CH2C2H4CH4C4H2CH3C3HC8H2CHS2CSC7H3C6H6CHC2HPC12HC2HFeCHCPH9CH2C2HFeHC3H2CH2C2H2C3HC3HC2HCHCH3PHC2H4C2HFeCSCH3C3H3C7HCHCPCHC2SCSCH2
_chemical_formula_sum              "C1440 S192 H1152 P48 Fe96"
_cell_length_a       58.3491
_cell_length_b       58.5151
_cell_length_c       34.7061
_cell_angle_alpha    89.9198
_cell_angle_beta     90.2909
_cell_angle_gamma    89.8836

_space_group_name_H-M_alt    "P 1"
_space_group_IT_number       1

loop_
  _space_group_symop_operation_xyz
  'x, y, z'

loop_
  _atom_site_type_symbol
  _atom_site_label
  _atom_site_symmetry_multiplicity
  _atom_site_fract_x
  _atom_site_fract_y
  _atom_site_fract_z
  _atom_site_occupancy
  C   C1        1.0  0.07175  0.47620  0.28154  1.0000
  S   S1        1.0  0.06543  0.45286  0.13758  1.0000
  H   H1        1.0  0.10786  0.02191  0.26979  1.0000
  C   C2        1.0  0.03893  0.15448  0.01399  1.0000
  C   C3        1.0  0.03536  0.12005  0.13916  1.0000
  H   H2        1.0  0.02993  0.02851  0.03584  1.0000
  C   C4        1.0  0.04854  0.43098  0.15937  1.0000
  C   C5        1.0  0.05655  0.41792  0.19044  1.0000
  C   C6        1.0  0.04383  0.39897  0.20363  1.0000
  C   C7        1.0  0.02296  0.39276  0.18605  1.0000
  C   C8        1.0  0.01452  0.40628  0.15582  1.0000
  C   C9        1.0  0.02726  0.42522  0.14261  1.0000
  H   H3        1.0  0.07306  0.42168  0.20317  1.0000
  H   H4        1.0  0.05058  0.38864  0.22696  1.0000
  H   H5        1.0  0.00791  0.44507  0.23831  1.0000
  H   H6        1.0  0.02073  0.43527  0.11883  1.0000
  H   H7        1.0  0.32250  0.01724  0.18484  1.0000
  H   H8        1.0  0.19423  0.47635  0.19549  1.0000
  C   C10       1.0  0.04950  0.01139  0.14042  1.0000
  C   C11       1.0  0.05760  0.02175  0.17413  1.0000
  C   C12       1.0  0.04469  0.03919  0.19202  1.0000
  C   C13       1.0  0.02336  0.04624  0.17694  1.0000
  C   C14       1.0  0.01491  0.03536  0.14397  1.0000
  C   C15       1.0  0.02805  0.01827  0.12563  1.0000
  C   C16       1.0  0.23382  0.49152  0.29881  1.0000
  H   H9        1.0  0.05135  0.04737  0.21763  1.0000
  H   H10       1.0  0.22930  0.47581  0.28413  1.0000
  H   H11       1.0  0.00374  0.04979  0.06729  1.0000
  C   C17       1.0  0.01828  0.14739  0.18259  1.0000
  H   H12       1.0  0.05048  0.42511  0.06453  1.0000
  H   H13       1.0  0.02003  0.44068  0.32198  1.0000
  S   S2        1.0  0.00851  0.36780  0.20269  1.0000
  H   H14       1.0  0.01291  0.40659  0.05515  1.0000
  C   C18       1.0  0.99964  0.08541  0.05598  1.0000
  C   C19       1.0  0.05722  0.48783  0.30670  1.0000
  C   C20       1.0  0.05580  0.18974  0.03702  1.0000
  C   C21       1.0  0.02836  0.12608  0.17619  1.0000
  C   C22       1.0  0.99804  0.06231  0.04647  1.0000
  C   C23       1.0  0.00934  0.25017  0.11748  1.0000
  C   C24       1.0  0.07181  0.02127  0.28305  1.0000
  H   H15       1.0  0.03797  0.24228  0.15453  1.0000
  H   H16       1.0  0.04277  0.10329  0.13432  1.0000
  C   C25       1.0  0.05173  0.00825  0.28280  1.0000
  C   C26       1.0  0.01516  0.16266  0.15199  1.0000
  H   H17       1.0  0.03730  0.12993  0.08002  1.0000
  H   H18       1.0  0.05595  0.20435  0.05606  1.0000
  H   H19       1.0  0.03629  0.01556  0.29478  1.0000
  H   H20       1.0  0.01219  0.15184  0.21106  1.0000
  H   H21       1.0  0.08930  0.47260  0.28994  1.0000
  H   H22       1.0  0.03027  0.11402  0.19976  1.0000
  C   C27       1.0  0.04165  0.47563  0.23329  1.0000
  C   C28       1.0  0.04529  0.44969  0.01917  1.0000
  H   H23       1.0  0.06162  0.45804  0.02416  1.0000
  C   C29       1.0  0.02872  0.21352  0.11891  1.0000
  H   H24       1.0  0.04208  0.20269  0.13079  1.0000
  C   C30       1.0  0.01348  0.20503  0.09090  1.0000
  C   C31       1.0  0.24368  0.49079  0.33559  1.0000
  P   P1        1.0  0.01582  0.17577  0.07454  1.0000
  H   H25       1.0  0.24667  0.47447  0.34953  1.0000
  C   C32       1.0  0.09224  0.01193  0.26930  1.0000
  H   H26       1.0  0.06377  0.00400  0.02997  1.0000
  H   H27       1.0  0.07404  0.01670  0.18591  1.0000
  H   H28       1.0  0.99843  0.40186  0.14217  1.0000
  C   C33       1.0  0.32406  0.01037  0.21377  1.0000
  C   C34       1.0  0.03900  0.43106  0.04191  1.0000
  H   H29       1.0  0.99825  0.04012  0.13273  1.0000
  H   H30       1.0  0.02903  0.48031  0.11411  1.0000
  C   C35       1.0  0.23114  0.48078  0.19382  1.0000
  Fe  Fe1       1.0  0.09056  0.48109  0.15671  1.0000
  C   C36       1.0  0.02202  0.15678  0.11458  1.0000
  H   H31       1.0  0.02151  0.01016  0.09996  1.0000
  S   S3        1.0  0.00796  0.06845  0.20067  1.0000
  C   C37       1.0  0.03219  0.13528  0.10843  1.0000
  H   H32       1.0  0.07154  0.03856  0.29417  1.0000
  C   C38       1.0  0.24976  0.49302  0.17835  1.0000
  C   C39       1.0  0.03826  0.17337  0.03895  1.0000
  C   C40       1.0  0.02653  0.23596  0.13230  1.0000
  C   C41       1.0  0.00098  0.45845  0.36574  1.0000
  H   H33       1.0  0.00668  0.17878  0.15751  1.0000
  H   H34       1.0  0.23451  0.46685  0.21356  1.0000
  C   C42       1.0  0.04871  0.00058  0.01241  1.0000
  H   H35       1.0  0.02581  0.14145  0.01523  1.0000
  C   C43       1.0  0.01771  0.42057  0.03634  1.0000
  C   C44       1.0  0.06389  0.46999  0.24496  1.0000
  C   C45       1.0  0.02207  0.48854  0.08867  1.0000
  S   S4        1.0  0.11810  0.48651  0.20256  1.0000
  H   H36       1.0  0.00684  0.09035  0.08357  1.0000
  H   H37       1.0  0.00722  0.26740  0.12840  1.0000
  H   H38       1.0  0.01219  0.01048  0.23254  1.0000
  S   S5        1.0  0.27836  0.48517  0.19203  1.0000
  C   C46       1.0  0.02928  0.01447  0.01578  1.0000
  C   C47       1.0  0.20822  0.48615  0.18364  1.0000
  C   C48       1.0  0.99836  0.00481  0.25092  1.0000
  H   H39       1.0  0.07526  0.46138  0.22511  1.0000
  C   C49       1.0  0.00119  0.48132  0.07315  1.0000
  C   C50       1.0  0.02680  0.48697  0.25856  1.0000
  C   C51       1.0  0.00265  0.42849  0.00752  1.0000
  H   H40       1.0  0.01375  0.47172  0.36937  1.0000
  C   C52       1.0  0.00454  0.44093  0.33916  1.0000
  H   H41       1.0  0.03617  0.47145  0.20425  1.0000
  H   H42       1.0  0.08700  0.20006  0.00901  1.0000
  H   H43       1.0  0.01002  0.33899  0.00327  1.0000
  C   C53       1.0  0.07352  0.18737  0.01030  1.0000
  H   H44       1.0  0.29023  0.99567  0.21349  1.0000
  C   C54       1.0  0.99643  0.21954  0.07585  1.0000
  H   H45       1.0  0.06369  0.49345  0.33444  1.0000
  C   C55       1.0  0.30592  0.99814  0.22987  1.0000
  C   C56       1.0  0.03480  0.49319  0.29535  1.0000
  H   H46       1.0  0.01379  0.34248  0.80547  1.0000
  H   H47       1.0  0.03505  0.47254  0.97372  1.0000
  C   C57       1.0  0.03026  0.45790  0.99088  1.0000
  H   H48       1.0  0.99849  0.37677  0.83864  1.0000
  C   C58       1.0  0.07397  0.16859  0.98549  1.0000
  H   H49       1.0  0.01104  0.15070  0.64194  1.0000
  C   C59       1.0  0.00886  0.44762  0.98549  1.0000
  H   H50       1.0  0.00992  0.38062  0.99153  1.0000
  H   H51       1.0  0.99706  0.45500  0.96483  1.0000
  H   H52       1.0  0.00092  0.11920  0.59722  1.0000
  H   H53       1.0  0.05713  0.13748  0.96832  1.0000
  H   H54       1.0  0.08780  0.16672  0.96498  1.0000
  C   C60       1.0  0.05669  0.15215  0.98735  1.0000
  C   C61       1.0  0.00930  0.00961  0.99454  1.0000
  C   C62       1.0  0.99684  0.34886  0.79831  1.0000
  H   H55       1.0  0.99720  0.17559  0.99503  1.0000
  S   S6        1.0  0.28289  0.95152  0.17106  1.0000
  Fe  Fe2       1.0  0.14247  0.94344  0.12857  1.0000
  S   S7        1.0  0.13079  0.91019  0.15416  1.0000
  S   S8        1.0  0.17945  0.94535  0.10494  1.0000
  Fe  Fe3       1.0  0.09292  0.96425  0.13465  1.0000
  S   S9        1.0  0.07926  0.93212  0.16170  1.0000
  Fe  Fe4       1.0  0.11162  0.93165  0.19708  1.0000
  S   S10       1.0  0.11347  0.92860  0.26290  1.0000
  Fe  Fe5       1.0  0.09935  0.91356  0.11621  1.0000
  S   S11       1.0  0.08314  0.88318  0.08476  1.0000
  S   S12       1.0  0.12448  0.96525  0.17283  1.0000
  S   S13       1.0  0.11199  0.94540  0.08765  1.0000
  H   H56       1.0  0.12262  0.83645  0.14817  1.0000
  Fe  Fe6       1.0  0.13703  0.50649  0.15638  1.0000
  S   S14       1.0  0.12036  0.54021  0.17146  1.0000
  S   S15       1.0  0.32253  0.68235  0.49595  1.0000
  C   C63       1.0  0.02482  0.51755  0.03915  1.0000
  S   S16       1.0  0.07214  0.51328  0.17216  1.0000
  Fe  Fe7       1.0  0.09317  0.53128  0.12789  1.0000
  S   S17       1.0  0.07304  0.55862  0.09442  1.0000
  Fe  Fe8       1.0  0.10029  0.52018  0.21479  1.0000
  S   S18       1.0  0.08633  0.53733  0.26911  1.0000
  H   H57       1.0  0.26386  0.94277  0.09311  1.0000
  H   H58       1.0  0.27218  0.57078  0.43779  1.0000
  S   S19       1.0  0.06562  0.99039  0.11489  1.0000
  S   S20       1.0  0.13554  0.56233  0.42846  1.0000
  S   S21       1.0  0.14135  0.62558  0.46146  1.0000
  S   S22       1.0  0.15032  0.82247  0.44314  1.0000
  Fe  Fe9       1.0  0.11438  0.83590  0.43757  1.0000
  S   S23       1.0  0.10055  0.84370  0.37700  1.0000
  H   H59       1.0  0.02836  0.95654  0.12988  1.0000
  H   H60       1.0  0.06305  0.90198  0.33497  1.0000
  C   C64       1.0  0.16389  0.61009  0.37402  1.0000
  C   C65       1.0  0.29676  0.74214  0.41543  1.0000
  C   C66       1.0  0.04646  0.93047  0.30677  1.0000
  H   H61       1.0  0.07813  0.71528  0.45978  1.0000
  C   C67       1.0  0.32855  0.72837  0.49185  1.0000
  C   C68       1.0  0.24992  0.51107  0.35417  1.0000
  H   H62       1.0  0.29662  0.53345  0.33842  1.0000
  H   H63       1.0  0.12864  0.88749  0.03622  1.0000
  C   C69       1.0  0.01944  0.91686  0.05174  1.0000
  H   H64       1.0  0.16558  0.69162  0.39812  1.0000
  C   C70       1.0  0.06994  0.56208  0.04366  1.0000
  C   C71       1.0  0.27199  0.71384  0.44450  1.0000
  H   H65       1.0  0.00573  0.55797  0.04152  1.0000
  H   H66       1.0  0.32314  0.59578  0.32475  1.0000
  H   H67       1.0  0.01364  0.88082  0.04470  1.0000
  H   H68       1.0  0.04420  0.58832  0.04945  1.0000
  C   C72       1.0  0.10054  0.54442  0.31285  1.0000
  C   C73       1.0  0.08975  0.55941  0.33875  1.0000
  C   C74       1.0  0.10014  0.56519  0.37422  1.0000
  C   C75       1.0  0.12138  0.55578  0.38436  1.0000
  C   C76       1.0  0.13200  0.54054  0.35870  1.0000
  C   C77       1.0  0.12176  0.53501  0.32299  1.0000
  H   H69       1.0  0.07319  0.56652  0.33135  1.0000
  H   H70       1.0  0.09164  0.57673  0.39385  1.0000
  H   H71       1.0  0.14817  0.53283  0.36678  1.0000
  H   H72       1.0  0.13000  0.52310  0.30369  1.0000
  C   C78       1.0  0.00751  0.89787  0.03789  1.0000
  C   C79       1.0  0.08268  0.54925  0.01735  1.0000
  C   C80       1.0  0.25913  0.89961  0.46468  1.0000
  C   C81       1.0  0.31737  0.64761  0.33254  1.0000
  C   C82       1.0  0.20358  0.50348  0.15684  1.0000
  C   C83       1.0  0.01209  0.93885  0.04199  1.0000
  H   H73       1.0  0.25756  0.51025  0.38267  1.0000
  C   C84       1.0  0.28160  0.55324  0.38480  1.0000
  C   C85       1.0  0.07132  0.88410  0.03738  1.0000
  H   H74       1.0  0.09489  0.53672  0.02776  1.0000
  C   C86       1.0  0.25856  0.57982  0.32236  1.0000
  H   H75       1.0  0.17637  0.73263  0.39804  1.0000
  C   C87       1.0  0.17991  0.69740  0.41546  1.0000
  C   C88       1.0  0.09484  0.70672  0.34791  1.0000
  H   H76       1.0  0.18438  0.93299  0.43500  1.0000
  C   C89       1.0  0.11054  0.90445  0.29368  1.0000
  C   C90       1.0  0.09928  0.88458  0.28182  1.0000
  C   C91       1.0  0.09670  0.86611  0.30758  1.0000
  C   C92       1.0  0.10531  0.86721  0.34550  1.0000
  C   C93       1.0  0.11672  0.88702  0.35733  1.0000
  C   C94       1.0  0.11912  0.90559  0.33163  1.0000
  H   H77       1.0  0.09219  0.88362  0.25304  1.0000
  H   H78       1.0  0.08772  0.85092  0.29820  1.0000
  H   H79       1.0  0.12326  0.88820  0.38646  1.0000
  H   H80       1.0  0.12754  0.92100  0.34131  1.0000
  C   C95       1.0  0.25432  0.94920  0.15187  1.0000
  H   H81       1.0  0.27378  0.63560  0.39418  1.0000
  C   C96       1.0  0.22685  0.94365  0.09927  1.0000
  C   C97       1.0  0.20806  0.94645  0.12430  1.0000
  C   C98       1.0  0.21265  0.95051  0.16334  1.0000
  C   C99       1.0  0.23553  0.95197  0.17689  1.0000
  H   H82       1.0  0.20750  0.74639  0.44021  1.0000
  H   H83       1.0  0.10103  0.75123  0.46031  1.0000
  H   H84       1.0  0.19858  0.95301  0.18294  1.0000
  Fe  Fe10      1.0  0.31336  0.50210  0.18066  1.0000
  C   C100      1.0  0.00070  0.98493  0.27337  1.0000
  S   S24       1.0  0.31741  0.53964  0.17047  1.0000
  C   C101      1.0  0.25707  0.88648  0.22692  1.0000
  C   C102      1.0  0.25709  0.89187  0.18771  1.0000
  C   C103      1.0  0.23654  0.89192  0.16694  1.0000
  C   C104      1.0  0.21600  0.88638  0.18524  1.0000
  C   C105      1.0  0.21588  0.88039  0.22450  1.0000
  C   C106      1.0  0.23645  0.88146  0.24553  1.0000
  P   P2        1.0  0.18897  0.87579  0.24879  1.0000
  C   C107      1.0  0.16816  0.86403  0.21580  1.0000
  C   C108      1.0  0.18912  0.85543  0.28801  1.0000
  C   C109      1.0  0.16923  0.85305  0.31036  1.0000
  C   C110      1.0  0.16823  0.83671  0.33966  1.0000
  C   C111      1.0  0.18715  0.82272  0.34726  1.0000
  C   C112      1.0  0.20689  0.82469  0.32479  1.0000
  C   C113      1.0  0.20776  0.84070  0.29480  1.0000
  C   C114      1.0  0.14495  0.86982  0.21920  1.0000
  C   C115      1.0  0.12857  0.85963  0.19520  1.0000
  C   C116      1.0  0.13531  0.84381  0.16736  1.0000
  C   C117      1.0  0.15840  0.83769  0.16417  1.0000
  C   C118      1.0  0.17475  0.84753  0.18865  1.0000
  C   C119      1.0  0.18039  0.90373  0.26516  1.0000
  C   C120      1.0  0.17503  0.92074  0.23804  1.0000
  C   C121      1.0  0.16946  0.94282  0.25019  1.0000
  C   C122      1.0  0.16911  0.94804  0.28944  1.0000
  C   C123      1.0  0.17469  0.93126  0.31661  1.0000
  C   C124      1.0  0.18046  0.90921  0.30457  1.0000
  H   H85       1.0  0.27301  0.88692  0.24298  1.0000
  H   H86       1.0  0.27293  0.89678  0.17366  1.0000
  H   H87       1.0  0.23644  0.89701  0.13688  1.0000
  H   H88       1.0  0.20018  0.88752  0.16885  1.0000
  H   H89       1.0  0.23644  0.87901  0.27638  1.0000
  H   H90       1.0  0.15433  0.86373  0.30498  1.0000
  H   H91       1.0  0.15269  0.83499  0.35652  1.0000
  H   H92       1.0  0.18639  0.81028  0.37042  1.0000
  H   H93       1.0  0.22143  0.81362  0.33045  1.0000
  H   H94       1.0  0.22277  0.84118  0.27675  1.0000
  H   H95       1.0  0.13953  0.88237  0.24011  1.0000
  H   H96       1.0  0.11070  0.86448  0.19752  1.0000
  H   H97       1.0  0.16360  0.82534  0.14272  1.0000
  H   H98       1.0  0.19250  0.84232  0.18633  1.0000
  H   H99       1.0  0.17506  0.91697  0.20748  1.0000
  H   H100      1.0  0.16484  0.95573  0.22913  1.0000
  H   H101      1.0  0.16409  0.96498  0.29874  1.0000
  H   H102      1.0  0.17417  0.93524  0.34704  1.0000
  H   H103      1.0  0.18494  0.89660  0.32612  1.0000
  C   C125      1.0  0.24586  0.58377  0.12114  1.0000
  C   C126      1.0  0.26137  0.57191  0.14461  1.0000
  C   C127      1.0  0.25529  0.56601  0.18221  1.0000
  C   C128      1.0  0.23366  0.57186  0.19632  1.0000
  C   C129      1.0  0.21783  0.58351  0.17277  1.0000
  C   C130      1.0  0.22420  0.58966  0.13518  1.0000
  P   P3        1.0  0.18984  0.59125  0.19084  1.0000
  C   C131      1.0  0.18332  0.57255  0.23087  1.0000
  C   C132      1.0  0.18969  0.62072  0.20637  1.0000
  C   C133      1.0  0.17158  0.62901  0.22891  1.0000
  C   C134      1.0  0.17122  0.65182  0.24078  1.0000
  C   C135      1.0  0.18906  0.66649  0.23066  1.0000
  C   C136      1.0  0.20726  0.65836  0.20849  1.0000
  C   C137      1.0  0.20759  0.63558  0.19630  1.0000
  C   C138      1.0  0.17647  0.55000  0.22375  1.0000
  C   C139      1.0  0.17340  0.53467  0.25412  1.0000
  C   C140      1.0  0.17712  0.54174  0.29203  1.0000
  C   C141      1.0  0.18356  0.56428  0.29964  1.0000
  C   C142      1.0  0.18686  0.57961  0.26918  1.0000
  C   C143      1.0  0.16881  0.58653  0.15300  1.0000
  C   C144      1.0  0.17186  0.56851  0.12681  1.0000
  C   C145      1.0  0.15547  0.56414  0.09825  1.0000
  C   C146      1.0  0.13593  0.57784  0.09527  1.0000
  C   C147      1.0  0.13283  0.59600  0.12082  1.0000
  C   C148      1.0  0.14915  0.60034  0.14962  1.0000
  H   H104      1.0  0.25057  0.58811  0.09187  1.0000
  H   H105      1.0  0.27801  0.56701  0.13345  1.0000
  H   H106      1.0  0.26723  0.55644  0.20012  1.0000
  H   H107      1.0  0.22929  0.56697  0.22534  1.0000
  H   H108      1.0  0.21234  0.59874  0.11653  1.0000
  H   H109      1.0  0.15767  0.61782  0.23708  1.0000
  H   H110      1.0  0.15700  0.65812  0.25755  1.0000
  H   H111      1.0  0.18872  0.68421  0.23974  1.0000
  H   H112      1.0  0.22103  0.66978  0.20037  1.0000
  H   H113      1.0  0.22178  0.62974  0.17893  1.0000
  H   H114      1.0  0.17387  0.54404  0.19467  1.0000
  H   H115      1.0  0.16833  0.51720  0.24805  1.0000
  H   H116      1.0  0.17508  0.52968  0.31544  1.0000
  H   H117      1.0  0.18617  0.56970  0.32917  1.0000
  H   H118      1.0  0.19250  0.59675  0.27567  1.0000
  H   H119      1.0  0.18665  0.55738  0.12889  1.0000
  H   H120      1.0  0.15770  0.54969  0.07907  1.0000
  H   H121      1.0  0.03179  0.53187  0.22862  1.0000
  H   H122      1.0  0.11751  0.60642  0.11851  1.0000
  H   H123      1.0  0.14611  0.61432  0.16917  1.0000
  S   S25       1.0  0.15019  0.75873  0.47405  1.0000
  C   C149      1.0  0.28990  0.64231  0.38388  1.0000
  H   H124      1.0  0.31116  0.74640  0.39733  1.0000
  S   S26       1.0  0.17520  0.50982  0.13996  1.0000
  C   C150      1.0  0.19097  0.91709  0.42357  1.0000
  C   C151      1.0  0.17683  0.89788  0.42200  1.0000
  C   C152      1.0  0.18543  0.87720  0.40817  1.0000
  C   C153      1.0  0.20818  0.87558  0.39596  1.0000
  C   C154      1.0  0.22260  0.89474  0.39788  1.0000
  C   C155      1.0  0.21378  0.91554  0.41164  1.0000
  P   P4        1.0  0.25266  0.89269  0.38572  1.0000
  C   C156      1.0  0.26045  0.86305  0.37834  1.0000
  C   C157      1.0  0.25892  0.90962  0.34321  1.0000
  C   C158      1.0  0.24175  0.92296  0.32552  1.0000
  C   C159      1.0  0.24646  0.93546  0.29213  1.0000
  C   C160      1.0  0.26838  0.93492  0.27621  1.0000
  C   C161      1.0  0.28555  0.92168  0.29339  1.0000
  C   C162      1.0  0.28079  0.90883  0.32641  1.0000
  C   C163      1.0  0.26047  0.84786  0.40969  1.0000
  C   C164      1.0  0.26625  0.82488  0.40447  1.0000
  S   S27       1.0  0.11614  0.85769  0.49120  1.0000
  C   C165      1.0  0.27212  0.83177  0.33657  1.0000
  C   C166      1.0  0.26609  0.85472  0.34160  1.0000
  C   C167      1.0  0.26856  0.90230  0.42773  1.0000
  C   C168      1.0  0.29074  0.91131  0.42446  1.0000
  C   C169      1.0  0.02469  0.54553  0.17249  1.0000
  C   C170      1.0  0.09636  0.71462  0.46559  1.0000
  C   C171      1.0  0.32525  0.66277  0.39613  1.0000
  H   H125      1.0  0.99750  0.59868  0.04972  1.0000
  C   C172      1.0  0.00386  0.51044  0.02312  1.0000
  H   H126      1.0  0.15936  0.89879  0.43242  1.0000
  H   H127      1.0  0.17457  0.86225  0.40813  1.0000
  H   H128      1.0  0.21450  0.85925  0.38613  1.0000
  H   H129      1.0  0.22474  0.93040  0.41395  1.0000
  H   H130      1.0  0.22458  0.92358  0.33687  1.0000
  H   H131      1.0  0.23303  0.94535  0.27824  1.0000
  H   H132      1.0  0.21874  0.61245  0.45039  1.0000
  H   H133      1.0  0.13877  0.67667  0.48719  1.0000
  H   H134      1.0  0.29406  0.89784  0.33821  1.0000
  H   H135      1.0  0.25602  0.85372  0.43825  1.0000
  H   H136      1.0  0.29887  0.65732  0.43841  1.0000
  C   C173      1.0  0.21478  0.71311  0.46478  1.0000
  H   H137      1.0  0.10855  0.98201  0.24589  1.0000
  H   H138      1.0  0.26618  0.86582  0.31678  1.0000
  H   H139      1.0  0.29890  0.91322  0.39691  1.0000
  H   H140      1.0  0.02564  0.94735  0.40881  1.0000
  H   H141      1.0  0.14979  0.66835  0.32630  1.0000
  H   H142      1.0  0.11454  0.84783  0.03065  1.0000
  H   H143      1.0  0.30819  0.56276  0.47126  1.0000
  C   C174      1.0  0.18596  0.72051  0.41546  1.0000
  C   C175      1.0  0.05221  0.91691  0.33861  1.0000
  C   C176      1.0  0.02072  0.53077  0.20346  1.0000
  H   H144      1.0  0.19493  0.81738  0.48770  1.0000
  C   C177      1.0  0.28532  0.75939  0.43543  1.0000
  C   C178      1.0  0.20343  0.72832  0.43981  1.0000
  H   H145      1.0  0.03469  0.91448  0.06938  1.0000
  C   C179      1.0  0.28511  0.56117  0.42265  1.0000
  H   H146      1.0  0.08090  0.91886  0.02543  1.0000
  C   C180      1.0  0.20913  0.68980  0.46367  1.0000
  H   H147      1.0  0.21298  0.53601  0.38949  1.0000
  C   C181      1.0  0.24976  0.94489  0.11289  1.0000
  S   S28       1.0  0.09926  0.80585  0.46960  1.0000
  H   H148      1.0  0.19793  0.62357  0.38134  1.0000
  H   H149      1.0  0.03578  0.97802  0.18963  1.0000
  H   H150      1.0  0.26636  0.81338  0.42893  1.0000
  C   C182      1.0  0.03256  0.94993  0.31130  1.0000
  C   C183      1.0  0.30413  0.65448  0.40889  1.0000
  H   H151      1.0  0.07837  0.62664  0.18943  1.0000
  C   C184      1.0  0.14170  0.61438  0.36053  1.0000
  C   C185      1.0  0.17564  0.64766  0.35298  1.0000
  H   H152      1.0  0.05010  0.51225  0.08383  1.0000
  C   C186      1.0  0.19799  0.55976  0.42886  1.0000
  C   C187      1.0  0.29005  0.71938  0.41983  1.0000
  H   H153      1.0  0.29930  0.70599  0.40504  1.0000
  H   H154      1.0  0.32184  0.64520  0.30260  1.0000
  H   H155      1.0  0.27702  0.82564  0.30834  1.0000
  P   P5        1.0  0.02668  0.96821  0.27044  1.0000
  H   H156      1.0  0.01497  0.55506  0.11487  1.0000
  H   H157      1.0  0.25842  0.76762  0.47446  1.0000
  H   H158      1.0  0.03875  0.55762  0.17374  1.0000
  H   H159      1.0  0.12869  0.60149  0.36434  1.0000
  H   H160      1.0  0.18392  0.54850  0.43624  1.0000
  H   H161      1.0  0.05934  0.84931  0.03992  1.0000
  C   C188      1.0  0.03390  0.50660  0.07164  1.0000
  H   H162      1.0  0.18679  0.58652  0.46702  1.0000
  C   C189      1.0  0.09237  0.63304  0.24611  1.0000
  H   H163      1.0  0.12298  0.57414  0.07359  1.0000
  C   C190      1.0  0.06969  0.62257  0.41574  1.0000
  C   C191      1.0  0.13043  0.69280  0.48110  1.0000
  C   C192      1.0  0.08938  0.62029  0.21234  1.0000
  H   H164      1.0  0.26722  0.69608  0.44816  1.0000
  H   H165      1.0  0.29451  0.59310  0.24838  1.0000
  H   H166      1.0  0.02173  0.95353  0.05206  1.0000
  C   C193      1.0  0.05413  0.57827  0.02942  1.0000
  C   C194      1.0  0.23407  0.58901  0.41013  1.0000
  H   H167      1.0  0.08304  0.64893  0.24925  1.0000
  H   H168      1.0  0.07315  0.95931  0.24348  1.0000
  C   C195      1.0  0.01128  0.54405  0.13921  1.0000
  C   C196      1.0  0.05183  0.98598  0.26767  1.0000
  H   H169      1.0  0.28546  0.62953  0.32628  1.0000
  S   S29       1.0  0.09070  0.66818  0.47440  1.0000
  H   H170      1.0  0.32086  0.92303  0.45446  1.0000
  H   H171      1.0  0.09195  0.67464  0.37658  1.0000
  C   C197      1.0  0.06052  0.86452  0.02232  1.0000
  H   H172      1.0  0.16762  0.59398  0.38820  1.0000
  C   C198      1.0  0.18087  0.62672  0.37025  1.0000
  C   C199      1.0  0.29650  0.63891  0.34570  1.0000
  C   C200      1.0  0.10926  0.73498  0.46604  1.0000
  C   C201      1.0  0.26223  0.60989  0.25937  1.0000
  C   C202      1.0  0.09984  0.59891  0.20862  1.0000
  C   C203      1.0  0.30561  0.55646  0.44215  1.0000
  C   C204      1.0  0.27224  0.81686  0.36803  1.0000
  H   H173      1.0  0.09691  0.58867  0.18301  1.0000
  H   H174      1.0  0.24224  0.89236  0.46832  1.0000
  C   C205      1.0  0.26060  0.73107  0.46511  1.0000
  C   C206      1.0  0.09259  0.98957  0.25530  1.0000
  C   C207      1.0  0.07265  0.90368  0.01433  1.0000
  C   C208      1.0  0.11031  0.68205  0.28413  1.0000
  C   C209      1.0  0.24298  0.61079  0.28312  1.0000
  C   C210      1.0  0.08756  0.63022  0.39239  1.0000
  C   C211      1.0  0.24652  0.53222  0.33582  1.0000
  C   C212      1.0  0.02545  0.95618  0.34842  1.0000
  H   H175      1.0  0.30238  0.92088  0.28036  1.0000
  H   H176      1.0  0.03490  0.59992  0.34706  1.0000
  C   C213      1.0  0.10087  0.71822  0.31420  1.0000
  C   C214      1.0  0.27962  0.59407  0.26698  1.0000
  H   H177      1.0  0.27716  0.79914  0.36433  1.0000
  H   H178      1.0  0.10209  0.63865  0.40570  1.0000
  C   C215      1.0  0.23280  0.56734  0.39289  1.0000
  C   C216      1.0  0.19957  0.58121  0.44625  1.0000
  C   C217      1.0  0.02320  0.95152  0.22726  1.0000
  C   C218      1.0  0.10633  0.62469  0.27616  1.0000
  C   C219      1.0  0.29889  0.54016  0.36726  1.0000
  C   C220      1.0  0.11660  0.60306  0.27217  1.0000
  H   H179      1.0  0.26363  0.62126  0.23481  1.0000
  C   C221      1.0  0.22992  0.51254  0.28079  1.0000
  C   C222      1.0  0.14326  0.71301  0.48095  1.0000
  C   C223      1.0  0.24106  0.59574  0.31434  1.0000
  C   C224      1.0  0.10693  0.69351  0.47346  1.0000
  H   H180      1.0  0.09972  0.73672  0.31300  1.0000
  H   H181      1.0  0.18872  0.66071  0.35071  1.0000
  C   C225      1.0  0.11347  0.59036  0.23852  1.0000
  P   P6        1.0  0.10821  0.63969  0.32173  1.0000
  P   P7        1.0  0.25478  0.55841  0.35955  1.0000
  C   C226      1.0  0.13637  0.63514  0.34238  1.0000
  C   C227      1.0  0.15347  0.65193  0.33922  1.0000
  H   H182      1.0  0.12092  0.57341  0.23633  1.0000
  C   C228      1.0  0.00317  0.51437  0.20148  1.0000
  C   C229      1.0  0.27780  0.57908  0.29822  1.0000
  C   C230      1.0  0.09630  0.68289  0.34970  1.0000
  H   H183      1.0  0.08925  0.71627  0.37299  1.0000
  C   C231      1.0  0.19157  0.68204  0.43944  1.0000
  C   C232      1.0  0.02382  0.94910  0.15741  1.0000
  H   H184      1.0  0.11701  0.67295  0.25955  1.0000
  C   C233      1.0  0.05078  0.61158  0.39952  1.0000
  H   H185      1.0  0.22939  0.62292  0.27698  1.0000
  H   H186      1.0  0.29128  0.56665  0.30269  1.0000
  H   H187      1.0  0.23282  0.54882  0.28483  1.0000
  C   C234      1.0  0.10370  0.67025  0.31760  1.0000
  C   C235      1.0  0.31937  0.53551  0.38687  1.0000
  C   C236      1.0  0.21756  0.59584  0.43681  1.0000
  C   C237      1.0  0.23609  0.53280  0.29930  1.0000
  H   H188      1.0  0.24811  0.60042  0.40358  1.0000
  H   H189      1.0  0.18654  0.66421  0.44035  1.0000
  H   H190      1.0  0.12636  0.59539  0.29536  1.0000
  H   H191      1.0  0.03419  0.53164  0.02666  1.0000
  H   H192      1.0  0.29085  0.77700  0.43284  1.0000
  Fe  Fe11      1.0  0.12861  0.59012  0.47337  1.0000
  H   H193      1.0  0.11351  0.71492  0.25635  1.0000
  C   C238      1.0  0.24507  0.51065  0.15218  1.0000
  C   C239      1.0  0.01419  0.92728  0.15916  1.0000
  C   C240      1.0  0.06701  0.61677  0.33607  1.0000
  C   C241      1.0  0.32276  0.54372  0.42424  1.0000
  C   C242      1.0  0.10862  0.70590  0.28233  1.0000
  H   H194      1.0  0.27198  0.94434  0.25004  1.0000
  H   H195      1.0  0.03713  0.60551  0.41792  1.0000
  C   C243      1.0  0.26713  0.75392  0.45976  1.0000
  H   H196      1.0  0.16143  0.71233  0.48688  1.0000
  H   H197      1.0  0.22365  0.94062  0.06898  1.0000
  C   C244      1.0  0.07245  0.97670  0.25411  1.0000
  H   H198      1.0  0.02417  0.50282  0.31494  1.0000
  C   C245      1.0  0.08621  0.62775  0.35225  1.0000
  C   C246      1.0  0.21452  0.55279  0.40226  1.0000
  H   H199      1.0  0.06539  0.61440  0.30531  1.0000
  H   H200      1.0  0.25910  0.52002  0.13950  1.0000
  H   H201      1.0  0.22563  0.59617  0.33146  1.0000
  H   H202      1.0  0.07033  0.62552  0.44650  1.0000
  C   C247      1.0  0.13282  0.73414  0.47371  1.0000
  H   H203      1.0  0.21786  0.67761  0.48192  1.0000
  H   H204      1.0  0.01590  0.97182  0.35297  1.0000
  C   C248      1.0  0.02828  0.96118  0.19136  1.0000
  C   C249      1.0  0.23152  0.81441  0.49536  1.0000
  H   H205      1.0  0.05334  0.92595  0.27883  1.0000
  Fe  Fe12      1.0  0.32091  0.94706  0.15303  1.0000
  H   H206      1.0  0.23866  0.95545  0.20699  1.0000
  C   C250      1.0  0.04950  0.60855  0.35969  1.0000
  H   H207      1.0  0.04916  0.91235  0.39987  1.0000
  C   C251      1.0  0.22220  0.51569  0.14131  1.0000
  C   C252      1.0  0.04447  0.92284  0.37526  1.0000
  H   H208      1.0  0.00796  0.92246  0.25610  1.0000
  H   H209      1.0  0.22233  0.51313  0.25223  1.0000
  H   H210      1.0  0.21900  0.52896  0.12023  1.0000
  H   H211      1.0  0.29454  0.97829  0.27829  1.0000
  C   C253      1.0  0.03117  0.94252  0.38021  1.0000
  C   C254      1.0  0.30840  0.98826  0.26633  1.0000
  C   C255      1.0  0.11885  0.85729  0.00481  1.0000
  Fe  Fe13      1.0  0.13536  0.79431  0.47893  1.0000
  C   C256      1.0  0.30335  0.91712  0.45738  1.0000
  H   H212      1.0  0.23190  0.79694  0.48547  1.0000
  H   H213      1.0  0.01113  0.91772  0.13297  1.0000
  C   C257      1.0  0.00864  0.91771  0.19483  1.0000
  S   S30       1.0  0.11069  0.49889  0.10976  1.0000
  S   S31       1.0  0.32184  0.61621  0.47655  1.0000
  C   C258      1.0  0.12681  0.87970  0.00800  1.0000
  P   P8        1.0  0.99863  0.49532  0.24193  1.0000
  H   H214      1.0  0.00110  0.90082  0.19616  1.0000
  C   C259      1.0  0.01282  0.92991  0.22877  1.0000
  S   S32       1.0  0.32761  0.81792  0.44072  1.0000
  C   C260      1.0  0.29388  0.91423  0.49390  1.0000
  Fe  Fe14      1.0  0.11098  0.63752  0.49506  1.0000
  Fe  Fe15      1.0  0.02865  0.85746  0.77790  1.0000
  C   C261      1.0  0.11584  0.84737  0.96848  1.0000
  S   S33       1.0  0.05045  0.87027  0.72767  1.0000
  Fe  Fe16      1.0  0.02681  0.86149  0.86709  1.0000
  H   H215      1.0  0.02011  0.73214  0.78503  1.0000
  S   S34       1.0  0.04217  0.88501  0.91337  1.0000
  Fe  Fe17      1.0  0.01330  0.81649  0.82645  1.0000
  C   C262      1.0  0.07594  0.79682  0.72746  1.0000
  H   H216      1.0  0.10990  0.82991  0.96677  1.0000
  S   S35       1.0  0.04548  0.83801  0.82614  1.0000
  S   S36       1.0  0.01258  0.88290  0.81841  1.0000
  Fe  Fe18      1.0  0.03620  0.59571  0.87899  1.0000
  C   C263      1.0  0.06349  0.90358  0.97665  1.0000
  S   S37       1.0  0.06227  0.57382  0.91237  1.0000
  Fe  Fe19      1.0  0.02324  0.61273  0.79775  1.0000
  H   H217      1.0  0.11582  0.83907  0.72396  1.0000
  S   S38       1.0  0.02918  0.62015  0.73366  1.0000
  C   C264      1.0  0.00307  0.77222  0.71089  1.0000
  C   C265      1.0  0.10764  0.82284  0.71816  1.0000
  H   H218      1.0  0.08309  0.70914  0.66302  1.0000
  S   S39       1.0  0.04509  0.62762  0.84516  1.0000
  S   S40       1.0  0.01702  0.57947  0.82912  1.0000
  S   S41       1.0  0.28535  0.58247  0.54951  1.0000
  C   C266      1.0  0.09245  0.74926  0.57546  1.0000
  S   S42       1.0  0.12957  0.63837  0.55174  1.0000
  H   H219      1.0  0.13830  0.90953  0.97753  1.0000
  S   S43       1.0  0.14851  0.58726  0.52920  1.0000
  Fe  Fe20      1.0  0.11719  0.60219  0.55812  1.0000
  S   S44       1.0  0.10695  0.58746  0.61659  1.0000
  H   H220      1.0  0.30694  0.88279  0.84225  1.0000
  H   H221      1.0  0.27611  0.91496  0.74344  1.0000
  H   H222      1.0  0.11393  0.77605  0.66173  1.0000
  Fe  Fe21      1.0  0.10404  0.82649  0.52411  1.0000
  H   H223      1.0  0.22597  0.68547  0.79308  1.0000
  S   S45       1.0  0.07620  0.82048  0.56950  1.0000
  C   C267      1.0  0.27455  0.68025  0.56515  1.0000
  H   H224      1.0  0.10316  0.65226  0.77688  1.0000
  C   C268      1.0  0.24066  0.63289  0.52111  1.0000
  C   C269      1.0  0.08432  0.75834  0.61004  1.0000
  C   C270      1.0  0.26847  0.69664  0.53756  1.0000
  S   S46       1.0  0.13959  0.81293  0.53496  1.0000
  H   H225      1.0  0.31408  0.92985  0.72381  1.0000
  H   H226      1.0  0.07553  0.90642  0.77761  1.0000
  C   C271      1.0  0.20350  0.75235  0.52740  1.0000
  H   H227      1.0  0.02179  0.92463  0.87394  1.0000
  C   C272      1.0  0.00117  0.69258  0.70309  1.0000
  H   H228      1.0  0.13336  0.89217  0.91310  1.0000
  H   H229      1.0  0.19095  0.74215  0.51227  1.0000
  H   H230      1.0  0.20920  0.64656  0.79076  1.0000
  C   C273      1.0  0.21045  0.82600  0.49661  1.0000
  C   C274      1.0  0.18187  0.84452  0.84293  1.0000
  H   H231      1.0  0.05989  0.79319  0.74161  1.0000
  H   H232      1.0  0.07403  0.69278  0.81138  1.0000
  C   C275      1.0  0.12904  0.88233  0.93847  1.0000
  C   C276      1.0  0.25995  0.59785  0.54001  1.0000
  C   C277      1.0  0.23850  0.58751  0.54544  1.0000
  C   C278      1.0  0.07211  0.73565  0.72552  1.0000
  Fe  Fe22      1.0  0.31265  0.82412  0.49940  1.0000
  H   H233      1.0  0.04602  0.68730  0.75849  1.0000
  C   C279      1.0  0.05789  0.70152  0.75743  1.0000
  C   C280      1.0  0.05090  0.61053  0.70169  1.0000
  C   C281      1.0  0.06899  0.59651  0.71382  1.0000
  C   C282      1.0  0.08604  0.58975  0.68743  1.0000
  C   C283      1.0  0.08539  0.59713  0.64881  1.0000
  C   C284      1.0  0.06738  0.61128  0.63674  1.0000
  C   C285      1.0  0.05017  0.61780  0.66300  1.0000
  H   H234      1.0  0.06982  0.59082  0.74346  1.0000
  H   H235      1.0  0.09983  0.57871  0.69703  1.0000
  H   H236      1.0  0.06653  0.61692  0.60707  1.0000
  H   H237      1.0  0.03624  0.62861  0.65329  1.0000
  C   C286      1.0  0.05796  0.85564  0.68456  1.0000
  C   C287      1.0  0.04661  0.83584  0.67252  1.0000
  C   C288      1.0  0.05260  0.82534  0.63739  1.0000
  C   C289      1.0  0.07014  0.83422  0.61408  1.0000
  C   C290      1.0  0.08179  0.85378  0.62647  1.0000
  C   C291      1.0  0.07560  0.86449  0.66137  1.0000
  H   H238      1.0  0.03300  0.82882  0.68990  1.0000
  H   H239      1.0  0.04335  0.81043  0.62786  1.0000
  H   H240      1.0  0.09525  0.86088  0.60882  1.0000
  H   H241      1.0  0.08444  0.87984  0.67030  1.0000
  C   C292      1.0  0.09242  0.88591  0.86510  1.0000
  C   C293      1.0  0.01699  0.73047  0.81555  1.0000
  C   C294      1.0  0.01544  0.70840  0.83190  1.0000
  C   C295      1.0  0.07998  0.55299  0.97736  1.0000
  H   H242      1.0  0.10119  0.72536  0.80934  1.0000
  C   C296      1.0  0.17608  0.80971  0.87936  1.0000
  C   C297      1.0  0.29118  0.91115  0.76070  1.0000
  H   H243      1.0  0.01746  0.69340  0.81408  1.0000
  H   H244      1.0  0.07370  0.84034  0.92722  1.0000
  H   H245      1.0  0.10007  0.75269  0.75508  1.0000
  H   H246      1.0  0.09886  0.87376  0.75591  1.0000
  C   C298      1.0  0.06429  0.56930  0.96308  1.0000
  H   H247      1.0  0.09029  0.54334  0.95730  1.0000
  S   S47       1.0  0.00481  0.61123  0.90522  1.0000
  C   C299      1.0  0.05290  0.88395  0.96144  1.0000
  C   C300      1.0  0.15970  0.85173  0.85217  1.0000
  H   H248      1.0  0.00543  0.66282  0.73905  1.0000
  C   C301      1.0  0.05124  0.86446  0.98466  1.0000
  S   S48       1.0  0.01664  0.77767  0.81562  1.0000
  C   C302      1.0  0.32721  0.69668  0.67847  1.0000
  H   H249      1.0  0.08064  0.77651  0.61157  1.0000
  H   H250      1.0  0.07955  0.82900  0.75686  1.0000
  C   C303      1.0  0.22971  0.85925  0.52215  1.0000
  C   C304      1.0  0.06067  0.80794  0.90836  1.0000
  C   C305      1.0  0.24541  0.70254  0.53174  1.0000
  C   C306      1.0  0.20417  0.61182  0.63301  1.0000
  C   C307      1.0  0.03884  0.52060  0.87367  1.0000
  C   C308      1.0  0.00993  0.74764  0.87757  1.0000
  H   H251      1.0  0.11730  0.84802  0.80358  1.0000
  C   C309      1.0  0.01434  0.75027  0.83822  1.0000
  H   H252      1.0  0.03901  0.59432  0.97894  1.0000
  H   H253      1.0  0.31877  0.67387  0.63172  1.0000
  S   S49       1.0  0.18299  0.86304  0.51319  1.0000
  C   C310      1.0  0.26094  0.62051  0.52741  1.0000
  H   H254      1.0  0.06352  0.97094  0.98543  1.0000
  C   C311      1.0  0.09690  0.82405  0.88741  1.0000
  C   C312      1.0  0.21921  0.62286  0.52759  1.0000
  C   C313      1.0  0.08437  0.89587  0.79869  1.0000
  C   C314      1.0  0.09975  0.80550  0.86219  1.0000
  C   C315      1.0  0.21815  0.59996  0.53902  1.0000
  H   H255      1.0  0.26641  0.85598  0.53046  1.0000
  H   H256      1.0  0.15383  0.86831  0.84221  1.0000
  H   H257      1.0  0.09681  0.69342  0.60152  1.0000
  H   H258      1.0  0.08951  0.88907  0.89540  1.0000
  S   S50       1.0  0.19431  0.63956  0.52090  1.0000
  H   H259      1.0  0.02877  0.96243  0.94661  1.0000
  H   H260      1.0  0.03324  0.76290  0.74258  1.0000
  H   H261      1.0  0.13283  0.81243  0.67660  1.0000
  H   H262      1.0  0.20169  0.59195  0.54341  1.0000
  H   H263      1.0  0.05103  0.77596  0.88227  1.0000
  H   H264      1.0  0.29236  0.67525  0.56837  1.0000
  C   C316      1.0  0.99889  0.95273  0.86198  1.0000
  C   C317      1.0  0.10645  0.65459  0.74642  1.0000
  C   C318      1.0  0.08811  0.65502  0.72042  1.0000
  C   C319      1.0  0.09222  0.65751  0.68104  1.0000
  C   C320      1.0  0.11466  0.65920  0.66752  1.0000
  C   C321      1.0  0.13322  0.65908  0.69346  1.0000
  C   C322      1.0  0.12895  0.65670  0.73309  1.0000
  P   P9        1.0  0.16203  0.66167  0.67510  1.0000
  C   C323      1.0  0.17239  0.63481  0.65641  1.0000
  C   C324      1.0  0.16071  0.68298  0.63742  1.0000
  C   C325      1.0  0.16758  0.67775  0.59974  1.0000
  C   C326      1.0  0.16532  0.69399  0.57045  1.0000
  C   C327      1.0  0.15658  0.71571  0.57854  1.0000
  C   C328      1.0  0.14952  0.72099  0.61588  1.0000
  C   C329      1.0  0.15121  0.70458  0.64510  1.0000
  C   C330      1.0  0.19579  0.63234  0.64799  1.0000
  C   C331      1.0  0.16607  0.59574  0.63553  1.0000
  C   C332      1.0  0.15756  0.61633  0.65018  1.0000
  C   C333      1.0  0.18187  0.66985  0.71281  1.0000
  C   C334      1.0  0.18850  0.65356  0.74052  1.0000
  C   C335      1.0  0.20425  0.65923  0.76944  1.0000
  C   C336      1.0  0.21370  0.68114  0.77072  1.0000
  C   C337      1.0  0.20748  0.69735  0.74294  1.0000
  C   C338      1.0  0.19171  0.69174  0.71397  1.0000
  C   C339      1.0  0.06390  0.78925  0.88396  1.0000
  H   H265      1.0  0.07072  0.65287  0.73070  1.0000
  H   H266      1.0  0.07801  0.65744  0.66084  1.0000
  H   H267      1.0  0.11754  0.66027  0.63675  1.0000
  H   H268      1.0  0.14279  0.65628  0.75383  1.0000
  H   H269      1.0  0.17416  0.66101  0.59241  1.0000
  H   H270      1.0  0.17020  0.68948  0.54134  1.0000
  H   H271      1.0  0.15484  0.72834  0.55579  1.0000
  H   H272      1.0  0.14218  0.73765  0.62182  1.0000
  H   H273      1.0  0.14500  0.70866  0.67365  1.0000
  H   H274      1.0  0.20753  0.64634  0.65282  1.0000
  H   H275      1.0  0.15455  0.58152  0.63059  1.0000
  H   H276      1.0  0.13944  0.61764  0.65642  1.0000
  H   H277      1.0  0.18148  0.63641  0.73968  1.0000
  H   H278      1.0  0.21502  0.71425  0.74368  1.0000
  H   H279      1.0  0.18759  0.70447  0.69246  1.0000
  P   P10       1.0  0.11719  0.84730  0.88781  1.0000
  C   C340      1.0  0.22700  0.74738  0.52488  1.0000
  C   C341      1.0  0.11717  0.80786  0.69134  1.0000
  C   C342      1.0  0.22865  0.69264  0.55521  1.0000
  C   C343      1.0  0.23472  0.67630  0.58286  1.0000
  C   C344      1.0  0.25767  0.66998  0.58771  1.0000
  H   H280      1.0  0.03948  0.76455  0.61870  1.0000
  C   C345      1.0  0.14543  0.83776  0.87453  1.0000
  C   C346      1.0  0.24264  0.76039  0.54651  1.0000
  C   C347      1.0  0.23498  0.77885  0.56857  1.0000
  C   C348      1.0  0.21164  0.78424  0.56965  1.0000
  C   C349      1.0  0.19590  0.77087  0.54930  1.0000
  Fe  Fe23      1.0  0.15907  0.62347  0.51873  1.0000
  Fe  Fe24      1.0  0.15149  0.84220  0.49833  1.0000
  C   C350      1.0  0.00643  0.93366  0.88269  1.0000
  C   C351      1.0  0.07694  0.82544  0.90965  1.0000
  S   S51       1.0  0.00947  0.67830  0.89372  1.0000
  H   H281      1.0  0.21085  0.69723  0.55145  1.0000
  H   H282      1.0  0.22149  0.66801  0.59944  1.0000
  H   H283      1.0  0.26231  0.65675  0.60823  1.0000
  C   C352      1.0  0.03962  0.76293  0.68123  1.0000
  C   C353      1.0  0.18930  0.59351  0.62681  1.0000
  H   H284      1.0  0.26084  0.75672  0.54540  1.0000
  H   H285      1.0  0.24728  0.78959  0.58341  1.0000
  H   H286      1.0  0.20581  0.79913  0.58541  1.0000
  H   H287      1.0  0.17781  0.77514  0.54968  1.0000
  H   H288      1.0  0.19279  0.85536  0.82560  1.0000
  H   H289      1.0  0.09511  0.76038  0.55080  1.0000
  C   C354      1.0  0.08826  0.73846  0.75528  1.0000
  H   H290      1.0  0.04195  0.51388  0.97024  1.0000
  C   C355      1.0  0.10797  0.86287  0.81351  1.0000
  C   C356      1.0  0.02899  0.97716  0.96556  1.0000
  C   C357      1.0  0.08900  0.72297  0.78607  1.0000
  C   C358      1.0  0.09338  0.71156  0.60416  1.0000
  C   C359      1.0  0.07376  0.70458  0.78722  1.0000
  C   C360      1.0  0.10611  0.78733  0.68251  1.0000
  H   H291      1.0  0.07088  0.91398  0.84761  1.0000
  H   H292      1.0  0.23764  0.56990  0.55486  1.0000
  C   C361      1.0  0.08723  0.81716  0.73664  1.0000
  H   H293      1.0  0.19573  0.57764  0.61492  1.0000
  C   C362      1.0  0.13205  0.89217  0.97487  1.0000
  H   H294      1.0  0.30488  0.77847  0.61568  1.0000
  C   C363      1.0  0.03407  0.51715  0.94271  1.0000
  C   C364      1.0  0.09691  0.72587  0.57252  1.0000
  H   H295      1.0  0.10316  0.71879  0.54575  1.0000
  C   C365      1.0  0.08087  0.74414  0.64223  1.0000
  H   H296      1.0  0.06478  0.91879  0.95906  1.0000
  H   H297      1.0  0.04445  0.71468  0.70416  1.0000
  C   C366      1.0  0.05701  0.71703  0.72680  1.0000
  H   H298      1.0  0.04983  0.52050  0.84861  1.0000
  H   H299      1.0  0.22215  0.61013  0.62574  1.0000
  C   C367      1.0  0.25091  0.84768  0.52061  1.0000
  H   H300      1.0  0.31337  0.70847  0.67201  1.0000
  C   C368      1.0  0.08550  0.72062  0.63897  1.0000
  C   C369      1.0  0.12025  0.86008  0.93495  1.0000
  C   C370      1.0  0.02959  0.76631  0.64476  1.0000
  P   P11       1.0  0.06976  0.75610  0.68657  1.0000
  C   C371      1.0  0.09757  0.87733  0.78645  1.0000
  Fe  Fe25      1.0  0.01209  0.64216  0.86792  1.0000
  H   H301      1.0  0.00546  0.72375  0.92452  1.0000
  C   C372      1.0  0.01140  0.70575  0.87134  1.0000
  C   C373      1.0  0.02600  0.76554  0.71416  1.0000
  H   H302      1.0  0.24172  0.65041  0.51155  1.0000
  C   C374      1.0  0.25180  0.82506  0.50769  1.0000
  H   H303      1.0  0.30393  0.91818  0.51936  1.0000
  C   C375      1.0  0.08503  0.78191  0.69969  1.0000
  C   C376      1.0  0.10566  0.86723  0.85308  1.0000
  C   C377      1.0  0.00659  0.77290  0.64152  1.0000
  H   H304      1.0  0.99920  0.77611  0.61331  1.0000
  H   H305      1.0  0.27261  0.89163  0.80290  1.0000
  C   C378      1.0  0.30868  0.89296  0.81630  1.0000
  H   H306      1.0  0.14340  0.80624  0.90703  1.0000
  C   C379      1.0  0.08180  0.90014  0.83800  1.0000
  H   H307      1.0  0.04284  0.84935  0.97364  1.0000
  S   S52       1.0  0.99717  0.83547  0.77625  1.0000
  C   C380      1.0  0.15390  0.81688  0.88863  1.0000
  C   C381      1.0  0.99596  0.67855  0.73437  1.0000
  H   H308      1.0  0.22894  0.87651  0.53313  1.0000
  H   H309      1.0  0.26444  0.90303  0.52586  1.0000
  H   H310      1.0  0.20727  0.81799  0.84944  1.0000
  C   C382      1.0  0.19003  0.82348  0.85641  1.0000
  C   C383      1.0  0.08331  0.78813  0.86063  1.0000
  H   H311      1.0  0.04520  0.80922  0.92539  1.0000
  H   H312      1.0  0.00862  0.52995  0.84158  1.0000
  H   H313      1.0  0.31062  0.72945  0.49915  1.0000
  H   H314      1.0  0.08526  0.77399  0.84076  1.0000
  C   C384      1.0  0.28922  0.89796  0.79413  1.0000
  H   H315      1.0  0.11433  0.80467  0.84311  1.0000
  H   H316      1.0  0.18252  0.79356  0.89030  1.0000
  Fe  Fe26      1.0  0.31762  0.60198  0.53596  1.0000
  C   C385      1.0  0.04800  0.51605  0.91010  1.0000
  H   H317      1.0  0.01459  0.68755  0.68332  1.0000
  H   H318      1.0  0.27736  0.62864  0.52304  1.0000
  H   H319      1.0  0.00831  0.95840  0.83694  1.0000
  H   H320      1.0  0.06616  0.51257  0.91322  1.0000
  H   H321      1.0  0.00019  0.91106  0.93007  1.0000
  C   C386      1.0  0.04856  0.98191  0.98741  1.0000
  C   C387      1.0  0.00864  0.72555  0.89398  1.0000
  H   H322      1.0  0.00767  0.76259  0.89544  1.0000
  C   C388      1.0  0.05115  0.58173  0.98942  1.0000
  C   C389      1.0  0.31257  0.91953  0.74963  1.0000
  S   S53       1.0  0.09642  0.60204  0.50316  1.0000
  S   S54       1.0  0.32615  0.85999  0.50435  1.0000
  C   C390      1.0  0.20942  0.84842  0.51025  1.0000
  C   C391      1.0  0.01076  0.52298  0.93922  1.0000
  H   H323      1.0  0.28181  0.70455  0.52084  1.0000
  P   P12       1.0  0.23709  0.72365  0.49635  1.0000
  C   C392      1.0  0.00181  0.52774  0.90238  1.0000
  S   S55       1.0  0.27742  0.80890  0.50936  1.0000
  C   C393      1.0  0.01568  0.52616  0.86980  1.0000
  C   C394      1.0  0.32293  0.77407  0.61657  1.0000
  H   H324      1.0  0.32191  0.75602  0.56260  1.0000
  C   C395      1.0  0.27170  0.90562  0.49753  1.0000
  C   C396      1.0  0.00944  0.99086  0.96918  1.0000
  S   S56       1.0  0.99559  0.83883  0.87080  1.0000
  H   H325      1.0  0.61008  0.38892  0.05022  1.0000
  S   S57       1.0  0.39988  0.47398  0.18914  1.0000
  Fe  Fe27      1.0  0.51513  0.32083  0.18058  1.0000
  S   S58       1.0  0.54579  0.34420  0.17470  1.0000
  S   S59       1.0  0.52591  0.28274  0.17608  1.0000
  Fe  Fe28      1.0  0.48312  0.36286  0.19439  1.0000
  S   S60       1.0  0.51201  0.38790  0.19069  1.0000
  S   S61       1.0  0.44550  0.37402  0.20069  1.0000
  Fe  Fe29      1.0  0.52348  0.36755  0.13916  1.0000
  S   S62       1.0  0.52728  0.38491  0.08026  1.0000
  Fe  Fe30      1.0  0.53184  0.36233  0.22691  1.0000
  S   S63       1.0  0.55683  0.37397  0.27405  1.0000
  S   S64       1.0  0.49366  0.34323  0.14148  1.0000
  S   S65       1.0  0.50212  0.33834  0.23437  1.0000
  Fe  Fe31      1.0  0.54345  0.10661  0.13433  1.0000
  S   S66       1.0  0.50537  0.11241  0.12823  1.0000
  S   S67       1.0  0.57076  0.09623  0.09034  1.0000
  Fe  Fe32      1.0  0.54289  0.11618  0.22235  1.0000
  S   S68       1.0  0.50462  0.12160  0.22223  1.0000
  S   S69       1.0  0.56818  0.12536  0.27081  1.0000
  Fe  Fe33      1.0  0.50229  0.09094  0.18221  1.0000
  S   S70       1.0  0.48174  0.05739  0.18975  1.0000
  Fe  Fe34      1.0  0.51056  0.14280  0.16859  1.0000
  S   S71       1.0  0.49268  0.17799  0.16210  1.0000
  S   S72       1.0  0.54047  0.08424  0.18667  1.0000
  S   S73       1.0  0.54870  0.13839  0.17015  1.0000
  C   C397      1.0  0.54824  0.40032  0.01457  1.0000
  C   C398      1.0  0.65046  0.33935  0.38713  1.0000
  S   S74       1.0  0.56975  0.33512  0.44545  1.0000
  S   S75       1.0  0.61804  0.14810  0.46813  1.0000
  H   H326      1.0  0.33894  0.41081  0.26560  1.0000
  S   S76       1.0  0.58481  0.09193  0.44420  1.0000
  C   C399      1.0  0.49531  0.14612  0.47500  1.0000
  C   C400      1.0  0.64886  0.08886  0.32929  1.0000
  C   C401      1.0  0.55507  0.02587  0.07806  1.0000
  C   C402      1.0  0.56505  0.48526  0.01502  1.0000
  C   C403      1.0  0.56845  0.08090  0.04621  1.0000
  C   C404      1.0  0.54816  0.08044  0.02462  1.0000
  H   H327      1.0  0.55111  0.22147  0.44280  1.0000
  H   H328      1.0  0.65566  0.33304  0.41519  1.0000
  H   H329      1.0  0.53291  0.08848  0.03589  1.0000
  H   H330      1.0  0.54282  0.02030  0.02100  1.0000
  C   C405      1.0  0.57295  0.11441  0.31802  1.0000
  C   C406      1.0  0.58920  0.12544  0.34141  1.0000
  C   C407      1.0  0.59274  0.11884  0.37991  1.0000
  C   C408      1.0  0.58052  0.10059  0.39552  1.0000
  C   C409      1.0  0.56484  0.08885  0.37178  1.0000
  C   C410      1.0  0.56103  0.09573  0.33316  1.0000
  H   H331      1.0  0.59891  0.13951  0.32987  1.0000
  H   H332      1.0  0.60514  0.12773  0.39735  1.0000
  H   H333      1.0  0.55544  0.07450  0.38340  1.0000
  H   H334      1.0  0.54880  0.08671  0.31531  1.0000
  C   C411      1.0  0.55957  0.36341  0.32202  1.0000
  C   C412      1.0  0.54450  0.34722  0.33734  1.0000
  C   C413      1.0  0.54769  0.33910  0.37534  1.0000
  C   C414      1.0  0.56616  0.34663  0.39824  1.0000
  C   C415      1.0  0.58113  0.36290  0.38300  1.0000
  C   C416      1.0  0.57771  0.37136  0.34526  1.0000
  H   H335      1.0  0.53039  0.34104  0.31997  1.0000
  H   H336      1.0  0.53566  0.32702  0.38718  1.0000
  H   H337      1.0  0.59520  0.36912  0.40043  1.0000
  H   H338      1.0  0.58924  0.38409  0.33387  1.0000
  C   C417      1.0  0.51608  0.25373  0.17359  1.0000
  C   C418      1.0  0.53207  0.23576  0.17754  1.0000
  C   C419      1.0  0.52524  0.21257  0.17517  1.0000
  C   C420      1.0  0.50226  0.20694  0.16810  1.0000
  C   C421      1.0  0.48628  0.22494  0.16427  1.0000
  C   C422      1.0  0.49308  0.24810  0.16727  1.0000
  H   H339      1.0  0.54994  0.23980  0.18220  1.0000
  H   H340      1.0  0.53782  0.19906  0.17798  1.0000
  H   H341      1.0  0.46848  0.22093  0.15878  1.0000
  H   H342      1.0  0.48059  0.26164  0.16477  1.0000
  H   H343      1.0  0.49171  0.42037  0.05696  1.0000
  C   C423      1.0  0.57410  0.38698  0.06429  1.0000
  C   C424      1.0  0.55168  0.39105  0.05157  1.0000
  P   P13       1.0  0.49185  0.02181  0.02579  1.0000
  C   C425      1.0  0.39075  0.44734  0.30036  1.0000
  H   H344      1.0  0.57704  0.37982  0.09264  1.0000
  C   C426      1.0  0.51461  0.02287  0.06148  1.0000
  C   C427      1.0  0.41199  0.44586  0.19073  1.0000
  C   C428      1.0  0.43598  0.44334  0.18832  1.0000
  C   C429      1.0  0.44653  0.42159  0.19087  1.0000
  C   C430      1.0  0.43320  0.40195  0.19609  1.0000
  C   C431      1.0  0.40921  0.40446  0.19806  1.0000
  C   C432      1.0  0.39867  0.42618  0.19511  1.0000
  H   H345      1.0  0.44651  0.45835  0.18447  1.0000
  H   H346      1.0  0.46497  0.42006  0.18908  1.0000
  H   H347      1.0  0.39866  0.38946  0.20197  1.0000
  H   H348      1.0  0.38023  0.42768  0.19658  1.0000
  C   C433      1.0  0.41303  0.02031  0.16364  1.0000
  C   C434      1.0  0.41537  0.04388  0.15610  1.0000
  C   C435      1.0  0.43642  0.05535  0.16226  1.0000
  C   C436      1.0  0.45545  0.04347  0.17676  1.0000
  C   C437      1.0  0.45325  0.01979  0.18352  1.0000
  C   C438      1.0  0.43230  0.00826  0.17685  1.0000
  H   H349      1.0  0.40067  0.05344  0.14581  1.0000
  H   H350      1.0  0.43767  0.07351  0.15695  1.0000
  H   H351      1.0  0.46779  0.01033  0.19468  1.0000
  C   C439      1.0  0.35074  0.46769  0.01937  1.0000
  H   H352      1.0  0.63863  0.18620  0.41782  1.0000
  C   C440      1.0  0.58800  0.31468  0.30623  1.0000
  C   C441      1.0  0.58692  0.32015  0.26706  1.0000
  C   C442      1.0  0.57638  0.30512  0.24127  1.0000
  C   C443      1.0  0.56625  0.28506  0.25479  1.0000
  C   C444      1.0  0.56625  0.28006  0.29428  1.0000
  C   C445      1.0  0.57802  0.29458  0.31977  1.0000
  P   P14       1.0  0.55382  0.25364  0.31071  1.0000
  C   C446      1.0  0.54861  0.25462  0.36190  1.0000
  C   C447      1.0  0.52597  0.24869  0.28971  1.0000
  C   C448      1.0  0.51259  0.26706  0.27638  1.0000
  C   C449      1.0  0.49069  0.26316  0.26130  1.0000
  C   C450      1.0  0.48198  0.24095  0.25952  1.0000
  C   C451      1.0  0.49508  0.22261  0.27319  1.0000
  C   C452      1.0  0.51685  0.22650  0.28885  1.0000
  C   C453      1.0  0.53977  0.27459  0.37862  1.0000
  C   C454      1.0  0.57475  0.23247  0.29697  1.0000
  C   C455      1.0  0.57142  0.21860  0.26440  1.0000
  C   C456      1.0  0.58877  0.20376  0.25222  1.0000
  C   C457      1.0  0.60975  0.20308  0.27185  1.0000
  C   C458      1.0  0.61345  0.21739  0.30348  1.0000
  C   C459      1.0  0.59599  0.23202  0.31594  1.0000
  H   H353      1.0  0.59585  0.32643  0.32640  1.0000
  H   H354      1.0  0.59382  0.33623  0.25684  1.0000
  H   H355      1.0  0.57560  0.30917  0.21083  1.0000
  H   H356      1.0  0.55819  0.27354  0.23449  1.0000
  H   H357      1.0  0.57927  0.29076  0.35018  1.0000
  H   H358      1.0  0.51907  0.28440  0.27709  1.0000
  H   H359      1.0  0.48079  0.27734  0.24982  1.0000
  H   H360      1.0  0.46534  0.23788  0.24655  1.0000
  H   H361      1.0  0.48853  0.20534  0.27086  1.0000
  H   H362      1.0  0.52670  0.21214  0.29971  1.0000
  H   H363      1.0  0.53596  0.28940  0.36093  1.0000
  H   H364      1.0  0.55568  0.21942  0.24786  1.0000
  H   H365      1.0  0.58587  0.19275  0.22753  1.0000
  H   H366      1.0  0.62311  0.19149  0.26243  1.0000
  H   H367      1.0  0.62984  0.21717  0.31827  1.0000
  H   H368      1.0  0.59907  0.24349  0.33976  1.0000
  C   C460      1.0  0.51258  0.20559  0.07540  1.0000
  C   C461      1.0  0.50916  0.02654  0.10045  1.0000
  Fe  Fe35      1.0  0.59869  0.34231  0.48883  1.0000
  H   H369      1.0  0.55803  0.21953  0.37242  1.0000
  C   C462      1.0  0.48785  0.22718  0.38705  1.0000
  H   H370      1.0  0.46310  0.22942  0.04254  1.0000
  H   H371      1.0  0.48324  0.23729  0.36196  1.0000
  H   H372      1.0  0.35873  0.02156  0.22043  1.0000
  C   C463      1.0  0.55218  0.23530  0.38505  1.0000
  P   P15       1.0  0.42890  0.47614  0.03319  1.0000
  H   H373      1.0  0.46530  0.40139  0.27436  1.0000
  C   C464      1.0  0.54944  0.02970  0.11657  1.0000
  H   H374      1.0  0.36755  0.39418  0.31088  1.0000
  H   H375      1.0  0.64516  0.37356  0.40793  1.0000
  H   H376      1.0  0.55056  0.34373  0.02554  1.0000
  H   H377      1.0  0.42809  0.40608  0.11321  1.0000
  C   C465      1.0  0.63117  0.07133  0.38482  1.0000
  H   H378      1.0  0.33235  0.46573  0.01624  1.0000
  C   C466      1.0  0.43100  0.04137  0.26599  1.0000
  H   H379      1.0  0.49707  0.45323  0.14858  1.0000
  H   H380      1.0  0.62862  0.12477  0.29405  1.0000
  P   P16       1.0  0.48144  0.27593  0.04438  1.0000
  H   H381      1.0  0.53802  0.25765  0.47238  1.0000
  H   H382      1.0  0.60403  0.07090  0.04717  1.0000
  P   P17       1.0  0.53446  0.48587  0.00735  1.0000
  C   C467      1.0  0.44324  0.42853  0.29389  1.0000
  C   C468      1.0  0.39814  0.06613  0.25726  1.0000
  H   H383      1.0  0.66082  0.05724  0.46869  1.0000
  H   H384      1.0  0.47522  0.45603  0.02982  1.0000
  H   H385      1.0  0.52788  0.43156  0.11577  1.0000
  H   H386      1.0  0.62808  0.05846  0.32699  1.0000
  C   C469      1.0  0.35573  0.44347  0.26274  1.0000
  H   H387      1.0  0.62556  0.27781  0.30514  1.0000
  H   H388      1.0  0.59198  0.24413  0.44390  1.0000
  C   C470      1.0  0.37440  0.45659  0.27500  1.0000
  S   S77       1.0  0.62953  0.31917  0.48677  1.0000
  H   H389      1.0  0.49253  0.40524  0.32919  1.0000
  C   C471      1.0  0.64262  0.27466  0.29413  1.0000
  C   C472      1.0  0.49378  0.24848  0.05687  1.0000
  P   P18       1.0  0.65845  0.29517  0.36134  1.0000
  P   P19       1.0  0.37420  0.00462  0.29647  1.0000
  C   C473      1.0  0.50951  0.30499  0.00090  1.0000
  C   C474      1.0  0.63780  0.25531  0.38719  1.0000
  C   C475      1.0  0.63784  0.37088  0.34710  1.0000
  C   C476      1.0  0.63710  0.35636  0.31518  1.0000
  C   C477      1.0  0.64327  0.33333  0.31911  1.0000
  H   H390      1.0  0.49148  0.02767  0.10976  1.0000
  C   C478      1.0  0.45048  0.27005  0.10505  1.0000
  Fe  Fe36      1.0  0.60517  0.11391  0.48656  1.0000
  C   C479      1.0  0.53202  0.11664  0.49041  1.0000
  C   C480      1.0  0.65377  0.18164  0.40170  1.0000
  H   H391      1.0  0.63301  0.38869  0.34411  1.0000
  H   H392      1.0  0.65024  0.26574  0.49026  1.0000
  C   C481      1.0  0.58218  0.18201  0.41073  1.0000
  C   C482      1.0  0.58822  0.18191  0.37186  1.0000
  C   C483      1.0  0.57185  0.17642  0.34384  1.0000
  C   C484      1.0  0.54962  0.17053  0.35463  1.0000
  C   C485      1.0  0.54373  0.16964  0.39374  1.0000
  C   C486      1.0  0.56005  0.17579  0.42169  1.0000
  P   P20       1.0  0.51473  0.16383  0.40805  1.0000
  C   C487      1.0  0.50226  0.19175  0.41482  1.0000
  C   C488      1.0  0.49985  0.14748  0.37174  1.0000
  C   C489      1.0  0.47699  0.15239  0.36184  1.0000
  C   C490      1.0  0.46576  0.13946  0.33358  1.0000
  C   C491      1.0  0.47715  0.12138  0.31557  1.0000
  C   C492      1.0  0.49968  0.11605  0.32609  1.0000
  C   C493      1.0  0.51091  0.12891  0.35431  1.0000
  C   C494      1.0  0.49604  0.20488  0.38251  1.0000
  C   C495      1.0  0.35971  0.48829  0.03290  1.0000
  H   H393      1.0  0.40043  0.43844  0.00594  1.0000
  H   H394      1.0  0.47981  0.25394  0.42740  1.0000
  C   C496      1.0  0.49257  0.22378  0.45617  1.0000
  C   C497      1.0  0.51441  0.14607  0.45056  1.0000
  C   C498      1.0  0.64065  0.08819  0.40841  1.0000
  H   H395      1.0  0.41218  0.48474  0.11078  1.0000
  C   C499      1.0  0.34756  0.02547  0.39966  1.0000
  C   C500      1.0  0.47397  0.42484  0.06232  1.0000
  C   C501      1.0  0.53779  0.02252  0.05060  1.0000
  H   H396      1.0  0.60558  0.18586  0.36348  1.0000
  H   H397      1.0  0.57648  0.17578  0.31371  1.0000
  H   H398      1.0  0.53730  0.16632  0.33232  1.0000
  H   H399      1.0  0.55568  0.17588  0.45203  1.0000
  H   H400      1.0  0.46777  0.16605  0.37595  1.0000
  H   H401      1.0  0.44822  0.14342  0.32561  1.0000
  H   H402      1.0  0.46856  0.11145  0.29346  1.0000
  H   H403      1.0  0.50851  0.10201  0.31216  1.0000
  H   H404      1.0  0.52830  0.12449  0.36243  1.0000
  H   H405      1.0  0.49780  0.19795  0.35375  1.0000
  C   C502      1.0  0.63547  0.07153  0.34529  1.0000
  H   H406      1.0  0.59455  0.18677  0.43264  1.0000
  H   H407      1.0  0.50702  0.19231  0.47683  1.0000
  C   C503      1.0  0.46084  0.41083  0.08611  1.0000
  C   C504      1.0  0.60247  0.46852  0.00323  1.0000
  H   H408      1.0  0.54711  0.12973  0.43885  1.0000
  H   H409      1.0  0.44934  0.03857  0.26409  1.0000
  H   H410      1.0  0.62271  0.22427  0.40868  1.0000
  C   C505      1.0  0.50361  0.29713  0.03784  1.0000
  C   C506      1.0  0.52234  0.47581  0.05212  1.0000
  C   C507      1.0  0.43812  0.41665  0.09396  1.0000
  C   C508      1.0  0.64506  0.26389  0.25847  1.0000
  C   C509      1.0  0.53632  0.27580  0.41840  1.0000
  H   H411      1.0  0.53058  0.29166  0.43138  1.0000
  H   H412      1.0  0.52694  0.26167  0.07478  1.0000
  C   C510      1.0  0.63656  0.27929  0.38629  1.0000
  H   H413      1.0  0.57286  0.02630  0.06921  1.0000
  C   C511      1.0  0.48066  0.09097  0.02882  1.0000
  C   C512      1.0  0.42848  0.43640  0.07788  1.0000
  C   C513      1.0  0.47374  0.43285  0.35573  1.0000
  C   C514      1.0  0.38369  0.04857  0.26968  1.0000
  C   C515      1.0  0.48572  0.06847  0.03953  1.0000
  C   C516      1.0  0.45460  0.44729  0.35316  1.0000
  C   C517      1.0  0.53765  0.33057  0.02884  1.0000
  H   H414      1.0  0.36544  0.05175  0.27157  1.0000
  H   H415      1.0  0.63835  0.15170  0.37701  1.0000
  C   C518      1.0  0.38101  0.48417  0.41473  1.0000
  C   C519      1.0  0.38797  0.42480  0.31360  1.0000
  H   H416      1.0  0.43300  0.07585  0.24479  1.0000
  C   C520      1.0  0.42622  0.00764  0.06061  1.0000
  H   H417      1.0  0.56282  0.03308  0.13757  1.0000
  C   C521      1.0  0.40737  0.47818  0.36160  1.0000
  H   H418      1.0  0.49016  0.06498  0.06929  1.0000
  H   H419      1.0  0.48566  0.43448  0.37960  1.0000
  H   H420      1.0  0.61626  0.30875  0.40356  1.0000
  H   H421      1.0  0.36565  0.47935  0.43017  1.0000
  C   C522      1.0  0.52650  0.02986  0.12778  1.0000
  C   C523      1.0  0.54060  0.25669  0.44150  1.0000
  C   C524      1.0  0.54808  0.23631  0.42474  1.0000
  C   C525      1.0  0.63996  0.13377  0.27479  1.0000
  P   P21       1.0  0.41486  0.46412  0.31698  1.0000
  C   C526      1.0  0.60398  0.25390  0.42702  1.0000
  H   H422      1.0  0.44064  0.33510  0.11958  1.0000
  C   C527      1.0  0.39827  0.47279  0.02872  1.0000
  C   C528      1.0  0.51512  0.30601  0.07011  1.0000
  H   H423      1.0  0.62997  0.25876  0.24232  1.0000
  C   C529      1.0  0.53256  0.13087  0.45805  1.0000
  C   C530      1.0  0.60208  0.27766  0.42509  1.0000
  H   H424      1.0  0.59140  0.12459  0.02084  1.0000
  C   C531      1.0  0.47763  0.41633  0.32737  1.0000
  C   C532      1.0  0.53063  0.45547  0.06872  1.0000
  H   H425      1.0  0.63017  0.48088  0.03858  1.0000
  H   H426      1.0  0.62014  0.05838  0.39719  1.0000
  C   C533      1.0  0.61819  0.29035  0.40451  1.0000
  C   C534      1.0  0.52164  0.44749  0.10351  1.0000
  H   H427      1.0  0.46666  0.32168  0.06852  1.0000
  C   C535      1.0  0.41659  0.02370  0.27798  1.0000
  C   C536      1.0  0.38784  0.47165  0.38239  1.0000
  C   C537      1.0  0.65383  0.16182  0.37920  1.0000
  C   C538      1.0  0.49636  0.48026  0.10622  1.0000
  C   C539      1.0  0.42158  0.48678  0.28339  1.0000
  H   H428      1.0  0.51954  0.18913  0.08395  1.0000
  C   C540      1.0  0.62157  0.24270  0.40753  1.0000
  H   H429      1.0  0.61366  0.13725  0.23138  1.0000
  H   H430      1.0  0.52207  0.03325  0.15755  1.0000
  H   H431      1.0  0.63877  0.15802  0.18568  1.0000
  C   C541      1.0  0.50101  0.20155  0.45165  1.0000
  C   C542      1.0  0.52580  0.22531  0.07941  1.0000
  H   H432      1.0  0.45196  0.46003  0.37524  1.0000
  H   H433      1.0  0.46843  0.39569  0.09910  1.0000
  C   C543      1.0  0.43923  0.44522  0.32213  1.0000
  H   H434      1.0  0.40930  0.01519  0.05794  1.0000
  H   H435      1.0  0.41107  0.44095  0.08551  1.0000
  C   C544      1.0  0.63133  0.14098  0.23914  1.0000
  C   C545      1.0  0.43563  0.27782  0.13377  1.0000
  C   C546      1.0  0.53206  0.32265  0.06557  1.0000
  C   C547      1.0  0.48067  0.22850  0.05263  1.0000
  H   H436      1.0  0.45316  0.25187  0.10203  1.0000
  H   H437      1.0  0.42710  0.26566  0.15236  1.0000
  H   H438      1.0  0.37749  0.45731  0.37324  1.0000
  S   S78       1.0  0.38551  0.00721  0.15713  1.0000
  C   C548      1.0  0.64985  0.32464  0.35528  1.0000
  H   H439      1.0  0.47961  0.19190  0.06027  1.0000
  H   H440      1.0  0.55021  0.13111  0.00836  1.0000
  H   H441      1.0  0.58831  0.28637  0.44008  1.0000
  C   C549      1.0  0.49000  0.20719  0.06216  1.0000
  C   C550      1.0  0.64454  0.36237  0.38305  1.0000
  H   H442      1.0  0.64269  0.32250  0.29394  1.0000
  C   C551      1.0  0.36937  0.41167  0.30110  1.0000
  H   H443      1.0  0.48130  0.10444  0.05020  1.0000
  H   H444      1.0  0.63700  0.08805  0.43886  1.0000
  H   H445      1.0  0.65216  0.08864  0.29862  1.0000
  C   C552      1.0  0.64546  0.15273  0.21351  1.0000
  C   C553      1.0  0.43211  0.30124  0.13898  1.0000
  C   C554      1.0  0.46234  0.41416  0.29649  1.0000
  H   H446      1.0  0.54068  0.32970  0.09058  1.0000
  C   C555      1.0  0.35325  0.42100  0.27564  1.0000
  H   H447      1.0  0.34341  0.45058  0.24251  1.0000
  C   C556      1.0  0.50433  0.45973  0.12204  1.0000
  C   C557      1.0  0.51645  0.24670  0.07042  1.0000
  C   C558      1.0  0.61205  0.48220  0.03201  1.0000
  H   H448      1.0  0.63158  0.36297  0.28745  1.0000
  H   H449      1.0  0.43165  0.42674  0.26960  1.0000
  H   H450      1.0  0.54396  0.44563  0.05468  1.0000
  H   H451      1.0  0.51094  0.30011  0.09886  1.0000
  H   H452      1.0  0.37621  0.47373  0.26397  1.0000
  C   C559      1.0  0.44513  0.01806  0.04325  1.0000
  H   H453      1.0  0.40025  0.41728  0.33341  1.0000
  C   C560      1.0  0.59281  0.39220  0.04017  1.0000
  C   C561      1.0  0.45810  0.30921  0.08647  1.0000
  C   C562      1.0  0.44321  0.31691  0.11518  1.0000
  C   C563      1.0  0.58822  0.07061  0.03078  1.0000
  C   C564      1.0  0.46713  0.00862  0.04782  1.0000
  C   C565      1.0  0.46209  0.28570  0.08149  1.0000
  H   H454      1.0  0.42092  0.30732  0.16163  1.0000
  C   C566      1.0  0.65394  0.10564  0.39257  1.0000
  C   C567      1.0  0.44139  0.45032  0.05309  1.0000
  H   H455      1.0  0.65156  0.24639  0.37267  1.0000
  C   C568      1.0  0.42178  0.06248  0.25524  1.0000
  H   H456      1.0  0.39101  0.08250  0.24881  1.0000
  H   H457      1.0  0.45235  0.47092  0.26079  1.0000
  H   H458      1.0  0.54307  0.22410  0.09081  1.0000
  C   C569      1.0  0.46447  0.44478  0.04653  1.0000
  C   C570      1.0  0.48596  0.23658  0.42390  1.0000
  H   H459      1.0  0.48073  0.15703  0.46888  1.0000
  H   H460      1.0  0.42415  0.00750  0.28617  1.0000
  H   H461      1.0  0.43791  0.29573  0.01582  1.0000
  C   C571      1.0  0.64965  0.22892  0.49171  1.0000
  H   H462      1.0  0.51135  0.44081  0.00173  1.0000
  H   H463      1.0  0.48301  0.48978  0.12077  1.0000
  C   C572      1.0  0.36548  0.44976  0.00968  1.0000
  H   H464      1.0  0.33194  0.03341  0.40985  1.0000
  C   C573      1.0  0.50553  0.48845  0.07165  1.0000
  C   C574      1.0  0.38919  0.45238  0.01393  1.0000
  H   H465      1.0  0.49164  0.23128  0.48467  1.0000
  C   C575      1.0  0.48512  0.05088  0.01203  1.0000
  C   C576      1.0  0.44141  0.48585  0.26066  1.0000
  H   H466      1.0  0.33669  0.02569  0.34052  1.0000
  C   C577      1.0  0.58936  0.40162  0.00321  1.0000
  H   H467      1.0  0.44251  0.03356  0.02676  1.0000
  H   H468      1.0  0.63272  0.22764  0.47923  1.0000
  C   C578      1.0  0.39273  0.02698  0.27893  1.0000
  H   H469      1.0  0.53097  0.40307  0.00429  1.0000
  C   C579      1.0  0.65745  0.10654  0.35261  1.0000
  H   H470      1.0  0.66120  0.11845  0.41155  1.0000
  C   C580      1.0  0.34718  0.00319  0.27100  1.0000
  C   C581      1.0  0.38532  0.00995  0.41252  1.0000
  C   C582      1.0  0.38338  0.49093  0.03735  1.0000
  S   S79       1.0  0.34056  0.49260  0.13688  1.0000
  C   C583      1.0  0.34464  0.01283  0.23416  1.0000
  C   C584      1.0  0.35024  0.02088  0.36038  1.0000
  H   H471      1.0  0.36292  0.02339  0.45618  1.0000
  C   C585      1.0  0.37034  0.01035  0.34705  1.0000
  C   C586      1.0  0.46544  0.27264  0.00003  1.0000
  H   H472      1.0  0.39896  0.00579  0.43268  1.0000
  C   C587      1.0  0.36504  0.01989  0.42575  1.0000
  C   C588      1.0  0.38806  0.00537  0.37327  1.0000
  H   H473      1.0  0.35851  0.43387  0.99885  1.0000
  H   H474      1.0  0.54616  0.10500  0.49600  1.0000
  C   C589      1.0  0.66204  0.28155  0.31518  1.0000
  H   H475      1.0  0.40397  0.99787  0.36335  1.0000
  C   C590      1.0  0.52644  0.32170  0.99652  1.0000
  Fe  Fe37      1.0  0.60183  0.46844  0.87010  1.0000
  S   S80       1.0  0.58318  0.43515  0.87813  1.0000
  Fe  Fe38      1.0  0.64979  0.13953  0.50139  1.0000
  S   S81       1.0  0.63261  0.40963  0.86488  1.0000
  Fe  Fe39      1.0  0.60414  0.42287  0.82735  1.0000
  S   S82       1.0  0.58950  0.39933  0.78109  1.0000
  Fe  Fe40      1.0  0.61338  0.42488  0.91470  1.0000
  S   S83       1.0  0.61356  0.40751  0.97382  1.0000
  S   S84       1.0  0.62071  0.45687  0.81657  1.0000
  S   S85       1.0  0.63160  0.45861  0.90897  1.0000
  Fe  Fe41      1.0  0.59137  0.02862  0.88632  1.0000
  C   C591      1.0  0.43376  0.47115  0.66553  1.0000
  S   S86       1.0  0.56669  0.04964  0.92394  1.0000
  Fe  Fe42      1.0  0.60233  0.01907  0.80032  1.0000
  H   H476      1.0  0.55964  0.06599  0.81639  1.0000
  S   S87       1.0  0.59406  0.02877  0.73779  1.0000
  C   C592      1.0  0.42404  0.49277  0.65963  1.0000
  C   C593      1.0  0.44114  0.26761  0.93050  1.0000
  C   C594      1.0  0.61759  0.18508  0.84268  1.0000
  S   S88       1.0  0.61901  0.04083  0.84571  1.0000
  C   C595      1.0  0.54725  0.47927  0.74450  1.0000
  C   C596      1.0  0.59724  0.21887  0.53783  1.0000
  Fe  Fe43      1.0  0.61683  0.36745  0.56155  1.0000
  H   H477      1.0  0.50102  0.29851  0.97544  1.0000
  S   S89       1.0  0.61664  0.39792  0.60297  1.0000
  Fe  Fe44      1.0  0.62552  0.31636  0.55068  1.0000
  S   S90       1.0  0.59319  0.33731  0.55306  1.0000
  C   C597      1.0  0.64725  0.17961  0.89083  1.0000
  Fe  Fe45      1.0  0.62329  0.11971  0.56945  1.0000
  C   C598      1.0  0.63991  0.15712  0.89650  1.0000
  S   S91       1.0  0.63386  0.10793  0.63007  1.0000
  H   H478      1.0  0.62115  0.34304  0.76344  1.0000
  H   H479      1.0  0.52521  0.03059  0.96443  1.0000
  C   C599      1.0  0.52384  0.48310  0.75169  1.0000
  H   H480      1.0  0.64183  0.21100  0.85945  1.0000
  S   S92       1.0  0.63679  0.15498  0.55600  1.0000
  C   C600      1.0  0.61876  0.25878  0.56533  1.0000
  C   C601      1.0  0.52688  0.46755  0.96750  1.0000
  C   C602      1.0  0.65013  0.36484  0.77465  1.0000
  H   H481      1.0  0.53081  0.32795  0.96810  1.0000
  H   H482      1.0  0.57217  0.45896  0.97250  1.0000
  H   H483      1.0  0.59536  0.15654  0.83250  1.0000
  C   C603      1.0  0.60602  0.05032  0.70781  1.0000
  C   C604      1.0  0.62434  0.06396  0.71984  1.0000
  C   C605      1.0  0.63271  0.08140  0.69556  1.0000
  C   C606      1.0  0.62297  0.08531  0.65893  1.0000
  C   C607      1.0  0.60486  0.07145  0.64669  1.0000
  C   C608      1.0  0.59646  0.05407  0.67102  1.0000
  H   H484      1.0  0.63177  0.06125  0.74803  1.0000
  H   H485      1.0  0.49001  0.24938  0.97463  1.0000
  H   H486      1.0  0.59719  0.07423  0.61863  1.0000
  H   H487      1.0  0.58230  0.04358  0.66140  1.0000
  C   C609      1.0  0.51581  0.44656  0.97319  1.0000
  C   C610      1.0  0.58958  0.24051  0.52591  1.0000
  C   C611      1.0  0.63472  0.10042  0.89602  1.0000
  H   H488      1.0  0.62011  0.42815  0.73514  1.0000
  H   H489      1.0  0.56193  0.12729  0.88649  1.0000
  C   C612      1.0  0.65692  0.10376  0.88163  1.0000
  H   H490      1.0  0.56394  0.41281  0.96217  1.0000
  C   C613      1.0  0.59800  0.39884  0.73200  1.0000
  C   C614      1.0  0.58896  0.38192  0.70752  1.0000
  C   C615      1.0  0.59507  0.38098  0.66827  1.0000
  C   C616      1.0  0.61002  0.39721  0.65291  1.0000
  C   C617      1.0  0.61895  0.41425  0.67737  1.0000
  C   C618      1.0  0.61312  0.41497  0.71674  1.0000
  H   H491      1.0  0.57721  0.36940  0.71901  1.0000
  H   H492      1.0  0.58788  0.36793  0.64978  1.0000
  H   H493      1.0  0.63032  0.42708  0.66582  1.0000
  C   C619      1.0  0.65568  0.36578  0.69463  1.0000
  C   C620      1.0  0.57741  0.48222  0.67698  1.0000
  C   C621      1.0  0.45754  0.46873  0.66877  1.0000
  C   C622      1.0  0.51704  0.43908  0.90456  1.0000
  C   C623      1.0  0.62587  0.23719  0.57835  1.0000
  H   H494      1.0  0.42282  0.45627  0.66771  1.0000
  C   C624      1.0  0.47393  0.25843  0.97077  1.0000
  H   H495      1.0  0.60876  0.19600  0.82214  1.0000
  S   S93       1.0  0.64869  0.34596  0.56357  1.0000
  H   H496      1.0  0.46842  0.24489  0.91376  1.0000
  C   C625      1.0  0.61528  0.21727  0.56439  1.0000
  C   C626      1.0  0.63831  0.35259  0.71105  1.0000
  S   S94       1.0  0.61148  0.99783  0.90546  1.0000
  C   C627      1.0  0.57866  0.44886  0.63529  1.0000
  S   S95       1.0  0.63317  0.28332  0.58187  1.0000
  H   H497      1.0  0.53278  0.46537  0.86997  1.0000
  C   C628      1.0  0.59884  0.45689  0.61862  1.0000
  C   C629      1.0  0.63530  0.35241  0.75096  1.0000
  C   C630      1.0  0.55776  0.45959  0.75978  1.0000
  C   C631      1.0  0.46179  0.25591  0.93619  1.0000
  H   H498      1.0  0.45499  0.45214  0.97159  1.0000
  C   C632      1.0  0.51704  0.01440  0.95855  1.0000
  C   C633      1.0  0.47487  0.09610  0.99068  1.0000
  C   C634      1.0  0.53255  0.47434  0.92997  1.0000
  H   H499      1.0  0.57525  0.24188  0.50623  1.0000
  H   H500      1.0  0.53545  0.13225  0.94111  1.0000
  C   C635      1.0  0.49488  0.13193  0.50748  1.0000
  H   H501      1.0  0.55231  0.45487  0.67676  1.0000
  C   C636      1.0  0.51094  0.43237  0.94179  1.0000
  H   H502      1.0  0.51383  0.42781  0.88042  1.0000
  C   C637      1.0  0.60057  0.26042  0.53904  1.0000
  S   S96       1.0  0.58895  0.12700  0.54130  1.0000
  H   H503      1.0  0.53242  0.07149  0.97034  1.0000
  Fe  Fe46      1.0  0.63843  0.00855  0.86194  1.0000
  H   H504      1.0  0.57626  0.08484  0.87346  1.0000
  C   C638      1.0  0.66113  0.20909  0.50316  1.0000
  C   C639      1.0  0.43870  0.48440  0.98583  1.0000
  C   C640      1.0  0.59774  0.49014  0.66006  1.0000
  H   H505      1.0  0.43174  0.26565  0.90369  1.0000
  C   C641      1.0  0.62169  0.14827  0.87456  1.0000
  C   C642      1.0  0.47390  0.07867  0.96324  1.0000
  H   H506      1.0  0.60314  0.05229  0.98284  1.0000
  H   H507      1.0  0.46502  0.45197  0.67345  1.0000
  H   H508      1.0  0.57562  0.45580  0.75388  1.0000
  H   H509      1.0  0.41668  0.29105  0.95490  1.0000
  H   H510      1.0  0.49349  0.47121  0.78051  1.0000
  H   H511      1.0  0.65395  0.07202  0.80711  1.0000
  H   H512      1.0  0.57204  0.07727  0.75086  1.0000
  H   H513      1.0  0.57172  0.43253  0.62625  1.0000
  C   C643      1.0  0.52212  0.44861  0.79011  1.0000
  C   C644      1.0  0.56780  0.06064  0.97179  1.0000
  H   H514      1.0  0.64372  0.04975  0.94253  1.0000
  S   S97       1.0  0.58444  0.19423  0.51804  1.0000
  C   C645      1.0  0.65944  0.25032  0.49840  1.0000
  C   C646      1.0  0.63001  0.08073  0.91767  1.0000
  H   H515      1.0  0.65710  0.36606  0.66357  1.0000
  H   H516      1.0  0.51252  0.43675  0.80771  1.0000
  H   H517      1.0  0.63987  0.23583  0.59876  1.0000
  C   C647      1.0  0.51142  0.46792  0.77463  1.0000
  H   H518      1.0  0.46990  0.46548  0.90923  1.0000
  C   C648      1.0  0.56790  0.46149  0.66422  1.0000
  H   H519      1.0  0.64669  0.09205  0.70536  1.0000
  H   H520      1.0  0.61961  0.12508  0.79959  1.0000
  S   S98       1.0  0.63848  0.10394  0.51602  1.0000
  H   H521      1.0  0.62665  0.34315  0.69263  1.0000
  P   P22       1.0  0.61168  0.11955  0.88293  1.0000
  C   C649      1.0  0.52770  0.46015  0.89865  1.0000
  C   C650      1.0  0.59841  0.10711  0.84084  1.0000
  C   C651      1.0  0.60594  0.11287  0.80370  1.0000
  C   C652      1.0  0.59600  0.10257  0.77134  1.0000
  C   C653      1.0  0.57919  0.08582  0.77590  1.0000
  C   C654      1.0  0.57214  0.07951  0.81279  1.0000
  C   C655      1.0  0.58166  0.09016  0.84511  1.0000
  C   C656      1.0  0.56860  0.12657  0.91563  1.0000
  C   C657      1.0  0.61018  0.16261  0.84834  1.0000
  H   H522      1.0  0.55348  0.42944  0.79468  1.0000
  H   H523      1.0  0.60165  0.10713  0.74263  1.0000
  C   C658      1.0  0.59197  0.12243  0.92255  1.0000
  Fe  Fe47      1.0  0.64879  0.44412  0.85644  1.0000
  C   C659      1.0  0.54525  0.44448  0.78273  1.0000
  H   H524      1.0  0.46934  0.08261  0.93367  1.0000
  H   H525      1.0  0.62106  0.20074  0.57428  1.0000
  C   C660      1.0  0.45143  0.46946  0.96252  1.0000
  H   H526      1.0  0.66140  0.18630  0.90770  1.0000
  C   C661      1.0  0.43266  0.28191  0.95936  1.0000
  H   H527      1.0  0.47777  0.04286  0.95222  1.0000
  C   C662      1.0  0.63619  0.19355  0.86376  1.0000
  H   H528      1.0  0.61305  0.45647  0.98780  1.0000
  C   C663      1.0  0.45958  0.47681  0.92670  1.0000
  H   H529      1.0  0.61270  0.07710  0.92702  1.0000
  H   H530      1.0  0.59484  0.27704  0.52918  1.0000
  C   C664      1.0  0.47884  0.05612  0.97387  1.0000
  H   H531      1.0  0.64830  0.14671  0.91826  1.0000
  H   H532      1.0  0.47105  0.11357  0.98246  1.0000
  H   H533      1.0  0.60726  0.44685  0.59656  1.0000
  S   S99       1.0  0.57289  0.00956  0.83905  1.0000
  C   C665      1.0  0.52349  0.00232  0.92562  1.0000
  C   C666      1.0  0.60019  0.12216  0.96066  1.0000
  H   H534      1.0  0.51302  0.10625  0.54040  1.0000
  C   C667      1.0  0.64750  0.06518  0.92643  1.0000
  Fe  Fe48      1.0  0.60400  0.16089  0.52395  1.0000
  C   C668      1.0  0.50016  0.00577  0.98333  1.0000
  H   H535      1.0  0.48023  0.13216  0.52652  1.0000
  C   C669      1.0  0.55356  0.12968  0.94648  1.0000
  H   H536      1.0  0.50291  0.41592  0.94648  1.0000
  C   C670      1.0  0.54797  0.07078  0.98738  1.0000
  C   C671      1.0  0.60839  0.47748  0.63102  1.0000
  H   H537      1.0  0.61817  0.11925  0.96680  1.0000
  H   H538      1.0  0.53689  0.00897  0.90718  1.0000
  H   H539      1.0  0.54120  0.49043  0.92505  1.0000
  H   H540      1.0  0.62419  0.48349  0.61832  1.0000
  C   C672      1.0  0.47166  0.48792  0.66592  1.0000
  H   H541      1.0  0.64750  0.36501  0.80553  1.0000
  H   H542      1.0  0.49009  0.48606  0.66846  1.0000
  H   H543      1.0  0.66068  0.11814  0.86313  1.0000
  C   C673      1.0  0.58782  0.06019  0.99411  1.0000
  H   H544      1.0  0.65684  0.02351  0.69207  1.0000
  C   C674      1.0  0.56691  0.40573  0.99058  1.0000
  H   H545      1.0  0.65348  0.19251  0.49797  1.0000
  C   C675      1.0  0.51330  0.11728  0.51529  1.0000
  H   H546      1.0  0.58715  0.49062  0.78898  1.0000
  C   C676      1.0  0.56185  0.12916  0.98432  1.0000
  C   C677      1.0  0.58515  0.12546  0.99138  1.0000
  Fe  Fe49      1.0  0.64988  0.35065  0.49967  1.0000
  H   H547      1.0  0.66041  0.46379  0.76341  1.0000
  C   C678      1.0  0.44476  0.28448  0.99399  1.0000
  H   H548      1.0  0.65242  0.44052  0.98974  1.0000
  C   C679      1.0  0.57910  0.47002  0.99463  1.0000
  S   S100      1.0  0.61953  0.37428  0.49745  1.0000
  H   H549      1.0  0.66178  0.00291  0.63027  1.0000
  Fe  Fe50      1.0  0.36263  0.92164  0.18541  1.0000
  H   H550      1.0  0.37248  0.60604  0.25443  1.0000
  S   S101      1.0  0.37349  0.89369  0.22797  1.0000
  Fe  Fe51      1.0  0.36082  0.93227  0.09900  1.0000
  C   C680      1.0  0.41334  0.50950  0.40659  1.0000
  S   S102      1.0  0.37167  0.92702  0.03611  1.0000
  Fe  Fe52      1.0  0.36926  0.97113  0.15662  1.0000
  C   C681      1.0  0.39703  0.86362  0.00998  1.0000
  S   S103      1.0  0.38779  0.93824  0.14440  1.0000
  C   C682      1.0  0.54440  0.95608  0.99746  1.0000
  Fe  Fe53      1.0  0.34643  0.53056  0.13041  1.0000
  C   C683      1.0  0.37382  0.62443  0.25782  1.0000
  S   S104      1.0  0.34828  0.54728  0.07071  1.0000
  Fe  Fe54      1.0  0.34357  0.53867  0.21843  1.0000
  C   C684      1.0  0.36265  0.70592  0.48018  1.0000
  H   H551      1.0  0.60554  0.50776  0.07520  1.0000
  C   C685      1.0  0.42993  0.51437  0.13158  1.0000
  H   H552      1.0  0.48676  0.98149  0.07454  1.0000
  S   S105      1.0  0.37287  0.53268  0.17742  1.0000
  H   H553      1.0  0.38769  0.62987  0.20118  1.0000
  H   H554      1.0  0.33098  0.98204  0.31424  1.0000
  S   S106      1.0  0.34276  0.96587  0.10987  1.0000
  S   S107      1.0  0.37509  0.57998  0.43438  1.0000
  C   C686      1.0  0.38239  0.63786  0.22788  1.0000
  Fe  Fe55      1.0  0.34308  0.85300  0.44688  1.0000
  H   H555      1.0  0.43525  0.50248  0.35850  1.0000
  H   H556      1.0  0.36755  0.63255  0.39341  1.0000
  C   C687      1.0  0.33937  0.70702  0.48955  1.0000
  H   H557      1.0  0.39816  0.98491  0.23094  1.0000
  H   H558      1.0  0.35968  0.75081  0.38992  1.0000
  C   C688      1.0  0.34753  0.56936  0.31097  1.0000
  C   C689      1.0  0.36575  0.55624  0.32513  1.0000
  C   C690      1.0  0.37401  0.55971  0.36292  1.0000
  C   C691      1.0  0.36386  0.57603  0.38721  1.0000
  C   C692      1.0  0.34521  0.58876  0.37339  1.0000
  H   H559      1.0  0.43097  0.99015  0.18258  1.0000
  H   H560      1.0  0.37373  0.54378  0.30668  1.0000
  C   C693      1.0  0.41087  0.56765  0.99680  1.0000
  C   C694      1.0  0.40768  0.50640  0.28187  1.0000
  S   S108      1.0  0.37536  0.83967  0.47489  1.0000
  C   C695      1.0  0.36319  0.89029  0.27587  1.0000
  C   C696      1.0  0.35008  0.90714  0.29401  1.0000
  C   C697      1.0  0.35342  0.70163  0.33810  1.0000
  C   C698      1.0  0.34890  0.88436  0.35346  1.0000
  C   C699      1.0  0.36181  0.86740  0.33521  1.0000
  C   C700      1.0  0.36902  0.87044  0.29675  1.0000
  H   H561      1.0  0.41314  0.91683  0.26975  1.0000
  H   H562      1.0  0.48078  0.90462  0.14835  1.0000
  H   H563      1.0  0.36645  0.85205  0.35085  1.0000
  H   H564      1.0  0.37926  0.85735  0.28310  1.0000
  H   H565      1.0  0.41516  0.90414  0.09162  1.0000
  C   C701      1.0  0.37278  0.55491  0.04300  1.0000
  C   C702      1.0  0.39497  0.55467  0.05850  1.0000
  H   H566      1.0  0.33703  0.60120  0.39181  1.0000
  C   C703      1.0  0.36980  0.56163  0.00428  1.0000
  H   H567      1.0  0.39759  0.54974  0.08824  1.0000
  S   S109      1.0  0.37832  0.77268  0.46116  1.0000
  C   C704      1.0  0.50725  0.92583  0.00380  1.0000
  C   C705      1.0  0.38698  0.88197  0.03020  1.0000
  C   C706      1.0  0.37475  0.72619  0.47212  1.0000
  Fe  Fe56      1.0  0.35844  0.80516  0.47351  1.0000
  S   S110      1.0  0.34609  0.95494  0.20119  1.0000
  H   H568      1.0  0.38052  0.87940  0.05905  1.0000
  C   C707      1.0  0.51269  0.87045  0.99814  1.0000
  C   C708      1.0  0.36696  0.63467  0.29225  1.0000
  H   H569      1.0  0.33884  0.54056  0.43913  1.0000
  H   H570      1.0  0.46233  0.50329  0.21901  1.0000
  H   H571      1.0  0.43336  0.64905  0.44103  1.0000
  C   C709      1.0  0.34058  0.74851  0.48388  1.0000
  H   H572      1.0  0.41436  0.97981  0.09589  1.0000
  H   H573      1.0  0.37963  0.69004  0.27046  1.0000
  C   C710      1.0  0.37738  0.67180  0.26702  1.0000
  H   H574      1.0  0.46037  0.51577  0.03285  1.0000
  C   C711      1.0  0.59817  0.49731  0.05259  1.0000
  C   C712      1.0  0.39363  0.50320  0.42662  1.0000
  H   H575      1.0  0.38838  0.54973  0.37332  1.0000
  C   C713      1.0  0.42026  0.49701  0.37431  1.0000
  H   H576      1.0  0.39262  0.72536  0.46410  1.0000
  S   S111      1.0  0.33792  0.56728  0.26249  1.0000
  C   C714      1.0  0.45724  0.53143  0.08811  1.0000
  C   C715      1.0  0.44612  0.53125  0.12363  1.0000
  C   C716      1.0  0.43339  0.52380  0.23592  1.0000
  C   C717      1.0  0.40629  0.93374  0.27534  1.0000
  H   H577      1.0  0.42161  0.56170  0.48934  1.0000
  H   H578      1.0  0.43778  0.53801  0.21740  1.0000
  C   C718      1.0  0.41379  0.56112  0.03554  1.0000
  C   C719      1.0  0.40088  0.67939  0.37716  1.0000
  C   C720      1.0  0.33211  0.65924  0.35792  1.0000
  H   H579      1.0  0.34583  0.92267  0.27857  1.0000
  H   H580      1.0  0.40045  0.62260  0.43477  1.0000
  C   C721      1.0  0.43550  0.49804  0.06806  1.0000
  H   H581      1.0  0.43076  0.56138  0.04796  1.0000
  C   C722      1.0  0.32902  0.99055  0.28668  1.0000
  H   H582      1.0  0.33355  0.91768  0.34659  1.0000
  C   C723      1.0  0.57471  0.49869  0.04440  1.0000
  C   C724      1.0  0.34320  0.90428  0.33265  1.0000
  C   C725      1.0  0.41902  0.65351  0.42253  1.0000
  C   C726      1.0  0.41928  0.67385  0.40142  1.0000
  H   H583      1.0  0.40175  0.69482  0.35998  1.0000
  H   H584      1.0  0.37113  0.68951  0.47822  1.0000
  C   C727      1.0  0.36792  0.65850  0.29664  1.0000
  H   H585      1.0  0.44979  0.54437  0.14474  1.0000
  H   H586      1.0  0.52629  0.88188  0.00698  1.0000
  Fe  Fe57      1.0  0.36616  0.49478  0.18569  1.0000
  C   C728      1.0  0.38439  0.66150  0.23262  1.0000
  H   H587      1.0  0.36568  0.70932  0.39575  1.0000
  C   C729      1.0  0.44723  0.50429  0.23696  1.0000
  H   H588      1.0  0.39149  0.67183  0.20966  1.0000
  C   C730      1.0  0.41355  0.52479  0.25815  1.0000
  H   H589      1.0  0.43389  0.68520  0.40342  1.0000
  C   C731      1.0  0.35869  0.71611  0.36916  1.0000
  P   P23       1.0  0.48244  0.90742  0.00569  1.0000
  H   H590      1.0  0.39377  0.92477  0.33155  1.0000
  C   C732      1.0  0.42478  0.49771  0.10408  1.0000
  C   C733      1.0  0.40738  0.95065  0.24697  1.0000
  C   C734      1.0  0.36364  0.74750  0.47366  1.0000
  H   H591      1.0  0.36087  0.62398  0.31547  1.0000
  H   H592      1.0  0.38799  0.51326  0.45105  1.0000
  H   H593      1.0  0.33757  0.69993  0.28162  1.0000
  H   H594      1.0  0.53246  0.97056  0.05070  1.0000
  C   C735      1.0  0.45089  0.97814  0.08682  1.0000
  H   H595      1.0  0.49959  0.50465  0.06055  1.0000
  C   C736      1.0  0.35504  0.73966  0.36616  1.0000
  Fe  Fe58      1.0  0.35739  0.60172  0.47997  1.0000
  H   H596      1.0  0.42292  0.52446  0.41550  1.0000
  H   H597      1.0  0.38990  0.50714  0.04752  1.0000
  C   C737      1.0  0.34278  0.71089  0.30520  1.0000
  C   C738      1.0  0.38170  0.64442  0.39575  1.0000
  C   C739      1.0  0.33723  0.58552  0.33539  1.0000
  H   H598      1.0  0.46953  0.54474  0.08156  1.0000
  C   C740      1.0  0.38709  0.97696  0.28883  1.0000
  H   H599      1.0  0.39830  0.84703  0.02363  1.0000
  H   H600      1.0  0.42107  0.51422  0.15887  1.0000
  C   C741      1.0  0.45185  0.51499  0.06031  1.0000
  H   H601      1.0  0.56403  0.51008  0.06114  1.0000
  H   H602      1.0  0.40259  0.53975  0.25669  1.0000
  C   C742      1.0  0.44454  0.90540  0.05441  1.0000
  H   H603      1.0  0.49942  0.94451  0.05591  1.0000
  H   H604      1.0  0.34828  0.50228  0.03997  1.0000
  H   H605      1.0  0.41526  0.94690  0.21951  1.0000
  H   H606      1.0  0.44842  0.94429  0.00632  1.0000
  H   H607      1.0  0.33183  0.76481  0.48495  1.0000
  C   C743      1.0  0.38550  0.95968  0.31683  1.0000
  S   S112      1.0  0.33869  0.50130  0.23040  1.0000
  C   C744      1.0  0.40039  0.63868  0.41924  1.0000
  C   C745      1.0  0.42907  0.98765  0.08216  1.0000
  H   H608      1.0  0.43407  0.90460  0.02862  1.0000
  C   C746      1.0  0.38498  0.90345  0.01278  1.0000
  H   H609      1.0  0.34258  0.76717  0.33052  1.0000
  H   H610      1.0  0.43825  0.90423  0.15177  1.0000
  C   C747      1.0  0.34530  0.74887  0.33272  1.0000
  C   C748      1.0  0.39534  0.93824  0.31023  1.0000
  H   H611      1.0  0.50012  0.90546  0.08509  1.0000
  C   C749      1.0  0.38163  0.66504  0.37505  1.0000
  H   H612      1.0  0.37632  0.96246  0.34342  1.0000
  C   C750      1.0  0.51102  0.94262  0.03199  1.0000
  C   C751      1.0  0.52963  0.95757  0.02895  1.0000
  C   C752      1.0  0.33893  0.73447  0.30242  1.0000
  H   H613      1.0  0.33282  0.52590  0.37278  1.0000
  P   P24       1.0  0.35880  0.67125  0.34140  1.0000
  C   C753      1.0  0.46854  0.90666  0.05211  1.0000
  C   C754      1.0  0.48157  0.90579  0.08621  1.0000
  C   C755      1.0  0.47069  0.90515  0.12207  1.0000
  C   C756      1.0  0.44676  0.90486  0.12407  1.0000
  C   C757      1.0  0.43372  0.90484  0.09021  1.0000
  H   H614      1.0  0.39226  0.50743  0.29901  1.0000
  H   H615      1.0  0.45305  0.96283  0.10408  1.0000
  H   H616      1.0  0.33111  0.74161  0.27669  1.0000
  C   C758      1.0  0.39769  0.97215  0.25356  1.0000
  S   S113      1.0  0.33701  0.91299  0.13874  1.0000
  H   H617      1.0  0.33613  0.67209  0.41604  1.0000
  S   S114      1.0  0.33965  0.88185  0.40212  1.0000
  C   C759      1.0  0.46988  0.98867  0.06995  1.0000
  Fe  Fe59      1.0  0.46078  0.80947  0.83537  1.0000
  S   S115      1.0  0.42335  0.81119  0.84818  1.0000
  S   S116      1.0  0.47905  0.77524  0.82444  1.0000
  Fe  Fe60      1.0  0.46449  0.86235  0.82888  1.0000
  S   S117      1.0  0.42657  0.86665  0.84003  1.0000
  S   S118      1.0  0.48340  0.89597  0.81516  1.0000
  Fe  Fe61      1.0  0.43188  0.84092  0.88700  1.0000
  S   S119      1.0  0.41714  0.84257  0.94784  1.0000
  Fe  Fe62      1.0  0.42127  0.83684  0.79977  1.0000
  S   S120      1.0  0.39146  0.83060  0.75772  1.0000
  S   S121      1.0  0.47000  0.83754  0.87782  1.0000
  S   S122      1.0  0.45856  0.83414  0.78528  1.0000
  Fe  Fe63      1.0  0.45245  0.63480  0.86467  1.0000
  S   S123      1.0  0.41898  0.61714  0.87794  1.0000
  S   S124      1.0  0.44817  0.67377  0.87328  1.0000
  Fe  Fe64      1.0  0.47568  0.58819  0.84494  1.0000
  S   S125      1.0  0.44327  0.56866  0.85599  1.0000
  S   S126      1.0  0.50456  0.56634  0.81879  1.0000
  Fe  Fe65      1.0  0.42543  0.59710  0.82375  1.0000
  S   S127      1.0  0.39648  0.58980  0.78101  1.0000
  Fe  Fe66      1.0  0.43970  0.59039  0.90908  1.0000
  S   S128      1.0  0.43565  0.57439  0.96918  1.0000
  S   S129      1.0  0.45783  0.61555  0.80902  1.0000
  S   S130      1.0  0.47314  0.60904  0.89953  1.0000
  C   C760      1.0  0.49283  0.53874  0.97400  1.0000
  Fe  Fe67      1.0  0.36468  0.61847  0.56342  1.0000
  C   C761      1.0  0.58458  0.51454  0.74143  1.0000
  S   S131      1.0  0.39319  0.62478  0.60716  1.0000
  C   C762      1.0  0.35627  0.86388  0.84263  1.0000
  C   C763      1.0  0.39178  0.68874  0.59946  1.0000
  C   C764      1.0  0.46464  0.59626  0.67870  1.0000
  S   S132      1.0  0.35236  0.58527  0.53799  1.0000
  Fe  Fe68      1.0  0.35751  0.84393  0.53200  1.0000
  C   C765      1.0  0.40250  0.68497  0.56417  1.0000
  S   S133      1.0  0.38019  0.85825  0.58043  1.0000
  H   H618      1.0  0.45151  0.91346  0.87333  1.0000
  H   H619      1.0  0.51785  0.97237  0.89096  1.0000
  H   H620      1.0  0.45017  0.82257  0.52926  1.0000
  C   C766      1.0  0.52285  0.81885  0.84810  1.0000
  H   H621      1.0  0.49983  0.87136  0.70876  1.0000
  H   H622      1.0  0.48183  0.60322  0.73262  1.0000
  S   S134      1.0  0.57714  0.94409  0.86946  1.0000
  H   H623      1.0  0.38348  0.67464  0.61400  1.0000
  H   H624      1.0  0.51568  0.53233  0.61007  1.0000
  C   C767      1.0  0.39277  0.54223  0.70782  1.0000
  S   S135      1.0  0.34249  0.80872  0.53167  1.0000
  C   C768      1.0  0.45072  0.92013  0.90241  1.0000
  H   H625      1.0  0.35127  0.96565  0.91026  1.0000
  C   C769      1.0  0.43863  0.67460  0.69724  1.0000
  H   H626      1.0  0.34140  0.53366  0.63797  1.0000
  H   H627      1.0  0.38611  0.57285  0.95150  1.0000
  C   C770      1.0  0.52429  0.54723  0.84170  1.0000
  C   C771      1.0  0.52926  0.52619  0.82396  1.0000
  H   H628      1.0  0.59937  0.77558  0.67893  1.0000
  C   C772      1.0  0.56084  0.51894  0.86866  1.0000
  C   C773      1.0  0.55549  0.53970  0.88706  1.0000
  C   C774      1.0  0.53728  0.55368  0.87388  1.0000
  H   H629      1.0  0.54316  0.56780  0.97290  1.0000
  H   H630      1.0  0.39194  0.92288  0.96138  1.0000
  H   H631      1.0  0.56585  0.54527  0.91118  1.0000
  H   H632      1.0  0.53398  0.56996  0.88755  1.0000
  C   C775      1.0  0.39516  0.60111  0.73359  1.0000
  C   C776      1.0  0.37567  0.59689  0.71070  1.0000
  C   C777      1.0  0.37476  0.60390  0.67187  1.0000
  C   C778      1.0  0.39313  0.61585  0.65592  1.0000
  C   C779      1.0  0.41215  0.62099  0.67926  1.0000
  C   C780      1.0  0.41322  0.61364  0.71789  1.0000
  H   H633      1.0  0.36130  0.58786  0.72293  1.0000
  H   H634      1.0  0.35988  0.60001  0.65437  1.0000
  H   H635      1.0  0.42633  0.63037  0.66717  1.0000
  H   H636      1.0  0.42815  0.61737  0.73532  1.0000
  H   H637      1.0  0.63040  0.54926  0.79845  1.0000
  C   C781      1.0  0.35195  0.53810  0.69701  1.0000
  H   H638      1.0  0.40987  0.89060  0.92607  1.0000
  C   C782      1.0  0.50856  0.90978  0.83342  1.0000
  C   C783      1.0  0.52329  0.89943  0.86020  1.0000
  C   C784      1.0  0.54400  0.91028  0.87111  1.0000
  C   C785      1.0  0.55020  0.93174  0.85586  1.0000
  C   C786      1.0  0.53504  0.94244  0.83013  1.0000
  C   C787      1.0  0.51441  0.93154  0.81908  1.0000
  H   H639      1.0  0.51892  0.88289  0.87191  1.0000
  H   H640      1.0  0.55544  0.90187  0.89126  1.0000
  H   H641      1.0  0.53943  0.95894  0.81817  1.0000
  H   H642      1.0  0.50315  0.93983  0.79849  1.0000
  C   C788      1.0  0.38941  0.83716  0.70780  1.0000
  C   C789      1.0  0.40688  0.84848  0.68811  1.0000
  C   C790      1.0  0.40399  0.85434  0.64891  1.0000
  C   C791      1.0  0.38387  0.84846  0.62866  1.0000
  C   C792      1.0  0.36675  0.83639  0.64805  1.0000
  C   C793      1.0  0.36942  0.83103  0.68751  1.0000
  H   H643      1.0  0.42234  0.85321  0.70338  1.0000
  H   H644      1.0  0.41730  0.86374  0.63423  1.0000
  H   H645      1.0  0.35111  0.83195  0.63297  1.0000
  H   H646      1.0  0.35577  0.82238  0.70254  1.0000
  C   C794      1.0  0.46974  0.74711  0.83723  1.0000
  C   C795      1.0  0.48217  0.72802  0.82400  1.0000
  C   C796      1.0  0.47581  0.70550  0.83429  1.0000
  C   C797      1.0  0.45686  0.70172  0.85810  1.0000
  C   C798      1.0  0.44434  0.72083  0.87103  1.0000
  C   C799      1.0  0.45066  0.74332  0.86065  1.0000
  H   H647      1.0  0.49704  0.73067  0.80609  1.0000
  H   H648      1.0  0.48588  0.69113  0.82450  1.0000
  H   H649      1.0  0.42976  0.71822  0.88966  1.0000
  H   H650      1.0  0.44107  0.75776  0.87147  1.0000
  C   C800      1.0  0.35904  0.81647  0.85464  1.0000
  P   P25       1.0  0.35510  0.89436  0.83426  1.0000
  H   H651      1.0  0.40825  0.82673  0.53632  1.0000
  C   C801      1.0  0.52139  0.53375  0.63973  1.0000
  C   C802      1.0  0.50099  0.51724  0.98524  1.0000
  C   C803      1.0  0.49531  0.97342  0.93999  1.0000
  C   C804      1.0  0.34568  0.84869  0.81678  1.0000
  C   C805      1.0  0.48046  0.80852  0.69517  1.0000
  C   C806      1.0  0.40519  0.86649  0.97219  1.0000
  H   H652      1.0  0.33562  0.67863  0.87526  1.0000
  H   H653      1.0  0.37321  0.88108  0.75940  1.0000
  C   C807      1.0  0.40529  0.89845  0.75274  1.0000
  C   C808      1.0  0.55100  0.85156  0.81385  1.0000
  C   C809      1.0  0.42275  0.55755  0.51978  1.0000
  H   H654      1.0  0.35274  0.56194  0.99197  1.0000
  C   C810      1.0  0.53957  0.53232  0.98870  1.0000
  C   C811      1.0  0.44062  0.51323  0.93539  1.0000
  C   C812      1.0  0.36923  0.85500  0.87340  1.0000
  H   H655      1.0  0.33886  0.71560  0.72760  1.0000
  C   C813      1.0  0.54672  0.86970  0.72616  1.0000
  C   C814      1.0  0.53645  0.51743  0.65517  1.0000
  H   H656      1.0  0.57533  0.81570  0.77381  1.0000
  C   C815      1.0  0.37589  0.65141  0.79939  1.0000
  H   H657      1.0  0.58544  0.89722  0.66914  1.0000
  H   H658      1.0  0.51179  0.79895  0.72349  1.0000
  H   H659      1.0  0.46306  0.86298  0.67701  1.0000
  H   H660      1.0  0.55185  0.93881  0.94424  1.0000
  C   C816      1.0  0.51372  0.55192  0.66250  1.0000
  C   C817      1.0  0.44068  0.81002  0.54566  1.0000
  C   C818      1.0  0.35278  0.93444  0.87727  1.0000
  C   C819      1.0  0.42151  0.91286  0.76964  1.0000
  C   C820      1.0  0.57370  0.81075  0.74388  1.0000
  C   C821      1.0  0.43588  0.53277  0.57153  1.0000
  H   H661      1.0  0.40431  0.57717  0.60634  1.0000
  H   H662      1.0  0.38940  0.78455  0.80230  1.0000
  C   C822      1.0  0.51803  0.84760  0.99029  1.0000
  H   H663      1.0  0.51897  0.91248  0.94904  1.0000
  H   H664      1.0  0.47588  0.89649  0.92351  1.0000
  H   H665      1.0  0.37566  0.65344  0.70248  1.0000
  C   C823      1.0  0.35578  0.53580  0.65752  1.0000
  C   C824      1.0  0.54403  0.51935  0.69348  1.0000
  C   C825      1.0  0.46199  0.50953  0.65991  1.0000
  C   C826      1.0  0.53746  0.83206  0.87093  1.0000
  H   H666      1.0  0.36752  0.54357  0.75272  1.0000
  C   C827      1.0  0.55519  0.81364  0.68137  1.0000
  P   P26       1.0  0.38028  0.69141  0.75634  1.0000
  C   C828      1.0  0.43616  0.93838  0.91115  1.0000
  H   H667      1.0  0.43625  0.53019  0.92491  1.0000
  H   H668      1.0  0.55075  0.49592  0.82359  1.0000
  H   H669      1.0  0.40455  0.68514  0.68274  1.0000
  H   H670      1.0  0.53809  0.92553  0.75039  1.0000
  H   H671      1.0  0.42553  0.94595  0.88890  1.0000
  H   H672      1.0  0.34074  0.94613  0.97121  1.0000
  C   C829      1.0  0.37007  0.67465  0.79637  1.0000
  C   C830      1.0  0.36039  0.68602  0.71728  1.0000
  H   H673      1.0  0.40018  0.75325  0.84737  1.0000
  C   C831      1.0  0.41301  0.56625  0.58588  1.0000
  H   H674      1.0  0.51061  0.81158  0.79130  1.0000
  C   C832      1.0  0.50068  0.83232  0.97990  1.0000
  C   C833      1.0  0.44347  0.56050  0.67557  1.0000
  C   C834      1.0  0.45081  0.55545  0.71325  1.0000
  C   C835      1.0  0.46444  0.57087  0.73366  1.0000
  C   C836      1.0  0.47140  0.59126  0.71644  1.0000
  C   C837      1.0  0.45066  0.58102  0.65833  1.0000
  C   C838      1.0  0.57195  0.89485  0.69009  1.0000
  C   C839      1.0  0.50798  0.55700  0.97000  1.0000
  H   H675      1.0  0.45044  0.82293  0.66788  1.0000
  C   C840      1.0  0.34755  0.66158  0.66485  1.0000
  H   H676      1.0  0.42857  0.79952  0.73086  1.0000
  C   C841      1.0  0.34005  0.91269  0.94559  1.0000
  C   C842      1.0  0.33676  0.78156  0.64701  1.0000
  C   C843      1.0  0.46673  0.82647  0.68180  1.0000
  H   H677      1.0  0.61633  0.51247  0.82417  1.0000
  C   C844      1.0  0.34920  0.94726  0.91072  1.0000
  H   H678      1.0  0.44589  0.53964  0.72716  1.0000
  H   H679      1.0  0.46941  0.56709  0.76310  1.0000
  C   C845      1.0  0.58746  0.78805  0.69038  1.0000
  C   C846      1.0  0.41268  0.70317  0.54462  1.0000
  H   H680      1.0  0.51928  0.52107  0.79922  1.0000
  H   H681      1.0  0.50202  0.56452  0.65063  1.0000
  C   C847      1.0  0.39143  0.71065  0.61548  1.0000
  C   C848      1.0  0.40234  0.72889  0.59672  1.0000
  C   C849      1.0  0.41248  0.72511  0.56063  1.0000
  P   P27       1.0  0.40032  0.75730  0.61683  1.0000
  C   C850      1.0  0.41572  0.77764  0.58779  1.0000
  C   C851      1.0  0.37004  0.76399  0.61726  1.0000
  C   C852      1.0  0.36021  0.77650  0.64742  1.0000
  C   C853      1.0  0.43811  0.51215  0.65703  1.0000
  H   H682      1.0  0.33695  0.85494  0.79128  1.0000
  C   C854      1.0  0.43534  0.94693  0.94868  1.0000
  C   C855      1.0  0.35600  0.75656  0.58673  1.0000
  C   C856      1.0  0.40449  0.79626  0.57049  1.0000
  H   H683      1.0  0.37582  0.77559  0.73698  1.0000
  C   C857      1.0  0.48909  0.98527  0.97340  1.0000
  C   C858      1.0  0.45202  0.79166  0.56315  1.0000
  C   C859      1.0  0.43961  0.77557  0.58431  1.0000
  C   C860      1.0  0.41383  0.75937  0.66382  1.0000
  C   C861      1.0  0.41622  0.78089  0.68136  1.0000
  C   C862      1.0  0.42723  0.78295  0.71709  1.0000
  C   C863      1.0  0.43637  0.76365  0.73530  1.0000
  C   C864      1.0  0.43468  0.74228  0.71762  1.0000
  C   C865      1.0  0.42366  0.74016  0.68185  1.0000
  H   H684      1.0  0.51201  0.80604  0.86132  1.0000
  H   H685      1.0  0.34958  0.64616  0.64789  1.0000
  H   H686      1.0  0.38240  0.71345  0.64226  1.0000
  H   H687      1.0  0.41965  0.73908  0.54418  1.0000
  H   H688      1.0  0.37056  0.78280  0.67086  1.0000
  C   C866      1.0  0.34303  0.93635  0.94494  1.0000
  H   H689      1.0  0.50473  0.81459  0.97387  1.0000
  P   P28       1.0  0.56341  0.49859  0.71426  1.0000
  H   H690      1.0  0.36319  0.74730  0.56258  1.0000
  H   H691      1.0  0.38620  0.79869  0.57344  1.0000
  H   H692      1.0  0.38062  0.53437  0.61249  1.0000
  H   H693      1.0  0.56942  0.79254  0.63658  1.0000
  H   H694      1.0  0.47041  0.78995  0.56034  1.0000
  H   H695      1.0  0.44860  0.76151  0.59803  1.0000
  H   H696      1.0  0.40957  0.79614  0.66742  1.0000
  H   H697      1.0  0.44471  0.76526  0.76319  1.0000
  H   H698      1.0  0.44194  0.72738  0.73183  1.0000
  H   H699      1.0  0.42318  0.72360  0.66830  1.0000
  C   C867      1.0  0.54720  0.51199  0.83756  1.0000
  S   S136      1.0  0.62255  0.98716  0.81466  1.0000
  C   C868      1.0  0.35072  0.91052  0.87803  1.0000
  C   C869      1.0  0.38305  0.72107  0.77046  1.0000
  C   C870      1.0  0.40899  0.68233  0.74450  1.0000
  C   C871      1.0  0.42468  0.67724  0.77404  1.0000
  C   C872      1.0  0.44705  0.67060  0.76519  1.0000
  C   C873      1.0  0.45405  0.66923  0.72685  1.0000
  C   C874      1.0  0.40354  0.88806  0.95498  1.0000
  H   H700      1.0  0.37236  0.62041  0.83234  1.0000
  C   C875      1.0  0.37803  0.73894  0.74462  1.0000
  C   C876      1.0  0.37977  0.76171  0.75659  1.0000
  C   C877      1.0  0.38754  0.76685  0.79365  1.0000
  C   C878      1.0  0.39357  0.74924  0.81893  1.0000
  C   C879      1.0  0.39144  0.72644  0.80739  1.0000
  H   H701      1.0  0.41967  0.67826  0.80401  1.0000
  H   H702      1.0  0.45892  0.66647  0.78830  1.0000
  H   H703      1.0  0.34836  0.92161  0.76296  1.0000
  P   P29       1.0  0.42582  0.54020  0.64962  1.0000
  H   H704      1.0  0.37320  0.73545  0.71510  1.0000
  H   H705      1.0  0.40318  0.58699  0.53722  1.0000
  C   C880      1.0  0.41619  0.68111  0.70602  1.0000
  C   C881      1.0  0.58905  0.79467  0.72898  1.0000
  C   C882      1.0  0.35497  0.68423  0.82332  1.0000
  H   H706      1.0  0.47479  0.79101  0.69182  1.0000
  C   C883      1.0  0.35323  0.64811  0.85740  1.0000
  H   H707      1.0  0.44395  0.67346  0.66744  1.0000
  H   H708      1.0  0.44283  0.52709  0.51127  1.0000
  H   H709      1.0  0.56879  0.93086  0.70238  1.0000
  C   C884      1.0  0.39343  0.90637  0.97516  1.0000
  H   H710      1.0  0.43732  0.91671  0.75470  1.0000
  H   H711      1.0  0.44514  0.51762  0.58046  1.0000
  C   C885      1.0  0.46446  0.91038  0.93115  1.0000
  H   H712      1.0  0.38699  0.64339  0.77841  1.0000
  C   C886      1.0  0.43463  0.53808  0.53219  1.0000
  C   C887      1.0  0.55162  0.84833  0.85377  1.0000
  C   C888      1.0  0.37016  0.83142  0.87981  1.0000
  C   C889      1.0  0.56408  0.87286  0.69872  1.0000
  H   H713      1.0  0.44530  0.58564  0.62953  1.0000
  P   P30       1.0  0.53689  0.84137  0.73879  1.0000
  C   C890      1.0  0.39685  0.53998  0.66815  1.0000
  H   H714      1.0  0.48690  0.95757  0.93245  1.0000
  H   H715      1.0  0.34963  0.70190  0.82089  1.0000
  C   C891      1.0  0.52200  0.92469  0.97196  1.0000
  C   C892      1.0  0.36247  0.66587  0.69561  1.0000
  H   H716      1.0  0.51503  0.49785  0.74005  1.0000
  C   C893      1.0  0.38112  0.90191  0.80931  1.0000
  C   C894      1.0  0.37813  0.53650  0.64314  1.0000
  S   S137      1.0  0.37245  0.63385  0.50541  1.0000
  H   H717      1.0  0.56231  0.86414  0.80125  1.0000
  H   H718      1.0  0.51517  0.56772  0.71870  1.0000
  C   C895      1.0  0.49481  0.85373  0.70505  1.0000
  H   H719      1.0  0.39556  0.92234  0.85546  1.0000
  H   H720      1.0  0.33462  0.53786  0.70812  1.0000
  C   C896      1.0  0.54527  0.91082  0.73587  1.0000
  Fe  Fe69      1.0  0.33639  0.64691  0.50717  1.0000
  C   C897      1.0  0.39765  0.91616  0.82638  1.0000
  H   H721      1.0  0.40835  0.89138  0.72443  1.0000
  H   H722      1.0  0.37993  0.82471  0.90396  1.0000
  C   C898      1.0  0.38530  0.89278  0.77260  1.0000
  C   C899      1.0  0.59332  0.50633  0.77654  1.0000
  C   C900      1.0  0.41217  0.57174  0.54670  1.0000
  H   H723      1.0  0.43061  0.93248  0.81955  1.0000
  C   C901      1.0  0.41698  0.81232  0.54945  1.0000
  H   H724      1.0  0.58651  0.54208  0.69971  1.0000
  C   C902      1.0  0.53737  0.88888  0.74462  1.0000
  H   H725      1.0  0.39655  0.71304  0.82729  1.0000
  C   C903      1.0  0.56258  0.91382  0.70873  1.0000
  C   C904      1.0  0.52206  0.82211  0.80819  1.0000
  C   C905      1.0  0.50142  0.81311  0.71326  1.0000
  C   C906      1.0  0.36755  0.63827  0.82990  1.0000
  H   H726      1.0  0.54230  0.82103  0.66248  1.0000
  H   H727      1.0  0.52403  0.88684  0.76596  1.0000
  C   C907      1.0  0.61784  0.53954  0.78227  1.0000
  C   C908      1.0  0.41767  0.92177  0.80636  1.0000
  C   C909      1.0  0.60991  0.51877  0.79676  1.0000
  H   H728      1.0  0.33548  0.90430  0.97237  1.0000
  C   C910      1.0  0.44910  0.93726  0.97748  1.0000
  H   H729      1.0  0.37862  0.86623  0.89253  1.0000
  H   H730      1.0  0.57176  0.85848  0.68414  1.0000
  Fe  Fe70      1.0  0.59379  0.97913  0.85651  1.0000
  H   H731      1.0  0.47140  0.66400  0.72022  1.0000
  C   C911      1.0  0.37045  0.54114  0.72215  1.0000
  C   C912      1.0  0.53609  0.83856  0.79069  1.0000
  H   H732      1.0  0.46969  0.61227  0.66557  1.0000
  H   H733      1.0  0.54177  0.53942  0.74587  1.0000
  C   C913      1.0  0.47387  0.84905  0.68690  1.0000
  C   C914      1.0  0.42497  0.54683  0.59869  1.0000
  H   H734      1.0  0.40252  0.66797  0.55176  1.0000
  C   C915      1.0  0.55648  0.82016  0.72026  1.0000
  H   H735      1.0  0.40655  0.54533  0.72799  1.0000
  C   C916      1.0  0.50889  0.83577  0.71812  1.0000
  H   H736      1.0  0.61541  0.56403  0.73613  1.0000
  C   C917      1.0  0.57058  0.79758  0.66656  1.0000
  H   H737      1.0  0.47477  0.54137  0.96797  1.0000
  H   H738      1.0  0.54217  0.50346  0.63719  1.0000
  C   C918      1.0  0.53622  0.53763  0.71614  1.0000
  C   C919      1.0  0.52110  0.55378  0.70073  1.0000
  C   C920      1.0  0.60935  0.54783  0.74724  1.0000
  H   H739      1.0  0.60551  0.50597  0.66926  1.0000
  H   H740      1.0  0.50158  0.57356  0.96071  1.0000
  H   H741      1.0  0.47313  0.52421  0.65769  1.0000
  C   C921      1.0  0.43279  0.50609  0.97143  1.0000
  H   H742      1.0  0.34092  0.88157  0.91362  1.0000
  H   H743      1.0  0.42392  0.96095  0.95561  1.0000
  H   H744      1.0  0.56296  0.85864  0.87140  1.0000
  H   H745      1.0  0.53775  0.82969  0.90188  1.0000
  C   C922      1.0  0.59288  0.53536  0.72681  1.0000
  H   H746      1.0  0.45492  0.86821  0.98351  1.0000
  C   C923      1.0  0.51270  0.98179  0.91639  1.0000
  C   C924      1.0  0.45433  0.49877  0.91330  1.0000
  H   H747      1.0  0.47566  0.97836  0.99120  1.0000
  H   H748      1.0  0.36030  0.79819  0.85922  1.0000
  H   H749      1.0  0.42028  0.70039  0.51660  1.0000
  H   H750      1.0  0.60219  0.78735  0.74745  1.0000
  H   H751      1.0  0.35725  0.94317  0.85082  1.0000
  C   C925      1.0  0.34199  0.70089  0.70955  1.0000
  H   H752      1.0  0.48915  0.50308  0.98713  1.0000
  C   C926      1.0  0.34367  0.89981  0.91225  1.0000
  C   C927      1.0  0.54059  0.93964  0.96902  1.0000
  C   C928      1.0  0.34696  0.82509  0.82294  1.0000
  C   C929      1.0  0.46357  0.91873  0.96903  1.0000
  H   H753      1.0  0.34712  0.63790  0.88131  1.0000
  H   H754      1.0  0.55861  0.96788  0.99468  1.0000
  C   C930      1.0  0.34682  0.67106  0.85400  1.0000
  S   S138      1.0  0.58486  0.50272  0.88559  1.0000
  H   H755      1.0  0.33920  0.81349  0.80245  1.0000
  H   H756      1.0  0.46072  0.50459  0.88569  1.0000
  C   C931      1.0  0.47798  0.83984  0.97771  1.0000
  H   H757      1.0  0.46441  0.82799  0.97010  1.0000
  C   C932      1.0  0.33253  0.76143  0.58661  1.0000
  C   C933      1.0  0.53135  0.55376  0.97715  1.0000
  C   C934      1.0  0.47263  0.86269  0.98517  1.0000
  H   H758      1.0  0.42231  0.51768  0.98825  1.0000
  C   C935      1.0  0.38870  0.56789  0.98125  1.0000
  C   C936      1.0  0.33015  0.67714  0.65586  1.0000
  C   C937      1.0  0.48998  0.87825  0.99473  1.0000
  H   H759      1.0  0.53559  0.84169  0.99257  1.0000
  H   H760      1.0  0.40559  0.49429  0.65721  1.0000
  C   C938      1.0  0.52434  0.51399  0.99368  1.0000
  S   S139      1.0  0.32939  0.63365  0.56663  1.0000
  C   C939      1.0  0.33206  0.91464  0.77183  1.0000
  C   C940      1.0  0.33029  0.90099  0.80501  1.0000
  H   H761      1.0  0.32939  0.79174  0.66988  1.0000
  H   H762      1.0  0.55783  0.53008  0.99265  1.0000
  C   C941      1.0  0.95025  0.15210  0.06303  1.0000
  S   S140      1.0  0.94223  0.36888  0.20872  1.0000
  Fe  Fe71      1.0  0.94583  0.31000  0.15774  1.0000
  S   S141      1.0  0.91227  0.32552  0.17687  1.0000
  H   H763      1.0  0.77754  0.27015  0.48293  1.0000
  Fe  Fe72      1.0  0.92613  0.35849  0.15201  1.0000
  S   S142      1.0  0.90772  0.38799  0.12113  1.0000
  Fe  Fe73      1.0  0.93124  0.33466  0.23145  1.0000
  S   S143      1.0  0.92286  0.32560  0.29408  1.0000
  H   H764      1.0  0.73844  0.09051  0.26578  1.0000
  S   S144      1.0  0.96411  0.31766  0.21312  1.0000
  Fe  Fe74      1.0  0.95388  0.13613  0.17724  1.0000
  S   S145      1.0  0.91874  0.12263  0.16355  1.0000
  H   H765      1.0  0.83882  0.13371  0.17234  1.0000
  Fe  Fe75      1.0  0.97448  0.08683  0.18400  1.0000
  S   S146      1.0  0.94044  0.07038  0.17120  1.0000
  Fe  Fe76      1.0  0.93665  0.09723  0.12480  1.0000
  S   S147      1.0  0.92984  0.09240  0.06014  1.0000
  Fe  Fe77      1.0  0.92541  0.09706  0.21137  1.0000
  S   S148      1.0  0.89762  0.08808  0.25549  1.0000
  S   S149      1.0  0.97169  0.11241  0.13594  1.0000
  S   S150      1.0  0.95961  0.11171  0.22693  1.0000
  Fe  Fe78      1.0  0.85210  0.11867  0.46946  1.0000
  S   S151      1.0  0.88197  0.12453  0.42772  1.0000
  S   S152      1.0  0.81852  0.13727  0.46243  1.0000
  H   H766      1.0  0.66880  0.25172  0.21578  1.0000
  Fe  Fe79      1.0  0.83933  0.34088  0.46909  1.0000
  S   S153      1.0  0.84171  0.35364  0.40718  1.0000
  S   S154      1.0  0.95852  0.34261  0.12929  1.0000
  C   C942      1.0  0.74830  0.13054  0.46904  1.0000
  S   S155      1.0  0.96292  0.17373  0.18975  1.0000
  H   H767      1.0  0.93757  0.39622  0.49307  1.0000
  C   C943      1.0  0.73235  0.09798  0.29240  1.0000
  H   H768      1.0  0.69973  0.10750  0.26848  1.0000
  C   C944      1.0  0.93299  0.46095  0.05969  1.0000
  Fe  Fe80      1.0  0.80251  0.10505  0.48475  1.0000
  H   H769      1.0  0.85533  0.29787  0.33184  1.0000
  C   C945      1.0  0.74626  0.09744  0.32531  1.0000
  H   H770      1.0  0.71034  0.12298  0.38891  1.0000
  H   H771      1.0  0.74137  0.29593  0.44941  1.0000
  C   C946      1.0  0.90998  0.07454  0.03533  1.0000
  C   C947      1.0  0.96993  0.01530  0.04688  1.0000
  C   C948      1.0  0.84112  0.28132  0.38174  1.0000
  H   H772      1.0  0.70893  0.19845  0.38861  1.0000
  C   C949      1.0  0.88582  0.11392  0.37999  1.0000
  C   C950      1.0  0.86860  0.10226  0.35992  1.0000
  C   C951      1.0  0.87249  0.09458  0.32188  1.0000
  C   C952      1.0  0.89349  0.09867  0.30320  1.0000
  C   C953      1.0  0.91060  0.11054  0.32320  1.0000
  C   C954      1.0  0.90684  0.11783  0.36144  1.0000
  H   H773      1.0  0.85233  0.09906  0.37367  1.0000
  H   H774      1.0  0.85913  0.08538  0.30680  1.0000
  H   H775      1.0  0.92690  0.11368  0.30947  1.0000
  H   H776      1.0  0.92043  0.12628  0.37702  1.0000
  C   C955      1.0  0.90064  0.33496  0.32508  1.0000
  C   C956      1.0  0.90264  0.33061  0.36484  1.0000
  C   C957      1.0  0.88470  0.33608  0.39022  1.0000
  C   C958      1.0  0.86470  0.34641  0.37621  1.0000
  C   C959      1.0  0.86301  0.35150  0.33666  1.0000
  C   C960      1.0  0.88082  0.34566  0.31113  1.0000
  H   H777      1.0  0.91800  0.32272  0.37618  1.0000
  H   H778      1.0  0.88633  0.33232  0.42062  1.0000
  H   H779      1.0  0.84766  0.35964  0.32562  1.0000
  H   H780      1.0  0.87901  0.34906  0.28063  1.0000
  H   H781      1.0  0.87730  0.42785  0.00641  1.0000
  C   C961      1.0  0.72888  0.14460  0.47188  1.0000
  C   C962      1.0  0.92595  0.20374  0.48385  1.0000
  C   C963      1.0  0.97907  0.99659  0.06725  1.0000
  C   C964      1.0  0.96419  0.22066  0.19353  1.0000
  C   C965      1.0  0.96019  0.24326  0.18069  1.0000
  H   H782      1.0  0.97330  0.21778  0.22028  1.0000
  H   H783      1.0  0.96619  0.25761  0.19751  1.0000
  C   C966      1.0  0.85869  0.28661  0.35607  1.0000
  C   C967      1.0  0.89519  0.36919  0.05033  1.0000
  C   C968      1.0  0.89743  0.38893  0.07269  1.0000
  H   H784      1.0  0.97815  0.47255  0.40806  1.0000
  H   H785      1.0  0.89980  0.35278  0.06251  1.0000
  C   C969      1.0  0.96034  0.35627  0.36815  1.0000
  C   C970      1.0  0.84569  0.26752  0.41376  1.0000
  C   C971      1.0  0.70767  0.38293  0.03712  1.0000
  H   H786      1.0  0.89396  0.06074  0.08592  1.0000
  C   C972      1.0  0.72883  0.35276  0.47750  1.0000
  H   H787      1.0  0.76313  0.08966  0.32426  1.0000
  H   H788      1.0  0.76520  0.13806  0.46819  1.0000
  C   C973      1.0  0.88234  0.41150  0.01835  1.0000
  H   H789      1.0  0.98095  0.25300  0.07799  1.0000
  H   H790      1.0  0.98963  0.34712  0.26941  1.0000
  H   H791      1.0  0.99165  0.41023  0.31424  1.0000
  C   C974      1.0  0.88651  0.37060  0.01236  1.0000
  H   H792      1.0  0.94888  0.44260  0.39972  1.0000
  C   C975      1.0  0.94400  0.45520  0.21216  1.0000
  H   H793      1.0  0.92528  0.11738  0.47681  1.0000
  S   S156      1.0  0.68254  0.35935  0.46832  1.0000
  C   C976      1.0  0.72142  0.31257  0.40513  1.0000
  C   C977      1.0  0.93315  0.45236  0.09729  1.0000
  H   H794      1.0  0.92611  0.45775  0.20480  1.0000
  C   C978      1.0  0.66816  0.15751  0.22377  1.0000
  C   C979      1.0  0.76586  0.39531  0.01339  1.0000
  H   H795      1.0  0.95977  0.40172  0.43328  1.0000
  C   C980      1.0  0.68633  0.26680  0.26430  1.0000
  H   H796      1.0  0.94551  0.42563  0.13485  1.0000
  H   H797      1.0  0.89243  0.42543  0.07350  1.0000
  C   C981      1.0  0.95176  0.02770  0.06310  1.0000
  C   C982      1.0  0.94258  0.02127  0.09858  1.0000
  C   C983      1.0  0.96321  0.29607  0.45712  1.0000
  C   C984      1.0  0.66692  0.25995  0.24355  1.0000
  H   H798      1.0  0.92866  0.03114  0.11087  1.0000
  H   H799      1.0  0.69291  0.36991  0.08951  1.0000
  H   H800      1.0  0.67760  0.26393  0.42132  1.0000
  C   C985      1.0  0.95840  0.42170  0.07745  1.0000
  H   H801      1.0  0.67909  0.16665  0.20389  1.0000
  H   H802      1.0  0.93705  0.14550  0.08192  1.0000
  C   C986      1.0  0.96010  0.37405  0.34078  1.0000
  H   H803      1.0  0.90136  0.08264  0.47432  1.0000
  P   P31       1.0  0.94681  0.40132  0.35156  1.0000
  C   C987      1.0  0.68487  0.29491  0.38908  1.0000
  C   C988      1.0  0.92743  0.40959  0.31325  1.0000
  C   C989      1.0  0.92127  0.43263  0.30825  1.0000
  C   C990      1.0  0.90530  0.43888  0.27988  1.0000
  C   C991      1.0  0.89545  0.42220  0.25625  1.0000
  C   C992      1.0  0.90143  0.39927  0.26121  1.0000
  C   C993      1.0  0.91727  0.39297  0.28967  1.0000
  H   H804      1.0  0.97663  0.03312  0.23488  1.0000
  C   C994      1.0  0.93038  0.39824  0.39537  1.0000
  C   C995      1.0  0.90675  0.39374  0.39381  1.0000
  C   C996      1.0  0.89435  0.39063  0.42779  1.0000
  C   C997      1.0  0.91060  0.18691  0.47150  1.0000
  H   H805      1.0  0.94408  0.02028  0.27515  1.0000
  C   C998      1.0  0.94145  0.39899  0.43143  1.0000
  C   C999      1.0  0.70694  0.13499  0.47405  1.0000
  C   C1000     1.0  0.89095  0.41007  0.05643  1.0000
  C   C1001     1.0  0.69365  0.16849  0.36328  1.0000
  C   C1002     1.0  0.69859  0.36580  0.06064  1.0000
  C   C1003     1.0  0.97096  0.15992  0.07848  1.0000
  H   H806      1.0  0.92852  0.44574  0.32651  1.0000
  H   H807      1.0  0.90047  0.45664  0.27630  1.0000
  H   H808      1.0  0.88310  0.42696  0.23420  1.0000
  H   H809      1.0  0.89373  0.38627  0.24303  1.0000
  H   H810      1.0  0.92142  0.37508  0.29339  1.0000
  H   H811      1.0  0.70327  0.26386  0.25261  1.0000
  H   H812      1.0  0.89781  0.39217  0.36651  1.0000
  H   H813      1.0  0.87612  0.38710  0.42639  1.0000
  H   H814      1.0  0.69916  0.28285  0.31562  1.0000
  C   C1004     1.0  0.95797  0.42996  0.03949  1.0000
  H   H815      1.0  0.73090  0.16296  0.47328  1.0000
  H   H816      1.0  0.98431  0.21355  0.05449  1.0000
  C   C1005     1.0  0.70952  0.02536  0.47416  1.0000
  C   C1006     1.0  0.89663  0.19092  0.43943  1.0000
  C   C1007     1.0  0.89798  0.21172  0.41963  1.0000
  C   C1008     1.0  0.91324  0.22879  0.43194  1.0000
  C   C1009     1.0  0.92732  0.22461  0.46414  1.0000
  P   P32       1.0  0.91471  0.25560  0.40591  1.0000
  S   S157      1.0  0.76994  0.08902  0.46255  1.0000
  C   C1010     1.0  0.92840  0.27723  0.43508  1.0000
  C   C1011     1.0  0.91538  0.29265  0.45691  1.0000
  C   C1012     1.0  0.95977  0.01030  0.27448  1.0000
  P   P33       1.0  0.67403  0.12927  0.33144  1.0000
  C   C1013     1.0  0.98829  0.42355  0.33492  1.0000
  C   C1014     1.0  0.95243  0.27896  0.43560  1.0000
  C   C1015     1.0  0.97100  0.33544  0.35984  1.0000
  H   H817      1.0  0.73350  0.32647  0.40168  1.0000
  H   H818      1.0  0.87118  0.24950  0.44627  1.0000
  H   H819      1.0  0.74893  0.10575  0.38557  1.0000
  C   C1016     1.0  0.70255  0.11749  0.32845  1.0000
  C   C1017     1.0  0.93163  0.25266  0.36262  1.0000
  C   C1018     1.0  0.93819  0.23104  0.34907  1.0000
  C   C1019     1.0  0.95105  0.22902  0.31529  1.0000
  C   C1020     1.0  0.95778  0.24858  0.29522  1.0000
  C   C1021     1.0  0.95185  0.27017  0.30905  1.0000
  C   C1022     1.0  0.93899  0.27222  0.34271  1.0000
  C   C1023     1.0  0.68911  0.03429  0.45912  1.0000
  H   H820      1.0  0.97597  0.48629  0.02917  1.0000
  C   C1024     1.0  0.98439  0.16876  0.01428  1.0000
  C   C1025     1.0  0.67682  0.15032  0.25950  1.0000
  H   H821      1.0  0.89571  0.38881  0.48971  1.0000
  H   H822      1.0  0.89685  0.29161  0.45752  1.0000
  C   C1026     1.0  0.98172  0.33222  0.32438  1.0000
  H   H823      1.0  0.68937  0.33026  0.06494  1.0000
  H   H824      1.0  0.76526  0.34822  0.48650  1.0000
  H   H825      1.0  0.96285  0.26711  0.41929  1.0000
  H   H826      1.0  0.95194  0.35808  0.39564  1.0000
  H   H827      1.0  0.83225  0.26370  0.43421  1.0000
  H   H828      1.0  0.92299  0.47602  0.05270  1.0000
  C   C1027     1.0  0.98092  0.45888  0.38755  1.0000
  C   C1028     1.0  0.88573  0.26480  0.39506  1.0000
  H   H829      1.0  0.93338  0.21578  0.36441  1.0000
  H   H830      1.0  0.95565  0.21228  0.30439  1.0000
  H   H831      1.0  0.96750  0.24705  0.26886  1.0000
  H   H832      1.0  0.95680  0.28539  0.29326  1.0000
  H   H833      1.0  0.93458  0.28912  0.35286  1.0000
  C   C1029     1.0  0.98849  0.16754  0.05418  1.0000
  C   C1030     1.0  0.86539  0.13514  0.21544  1.0000
  C   C1031     1.0  0.84746  0.14428  0.19351  1.0000
  C   C1032     1.0  0.84067  0.16694  0.19905  1.0000
  C   C1033     1.0  0.85196  0.18047  0.22633  1.0000
  C   C1034     1.0  0.87039  0.17154  0.24782  1.0000
  C   C1035     1.0  0.87679  0.14863  0.24270  1.0000
  P   P34       1.0  0.88434  0.18942  0.28310  1.0000
  C   C1036     1.0  0.89167  0.21625  0.26021  1.0000
  C   C1037     1.0  0.86433  0.19117  0.32257  1.0000
  C   C1038     1.0  0.86021  0.17152  0.34477  1.0000
  C   C1039     1.0  0.84565  0.17246  0.37653  1.0000
  C   C1040     1.0  0.83457  0.19288  0.38588  1.0000
  C   C1041     1.0  0.83766  0.21224  0.36281  1.0000
  C   C1042     1.0  0.85230  0.21137  0.33098  1.0000
  C   C1043     1.0  0.89531  0.21702  0.22020  1.0000
  C   C1044     1.0  0.90104  0.23757  0.20216  1.0000
  C   C1045     1.0  0.90396  0.25740  0.22388  1.0000
  C   C1046     1.0  0.90097  0.25672  0.26374  1.0000
  C   C1047     1.0  0.89507  0.23619  0.28199  1.0000
  C   C1048     1.0  0.91121  0.17727  0.29949  1.0000
  C   C1049     1.0  0.91619  0.17520  0.33899  1.0000
  C   C1050     1.0  0.93749  0.16699  0.35146  1.0000
  C   C1051     1.0  0.95391  0.16041  0.32460  1.0000
  C   C1052     1.0  0.94916  0.16243  0.28531  1.0000
  C   C1053     1.0  0.92796  0.17096  0.27270  1.0000
  H   H834      1.0  0.87046  0.11750  0.21125  1.0000
  C   C1054     1.0  0.95291  0.43307  0.21409  1.0000
  H   H835      1.0  0.82667  0.17399  0.18219  1.0000
  H   H836      1.0  0.84646  0.19799  0.23048  1.0000
  H   H837      1.0  0.89049  0.14106  0.25956  1.0000
  H   H838      1.0  0.86863  0.15547  0.33796  1.0000
  H   H839      1.0  0.84314  0.15728  0.39398  1.0000
  H   H840      1.0  0.82342  0.19357  0.41078  1.0000
  H   H841      1.0  0.82866  0.22793  0.36956  1.0000
  H   H842      1.0  0.85395  0.22639  0.31307  1.0000
  H   H843      1.0  0.89403  0.20174  0.20275  1.0000
  H   H844      1.0  0.90357  0.23809  0.17127  1.0000
  H   H845      1.0  0.90888  0.27320  0.20979  1.0000
  H   H846      1.0  0.90361  0.27217  0.28030  1.0000
  H   H847      1.0  0.89342  0.23585  0.31299  1.0000
  H   H848      1.0  0.90384  0.17998  0.36041  1.0000
  H   H849      1.0  0.94102  0.16528  0.38200  1.0000
  H   H850      1.0  0.97026  0.15358  0.33410  1.0000
  H   H851      1.0  0.96197  0.15734  0.26461  1.0000
  H   H852      1.0  0.92463  0.17255  0.24208  1.0000
  C   C1055     1.0  0.96820  0.42358  0.35718  1.0000
  C   C1056     1.0  0.72586  0.29537  0.43210  1.0000
  H   H853      1.0  0.79719  0.39058  0.04586  1.0000
  C   C1057     1.0  0.94900  0.24722  0.14556  1.0000
  H   H854      1.0  0.94193  0.41857  0.20817  1.0000
  H   H855      1.0  0.97330  0.15983  0.10943  1.0000
  H   H856      1.0  0.86640  0.03671  0.04915  1.0000
  C   C1058     1.0  0.94514  0.20564  0.13714  1.0000
  C   C1059     1.0  0.70436  0.11127  0.47186  1.0000
  S   S158      1.0  0.94478  0.27534  0.12669  1.0000
  C   C1060     1.0  0.98149  0.34972  0.29702  1.0000
  C   C1061     1.0  0.87868  0.04709  0.03380  1.0000
  C   C1062     1.0  0.95011  0.31149  0.47844  1.0000
  H   H857      1.0  0.67377  0.20984  0.42329  1.0000
  C   C1063     1.0  0.94588  0.43278  0.10610  1.0000
  H   H858      1.0  0.90928  0.17082  0.48688  1.0000
  C   C1064     1.0  0.99209  0.49225  0.04063  1.0000
  C   C1065     1.0  0.95666  0.20171  0.17199  1.0000
  C   C1066     1.0  0.71049  0.10782  0.29397  1.0000
  C   C1067     1.0  0.68963  0.27751  0.41599  1.0000
  C   C1068     1.0  0.71005  0.27777  0.43732  1.0000
  H   H859      1.0  0.82414  0.28843  0.37737  1.0000
  Fe  Fe81      1.0  0.97386  0.35170  0.18696  1.0000
  H   H860      1.0  0.96981  0.38336  0.28260  1.0000
  H   H861      1.0  0.94517  0.45675  0.00195  1.0000
  C   C1069     1.0  0.78922  0.39860  0.02100  1.0000
  C   C1070     1.0  0.97810  0.01757  0.25185  1.0000
  C   C1071     1.0  0.95530  0.35081  0.03007  1.0000
  C   C1072     1.0  0.94161  0.22824  0.12383  1.0000
  C   C1073     1.0  0.76837  0.21282  0.48968  1.0000
  H   H862      1.0  0.89426  0.28354  0.34319  1.0000
  H   H863      1.0  0.92306  0.46056  0.11944  1.0000
  H   H864      1.0  0.88467  0.17783  0.43011  1.0000
  H   H865      1.0  0.88695  0.21456  0.39491  1.0000
  H   H866      1.0  0.79383  0.23313  0.46080  1.0000
  H   H867      1.0  0.93920  0.19133  0.12020  1.0000
  H   H868      1.0  0.94497  0.04270  0.04865  1.0000
  H   H869      1.0  0.68746  0.10380  0.47309  1.0000
  C   C1074     1.0  0.92625  0.30971  0.47843  1.0000
  C   C1075     1.0  0.67359  0.19488  0.40497  1.0000
  C   C1076     1.0  0.86788  0.25940  0.42048  1.0000
  C   C1077     1.0  0.76955  0.25416  0.49118  1.0000
  H   H870      1.0  0.72180  0.07894  0.46525  1.0000
  C   C1078     1.0  0.94665  0.15237  0.02325  1.0000
  C   C1079     1.0  0.73826  0.10657  0.35990  1.0000
  H   H871      1.0  0.96806  0.40648  0.08494  1.0000
  C   C1080     1.0  0.69347  0.18838  0.38557  1.0000
  C   C1081     1.0  0.96448  0.44170  0.38300  1.0000
  C   C1082     1.0  0.88090  0.27841  0.36268  1.0000
  C   C1083     1.0  0.70112  0.31230  0.38355  1.0000
  C   C1084     1.0  0.70676  0.34557  0.48781  1.0000
  C   C1085     1.0  0.71643  0.11640  0.36161  1.0000
  C   C1086     1.0  0.92898  0.39572  0.46534  1.0000
  C   C1087     1.0  0.99473  0.34891  0.00905  1.0000
  H   H872      1.0  0.69791  0.32601  0.36321  1.0000
  H   H873      1.0  0.93301  0.23104  0.09654  1.0000
  C   C1088     1.0  0.94541  0.44983  0.03088  1.0000
  H   H874      1.0  0.99217  0.46715  0.08625  1.0000
  C   C1089     1.0  0.72377  0.09725  0.46754  1.0000
  H   H875      1.0  0.70925  0.16373  0.34855  1.0000
  S   S159      1.0  0.68323  0.15326  0.47889  1.0000
  C   C1090     1.0  0.90542  0.39156  0.46352  1.0000
  C   C1091     1.0  0.74578  0.10683  0.46687  1.0000
  H   H876      1.0  0.69440  0.15424  0.26718  1.0000
  C   C1092     1.0  0.95526  0.37445  0.02421  1.0000
  C   C1093     1.0  0.98136  0.47074  0.22914  1.0000
  H   H877      1.0  0.71349  0.26452  0.45840  1.0000
  C   C1094     1.0  0.89429  0.06071  0.05476  1.0000
  H   H878      1.0  0.93069  0.14586  0.01149  1.0000
  C   C1095     1.0  0.98793  0.05546  0.01154  1.0000
  H   H879      1.0  0.93909  0.23750  0.47448  1.0000
  C   C1096     1.0  0.67400  0.15471  0.36083  1.0000
  S   S160      1.0  0.82381  0.30654  0.48101  1.0000
  C   C1097     1.0  0.97042  0.37039  0.30484  1.0000
  H   H880      1.0  0.75611  0.38467  0.03275  1.0000
  C   C1098     1.0  0.67680  0.05053  0.48001  1.0000
  H   H881      1.0  0.73086  0.36640  0.45671  1.0000
  H   H882      1.0  0.70906  0.40018  0.04820  1.0000
  S   S161      1.0  0.83568  0.08550  0.48725  1.0000
  C   C1099     1.0  0.74828  0.34256  0.49441  1.0000
  C   C1100     1.0  0.70378  0.33823  0.00947  1.0000
  C   C1101     1.0  0.95807  0.47394  0.22005  1.0000
  H   H883      1.0  0.96992  0.47903  0.30509  1.0000
  H   H884      1.0  0.98174  0.29735  0.45730  1.0000
  C   C1102     1.0  0.69659  0.34348  0.04680  1.0000
  H   H885      1.0  0.77558  0.19665  0.48039  1.0000
  C   C1103     1.0  0.77862  0.23336  0.47857  1.0000
  H   H886      1.0  0.97064  0.32166  0.38065  1.0000
  C   C1104     1.0  0.68394  0.27759  0.30004  1.0000
  H   H887      1.0  0.97514  0.31980  0.02819  1.0000
  H   H888      1.0  0.99083  0.11969  0.03950  1.0000
  H   H889      1.0  0.68277  0.02855  0.43137  1.0000
  C   C1105     1.0  0.95170  0.00259  0.11857  1.0000
  C   C1106     1.0  0.99450  0.24203  0.08899  1.0000
  H   H890      1.0  0.94489  0.99795  0.14651  1.0000
  H   H891      1.0  0.71901  0.01266  0.45805  1.0000
  H   H892      1.0  0.98288  0.41243  0.22459  1.0000
  H   H893      1.0  0.98985  0.31606  0.31772  1.0000
  C   C1107     1.0  0.99072  0.10194  0.03105  1.0000
  C   C1108     1.0  0.99020  0.44837  0.23089  1.0000
  P   P35       1.0  0.98294  0.02541  0.00280  1.0000
  C   C1109     1.0  0.97597  0.42965  0.22340  1.0000
  H   H894      1.0  0.82059  0.41445  0.00202  1.0000
  H   H895      1.0  0.95075  0.49097  0.21935  1.0000
  H   H896      1.0  0.94003  0.34241  0.04066  1.0000
  H   H897      1.0  0.93977  0.38405  0.02991  1.0000
  C   C1110     1.0  0.97512  0.38556  0.01144  1.0000
  P   P36       1.0  0.97451  0.41595  0.00269  1.0000
  C   C1111     1.0  0.97509  0.33807  0.02291  1.0000
  C   C1112     1.0  0.99467  0.37255  0.00281  1.0000
  C   C1113     1.0  0.96357  0.16103  0.99889  1.0000
  H   H898      1.0  0.70218  0.32093  0.99871  1.0000
  C   C1114     1.0  0.66289  0.13799  0.28499  1.0000
  C   C1115     1.0  0.71469  0.37785  0.99943  1.0000
  H   H899      1.0  0.95841  0.32474  0.49521  1.0000
  H   H900      1.0  0.91610  0.32149  0.49528  1.0000
  C   C1116     1.0  0.80243  0.41208  0.99640  1.0000
  Fe  Fe82      1.0  0.82097  0.45368  0.87564  1.0000
  S   S162      1.0  0.82397  0.41563  0.87235  1.0000
  S   S163      1.0  0.78642  0.46981  0.89154  1.0000
  Fe  Fe83      1.0  0.87194  0.46090  0.85606  1.0000
  S   S164      1.0  0.87712  0.42270  0.85037  1.0000
  Fe  Fe84      1.0  0.84376  0.42189  0.81780  1.0000
  S   S165      1.0  0.83200  0.39783  0.76936  1.0000
  Fe  Fe85      1.0  0.85712  0.41961  0.90524  1.0000
  S   S166      1.0  0.86841  0.39201  0.94848  1.0000
  S   S167      1.0  0.83952  0.46015  0.81963  1.0000
  S   S168      1.0  0.85311  0.45760  0.91261  1.0000
  S   S169      1.0  0.68583  0.44097  0.83478  1.0000
  H   H901      1.0  0.89465  0.06070  0.94261  1.0000
  S   S170      1.0  0.87629  0.02888  0.85708  1.0000
  C   C1117     1.0  0.93907  0.42476  0.88439  1.0000
  S   S171      1.0  0.82126  0.03683  0.86825  1.0000
  S   S172      1.0  0.81776  0.35886  0.51376  1.0000
  Fe  Fe86      1.0  0.84635  0.03866  0.81899  1.0000
  S   S173      1.0  0.84599  0.06958  0.77812  1.0000
  Fe  Fe87      1.0  0.85091  0.02363  0.90439  1.0000
  S   S174      1.0  0.85781  0.03005  0.96859  1.0000
  H   H902      1.0  0.90216  0.36173  0.90378  1.0000
  H   H903      1.0  0.76724  0.46731  0.78601  1.0000
  H   H904      1.0  0.95176  0.33709  0.73943  1.0000
  H   H905      1.0  0.92424  0.01408  0.87221  1.0000
  H   H906      1.0  0.73989  0.03940  0.64343  1.0000
  C   C1118     1.0  0.84919  0.20343  0.52098  1.0000
  H   H907      1.0  0.84287  0.16754  0.62045  1.0000
  S   S175      1.0  0.80365  0.11529  0.54678  1.0000
  C   C1119     1.0  0.71883  0.37605  0.84287  1.0000
  C   C1120     1.0  0.73154  0.10462  0.56498  1.0000
  C   C1121     1.0  0.68054  0.47326  0.71411  1.0000
  Fe  Fe88      1.0  0.83791  0.09792  0.54882  1.0000
  S   S176      1.0  0.84566  0.06996  0.59373  1.0000
  C   C1122     1.0  0.90467  0.44316  0.76365  1.0000
  Fe  Fe89      1.0  0.84651  0.35111  0.55546  1.0000
  C   C1123     1.0  0.89957  0.09269  0.57088  1.0000
  S   S177      1.0  0.86108  0.37894  0.59469  1.0000
  H   H908      1.0  0.98036  0.17177  0.67627  1.0000
  C   C1124     1.0  0.69014  0.12470  0.58664  1.0000
  H   H909      1.0  0.74758  0.09748  0.55545  1.0000
  H   H910      1.0  0.67834  0.05920  0.70433  1.0000
  H   H911      1.0  0.78086  0.35340  0.68485  1.0000
  S   S178      1.0  0.83241  0.31708  0.57371  1.0000
  C   C1125     1.0  0.71792  0.44747  0.97501  1.0000
  C   C1126     1.0  0.86273  0.22317  0.51697  1.0000
  H   H912      1.0  0.75336  0.26199  0.59577  1.0000
  H   H913      1.0  0.81106  0.47194  0.65857  1.0000
  C   C1127     1.0  0.91972  0.02332  0.77174  1.0000
  C   C1128     1.0  0.99321  0.14639  0.63693  1.0000
  C   C1129     1.0  0.91713  0.08739  0.66142  1.0000
  H   H914      1.0  0.80932  0.03530  0.60445  1.0000
  C   C1130     1.0  0.73695  0.26916  0.60390  1.0000
  H   H915      1.0  0.78019  0.02870  0.65509  1.0000
  H   H916      1.0  0.87895  0.99509  0.54240  1.0000
  H   H917      1.0  0.75745  0.06209  0.52904  1.0000
  H   H918      1.0  0.92537  0.47333  0.75767  1.0000
  H   H919      1.0  0.67871  0.29583  0.63377  1.0000
  H   H920      1.0  0.73602  0.44992  0.97018  1.0000
  S   S179      1.0  0.84050  0.00275  0.79936  1.0000
  H   H921      1.0  0.76981  0.43361  0.83984  1.0000
  C   C1131     1.0  0.68458  0.42323  0.98188  1.0000
  C   C1132     1.0  0.77702  0.35447  0.62322  1.0000
  C   C1133     1.0  0.71834  0.21055  0.59476  1.0000
  C   C1134     1.0  0.84384  0.06927  0.72689  1.0000
  C   C1135     1.0  0.84241  0.09011  0.70669  1.0000
  C   C1136     1.0  0.84256  0.09068  0.66601  1.0000
  C   C1137     1.0  0.84410  0.07036  0.64499  1.0000
  C   C1138     1.0  0.84481  0.04949  0.66520  1.0000
  C   C1139     1.0  0.84443  0.04893  0.70584  1.0000
  H   H922      1.0  0.84160  0.10596  0.72263  1.0000
  H   H923      1.0  0.84157  0.10682  0.65097  1.0000
  H   H924      1.0  0.84562  0.03362  0.64935  1.0000
  H   H925      1.0  0.84472  0.03281  0.72092  1.0000
  H   H926      1.0  0.75564  0.49197  0.54301  1.0000
  C   C1140     1.0  0.79308  0.43868  0.71273  1.0000
  H   H927      1.0  0.70839  0.43608  0.65577  1.0000
  C   C1141     1.0  0.75051  0.25440  0.51548  1.0000
  C   C1142     1.0  0.72399  0.01638  0.88436  1.0000
  C   C1143     1.0  0.66972  0.06901  0.91316  1.0000
  C   C1144     1.0  0.89661  0.33270  0.68819  1.0000
  H   H928      1.0  0.92612  0.07944  0.63773  1.0000
  H   H929      1.0  0.72066  0.02841  0.90728  1.0000
  C   C1145     1.0  0.74467  0.00033  0.70686  1.0000
  C   C1146     1.0  0.74563  0.32517  0.52172  1.0000
  H   H930      1.0  0.74365  0.27068  0.52467  1.0000
  C   C1147     1.0  0.88134  0.00497  0.60203  1.0000
  C   C1148     1.0  0.71284  0.35533  0.98583  1.0000
  H   H931      1.0  0.89137  0.33828  0.62732  1.0000
  H   H932      1.0  0.70176  0.47741  0.66405  1.0000
  H   H933      1.0  0.71145  0.48369  0.97716  1.0000
  C   C1149     1.0  0.94565  0.44252  0.75373  1.0000
  C   C1150     1.0  0.84118  0.39274  0.72130  1.0000
  C   C1151     1.0  0.83271  0.37341  0.70191  1.0000
  C   C1152     1.0  0.83855  0.36900  0.66323  1.0000
  C   C1153     1.0  0.85312  0.38384  0.64349  1.0000
  C   C1154     1.0  0.86191  0.40301  0.66309  1.0000
  C   C1155     1.0  0.85587  0.40755  0.70167  1.0000
  H   H934      1.0  0.82140  0.36181  0.71684  1.0000
  H   H935      1.0  0.83177  0.35412  0.64868  1.0000
  H   H936      1.0  0.87332  0.41453  0.64824  1.0000
  H   H937      1.0  0.86227  0.42268  0.71590  1.0000
  C   C1156     1.0  0.75851  0.46085  0.87676  1.0000
  C   C1157     1.0  0.75515  0.44275  0.85103  1.0000
  C   C1158     1.0  0.73279  0.43682  0.83902  1.0000
  C   C1159     1.0  0.71341  0.44827  0.85343  1.0000
  C   C1160     1.0  0.71671  0.46587  0.88011  1.0000
  C   C1161     1.0  0.73912  0.47222  0.89140  1.0000
  H   H938      1.0  0.88418  0.01004  0.66274  1.0000
  C   C1162     1.0  0.96099  0.41949  0.95613  1.0000
  H   H939      1.0  0.93279  0.01700  0.99461  1.0000
  C   C1163     1.0  0.69135  0.23208  0.53160  1.0000
  C   C1164     1.0  0.68442  0.08998  0.78960  1.0000
  H   H940      1.0  0.84993  0.48436  0.64110  1.0000
  C   C1165     1.0  0.68121  0.04884  0.79256  1.0000
  C   C1166     1.0  0.70385  0.04668  0.78002  1.0000
  C   C1167     1.0  0.71677  0.06620  0.77082  1.0000
  C   C1168     1.0  0.70717  0.08787  0.77757  1.0000
  P   P37       1.0  0.74648  0.06376  0.75624  1.0000
  C   C1169     1.0  0.76332  0.07214  0.79765  1.0000
  C   C1170     1.0  0.75350  0.03472  0.74325  1.0000
  C   C1171     1.0  0.77403  0.02457  0.75590  1.0000
  H   H941      1.0  0.94309  0.47106  0.90619  1.0000
  C   C1172     1.0  0.70420  0.32801  0.51470  1.0000
  C   C1173     1.0  0.95848  0.02150  0.89214  1.0000
  C   C1174     1.0  0.73904  0.02255  0.71820  1.0000
  C   C1175     1.0  0.78320  0.08547  0.79390  1.0000
  C   C1176     1.0  0.79593  0.09155  0.82655  1.0000
  C   C1177     1.0  0.78888  0.08453  0.86311  1.0000
  C   C1178     1.0  0.76923  0.07116  0.86704  1.0000
  C   C1179     1.0  0.75653  0.06494  0.83447  1.0000
  C   C1180     1.0  0.75356  0.08037  0.71378  1.0000
  C   C1181     1.0  0.73771  0.09542  0.69658  1.0000
  C   C1182     1.0  0.74343  0.10748  0.66316  1.0000
  C   C1183     1.0  0.76487  0.10442  0.64625  1.0000
  C   C1184     1.0  0.78055  0.08920  0.66260  1.0000
  C   C1185     1.0  0.77501  0.07724  0.69619  1.0000
  C   C1186     1.0  0.93526  0.01665  0.89708  1.0000
  H   H942      1.0  0.92595  0.17519  0.59374  1.0000
  C   C1187     1.0  0.90449  0.41931  0.76581  1.0000
  H   H943      1.0  0.71126  0.02973  0.77879  1.0000
  H   H944      1.0  0.71736  0.10315  0.77385  1.0000
  H   H945      1.0  0.78560  0.03348  0.77522  1.0000
  H   H946      1.0  0.75408  0.36543  0.84822  1.0000
  S   S180      1.0  0.76936  0.31234  0.54456  1.0000
  H   H947      1.0  0.69834  0.38208  0.53577  1.0000
  H   H948      1.0  0.72326  0.03015  0.70777  1.0000
  H   H949      1.0  0.78927  0.09096  0.76605  1.0000
  H   H950      1.0  0.81166  0.10118  0.82336  1.0000
  H   H951      1.0  0.79908  0.08882  0.88827  1.0000
  H   H952      1.0  0.76413  0.06511  0.89526  1.0000
  H   H953      1.0  0.74157  0.05423  0.83802  1.0000
  H   H954      1.0  0.72069  0.09759  0.70792  1.0000
  H   H955      1.0  0.73104  0.11889  0.64990  1.0000
  H   H956      1.0  0.76927  0.11359  0.62015  1.0000
  H   H957      1.0  0.79689  0.08636  0.64875  1.0000
  H   H958      1.0  0.78748  0.06544  0.70827  1.0000
  H   H959      1.0  0.73847  0.47420  0.73460  1.0000
  C   C1188     1.0  0.69752  0.38452  0.56660  1.0000
  C   C1189     1.0  0.71429  0.37500  0.59061  1.0000
  C   C1190     1.0  0.71324  0.37826  0.63051  1.0000
  C   C1191     1.0  0.69515  0.39092  0.64658  1.0000
  H   H960      1.0  0.67928  0.26063  0.59563  1.0000
  P   P38       1.0  0.69306  0.39582  0.69788  1.0000
  H   H961      1.0  0.71711  0.37046  0.81330  1.0000
  C   C1192     1.0  0.71917  0.38751  0.72245  1.0000
  C   C1193     1.0  0.72498  0.36425  0.72530  1.0000
  C   C1194     1.0  0.74518  0.35750  0.74408  1.0000
  C   C1195     1.0  0.75956  0.37391  0.76058  1.0000
  C   C1196     1.0  0.75355  0.39699  0.75884  1.0000
  C   C1197     1.0  0.73347  0.40383  0.73980  1.0000
  S   S181      1.0  0.85725  0.12978  0.53148  1.0000
  C   C1198     1.0  0.86573  0.36153  0.82718  1.0000
  H   H962      1.0  0.87276  0.46202  0.59413  1.0000
  C   C1199     1.0  0.75164  0.47610  0.55763  1.0000
  H   H963      1.0  0.68740  0.26871  0.52382  1.0000
  C   C1200     1.0  0.74696  0.01059  0.87544  1.0000
  Fe  Fe90      1.0  0.80508  0.32376  0.52905  1.0000
  C   C1201     1.0  0.92264  0.12116  0.53854  1.0000
  C   C1202     1.0  0.68207  0.21061  0.52261  1.0000
  C   C1203     1.0  0.66788  0.37758  0.75840  1.0000
  C   C1204     1.0  0.77963  0.36426  0.65965  1.0000
  H   H964      1.0  0.92383  0.39314  0.68809  1.0000
  H   H965      1.0  0.72793  0.36488  0.57810  1.0000
  H   H966      1.0  0.72663  0.37099  0.64831  1.0000
  H   H967      1.0  0.90761  0.42040  0.91598  1.0000
  H   H968      1.0  0.71391  0.35136  0.71277  1.0000
  H   H969      1.0  0.74969  0.33956  0.74582  1.0000
  H   H970      1.0  0.77534  0.36882  0.77494  1.0000
  H   H971      1.0  0.76446  0.40956  0.77256  1.0000
  H   H972      1.0  0.72906  0.42180  0.73931  1.0000
  C   C1205     1.0  0.79225  0.42239  0.96428  1.0000
  H   H973      1.0  0.66586  0.40345  0.56385  1.0000
  C   C1206     1.0  0.67055  0.45770  0.73944  1.0000
  H   H974      1.0  0.68183  0.21055  0.60607  1.0000
  C   C1207     1.0  0.67073  0.44255  0.98603  1.0000
  H   H975      1.0  0.78392  0.39506  0.69194  1.0000
  C   C1208     1.0  0.97398  0.42217  0.92246  1.0000
  H   H976      1.0  0.67792  0.09073  0.59594  1.0000
  H   H977      1.0  0.96154  0.45161  0.74893  1.0000
  C   C1209     1.0  0.98750  0.12869  0.61166  1.0000
  H   H978      1.0  0.68726  0.32224  0.52263  1.0000
  H   H979      1.0  0.68426  0.38903  0.84606  1.0000
  H   H980      1.0  0.74486  0.45932  0.66901  1.0000
  C   C1210     1.0  0.70835  0.42548  0.97644  1.0000
  H   H981      1.0  0.67141  0.03371  0.79984  1.0000
  C   C1211     1.0  0.97275  0.02431  0.92427  1.0000
  P   P39       1.0  0.71597  0.05976  0.57674  1.0000
  C   C1212     1.0  0.69783  0.04773  0.61378  1.0000
  C   C1213     1.0  0.70581  0.04971  0.53053  1.0000
  H   H982      1.0  0.88856  0.31604  0.68800  1.0000
  H   H983      1.0  0.87485  0.36840  0.76869  1.0000
  C   C1214     1.0  0.90803  0.17340  0.60096  1.0000
  C   C1215     1.0  0.76764  0.46624  0.58284  1.0000
  H   H984      1.0  0.88463  0.35514  0.99557  1.0000
  C   C1216     1.0  0.69525  0.05898  0.64921  1.0000
  C   C1217     1.0  0.68072  0.05014  0.67744  1.0000
  C   C1218     1.0  0.70534  0.00641  0.86458  1.0000
  H   H985      1.0  0.88444  0.06703  0.53435  1.0000
  C   C1219     1.0  0.68597  0.02720  0.60737  1.0000
  C   C1220     1.0  0.74552  0.05156  0.58538  1.0000
  C   C1221     1.0  0.76215  0.05490  0.55678  1.0000
  C   C1222     1.0  0.78506  0.04918  0.56377  1.0000
  C   C1223     1.0  0.79152  0.03962  0.59910  1.0000
  C   C1224     1.0  0.77509  0.03591  0.62755  1.0000
  C   C1225     1.0  0.75222  0.04201  0.62084  1.0000
  C   C1226     1.0  0.91442  0.36399  0.72328  1.0000
  H   H986      1.0  0.71820  0.35094  0.95696  1.0000
  C   C1227     1.0  0.89833  0.34513  0.65394  1.0000
  H   H987      1.0  0.70399  0.07488  0.65456  1.0000
  H   H988      1.0  0.73333  0.02533  0.52125  1.0000
  C   C1228     1.0  0.69544  0.26848  0.60350  1.0000
  H   H989      1.0  0.66592  0.42277  0.75478  1.0000
  H   H990      1.0  0.90929  0.37650  0.62759  1.0000
  C   C1229     1.0  0.69505  0.28838  0.62574  1.0000
  H   H991      1.0  0.77601  0.33607  0.62004  1.0000
  H   H992      1.0  0.74299  0.13897  0.55391  1.0000
  C   C1230     1.0  0.82455  0.42938  0.59549  1.0000
  C   C1231     1.0  0.87991  0.39170  0.99615  1.0000
  C   C1232     1.0  0.72334  0.39150  0.91913  1.0000
  P   P40       1.0  0.78287  0.43287  0.63488  1.0000
  C   C1233     1.0  0.71339  0.09063  0.57717  1.0000
  C   C1234     1.0  0.88129  0.36636  0.79780  1.0000
  H   H993      1.0  0.93972  0.16172  0.66561  1.0000
  H   H994      1.0  0.68797  0.40245  0.91230  1.0000
  C   C1235     1.0  0.73652  0.28900  0.62637  1.0000
  H   H995      1.0  0.67922  0.38717  0.77709  1.0000
  H   H996      1.0  0.91652  0.05637  0.69514  1.0000
  C   C1236     1.0  0.66863  0.02998  0.67057  1.0000
  C   C1237     1.0  0.68509  0.05819  0.51557  1.0000
  C   C1238     1.0  0.72535  0.44503  0.56995  1.0000
  H   H997      1.0  0.76159  0.42656  0.93074  1.0000
  H   H998      1.0  0.75249  0.29708  0.63462  1.0000
  H   H999      1.0  0.88491  0.03575  0.77048  1.0000
  C   C1239     1.0  0.75175  0.99457  0.84663  1.0000
  H   H1000     1.0  0.73044  0.42320  0.81845  1.0000
  Fe  Fe91      1.0  0.85215  0.30244  0.52412  1.0000
  H   H1001     1.0  0.88888  0.45273  0.76721  1.0000
  C   C1240     1.0  0.77608  0.36842  0.59063  1.0000
  C   C1241     1.0  0.72904  0.12838  0.56405  1.0000
  P   P41       1.0  0.91742  0.12741  0.61746  1.0000
  H   H1002     1.0  0.85653  0.42680  0.56519  1.0000
  C   C1242     1.0  0.82727  0.20505  0.53698  1.0000
  C   C1243     1.0  0.91199  0.07432  0.69406  1.0000
  H   H1003     1.0  0.71522  0.31441  0.65350  1.0000
  C   C1244     1.0  0.72357  0.31786  0.53153  1.0000
  H   H1004     1.0  0.78385  0.47477  0.58758  1.0000
  H   H1005     1.0  0.90030  0.20873  0.58783  1.0000
  C   C1245     1.0  0.73963  0.37330  0.86250  1.0000
  C   C1246     1.0  0.75731  0.45561  0.69127  1.0000
  C   C1247     1.0  0.71638  0.25919  0.59117  1.0000
  H   H1006     1.0  0.69154  0.09066  0.87942  1.0000
  H   H1007     1.0  0.96538  0.02299  0.86335  1.0000
  H   H1008     1.0  0.76094  0.01808  0.89160  1.0000
  H   H1009     1.0  0.81822  0.41371  0.58294  1.0000
  H   H1010     1.0  0.82506  0.26286  0.55024  1.0000
  C   C1248     1.0  0.86118  0.16925  0.61605  1.0000
  H   H1011     1.0  0.86823  0.13383  0.62711  1.0000
  H   H1012     1.0  0.77726  0.40255  0.56853  1.0000
  C   C1249     1.0  0.83187  0.24637  0.54203  1.0000
  C   C1250     1.0  0.71558  0.29876  0.63692  1.0000
  C   C1251     1.0  0.87557  0.15023  0.61978  1.0000
  C   C1252     1.0  0.69255  0.10095  0.58756  1.0000
  C   C1253     1.0  0.70397  0.46679  0.97904  1.0000
  C   C1254     1.0  0.77784  0.39210  0.59431  1.0000
  H   H1013     1.0  0.95994  0.39142  0.82237  1.0000
  H   H1014     1.0  0.85603  0.18688  0.51313  1.0000
  C   C1255     1.0  0.70824  0.13839  0.57433  1.0000
  H   H1015     1.0  0.89120  0.08619  0.59633  1.0000
  C   C1256     1.0  0.78064  0.40212  0.63080  1.0000
  C   C1257     1.0  0.89919  0.15229  0.61320  1.0000
  S   S182      1.0  0.81075  0.18055  0.54678  1.0000
  C   C1258     1.0  0.75372  0.46430  0.72832  1.0000
  C   C1259     1.0  0.81864  0.22658  0.54723  1.0000
  H   H1016     1.0  0.77414  0.36083  0.56237  1.0000
  H   H1017     1.0  0.80169  0.22796  0.55953  1.0000
  C   C1260     1.0  0.78144  0.38799  0.66351  1.0000
  H   H1018     1.0  0.79787  0.05233  0.54184  1.0000
  C   C1261     1.0  0.76269  0.44550  0.60139  1.0000
  C   C1262     1.0  0.72035  0.17493  0.64902  1.0000
  C   C1263     1.0  0.91043  0.11044  0.65931  1.0000
  H   H1019     1.0  0.67695  0.10672  0.79389  1.0000
  H   H1020     1.0  0.96047  0.10888  0.58637  1.0000
  H   H1021     1.0  0.97301  0.42807  0.86105  1.0000
  C   C1264     1.0  0.74044  0.18282  0.63175  1.0000
  C   C1265     1.0  0.90077  0.08437  0.72522  1.0000
  H   H1022     1.0  0.89639  0.07429  0.75032  1.0000
  C   C1266     1.0  0.89481  0.10748  0.72392  1.0000
  C   C1267     1.0  0.97918  0.07225  0.98643  1.0000
  H   H1023     1.0  0.80178  0.44393  0.77237  1.0000
  C   C1268     1.0  0.70030  0.38640  0.86128  1.0000
  C   C1269     1.0  0.68772  0.42609  0.70446  1.0000
  C   C1270     1.0  0.89966  0.12052  0.69119  1.0000
  P   P42       1.0  0.71685  0.23403  0.56101  1.0000
  C   C1271     1.0  0.89560  0.08180  0.53563  1.0000
  C   C1272     1.0  0.94704  0.13536  0.62370  1.0000
  H   H1024     1.0  0.87776  0.02288  0.59624  1.0000
  C   C1273     1.0  0.96451  0.12302  0.60532  1.0000
  H   H1025     1.0  0.72134  0.30439  0.55238  1.0000
  H   H1026     1.0  0.90329  0.33217  0.74906  1.0000
  H   H1027     1.0  0.88592  0.11508  0.74811  1.0000
  H   H1028     1.0  0.84763  0.35990  0.82052  1.0000
  C   C1274     1.0  0.95292  0.15266  0.64991  1.0000
  H   H1029     1.0  0.67530  0.07072  0.53139  1.0000
  C   C1275     1.0  0.74185  0.38082  0.90059  1.0000
  H   H1030     1.0  0.89494  0.13841  0.69094  1.0000
  C   C1276     1.0  0.67045  0.37862  0.71823  1.0000
  C   C1277     1.0  0.85562  0.45658  0.60165  1.0000
  S   S183      1.0  0.90573  0.48005  0.84373  1.0000
  H   H1031     1.0  0.68767  0.01811  0.58039  1.0000
  H   H1032     1.0  0.96143  0.40948  0.75165  1.0000
  H   H1033     1.0  0.75802  0.37824  0.91544  1.0000
  C   C1278     1.0  0.92617  0.01527  0.93414  1.0000
  H   H1034     1.0  0.90795  0.01226  0.93788  1.0000
  C   C1279     1.0  0.67817  0.40002  0.62216  1.0000
  C   C1280     1.0  0.69928  0.18496  0.63957  1.0000
  H   H1035     1.0  0.69061  0.19499  0.53150  1.0000
  C   C1281     1.0  0.87332  0.35964  0.86523  1.0000
  H   H1036     1.0  0.80855  0.42898  0.70713  1.0000
  C   C1282     1.0  0.67937  0.39684  0.58238  1.0000
  H   H1037     1.0  0.72109  0.16109  0.66974  1.0000
  H   H1038     1.0  0.92588  0.03706  0.78989  1.0000
  S   S184      1.0  0.87170  0.26907  0.52387  1.0000
  C   C1283     1.0  0.67442  0.08822  0.89063  1.0000
  H   H1039     1.0  0.70203  0.47498  0.89127  1.0000
  C   C1284     1.0  0.89359  0.19243  0.59741  1.0000
  C   C1285     1.0  0.97593  0.15830  0.65619  1.0000
  H   H1040     1.0  0.70595  0.15669  0.57174  1.0000
  C   C1286     1.0  0.85415  0.24466  0.52764  1.0000
  C   C1287     1.0  0.90482  0.34198  0.72272  1.0000
  C   C1288     1.0  0.69828  0.20280  0.61274  1.0000
  C   C1289     1.0  0.81151  0.44183  0.62214  1.0000
  H   H1041     1.0  0.75536  0.20693  0.59271  1.0000
  C   C1290     1.0  0.98823  0.36818  0.81697  1.0000
  C   C1291     1.0  0.77703  0.44269  0.68322  1.0000
  C   C1292     1.0  0.76903  0.41887  0.95627  1.0000
  H   H1042     1.0  0.92986  0.36981  0.85256  1.0000
  C   C1293     1.0  0.96638  0.37642  0.80770  1.0000
  H   H1043     1.0  0.66953  0.47933  0.98673  1.0000
  H   H1044     1.0  0.86115  0.35653  0.88816  1.0000
  H   H1045     1.0  0.93660  0.20073  0.50899  1.0000
  H   H1046     1.0  0.73698  0.41935  0.60961  1.0000
  H   H1047     1.0  0.93259  0.13675  0.53900  1.0000
  C   C1294     1.0  0.90847  0.36674  0.65411  1.0000
  C   C1295     1.0  0.94552  0.41863  0.75580  1.0000
  C   C1296     1.0  0.68036  0.25192  0.51800  1.0000
  C   C1297     1.0  0.84278  0.46910  0.62815  1.0000
  C   C1298     1.0  0.92526  0.45479  0.75815  1.0000
  C   C1299     1.0  0.96395  0.02200  0.96171  1.0000
  C   C1300     1.0  0.70253  0.39418  0.89913  1.0000
  H   H1048     1.0  0.70901  0.43675  0.56484  1.0000
  H   H1049     1.0  0.88831  0.41066  0.77003  1.0000
  C   C1301     1.0  0.94040  0.01797  0.96637  1.0000
  C   C1302     1.0  0.78944  0.44738  0.74967  1.0000
  H   H1050     1.0  0.92234  0.08465  0.97942  1.0000
  S   S185      1.0  0.67665  0.01397  0.87848  1.0000
  H   H1051     1.0  0.97030  0.06761  0.96018  1.0000
  C   C1303     1.0  0.96301  0.42519  0.88680  1.0000
  C   C1304     1.0  0.82077  0.46186  0.63820  1.0000
  H   H1052     1.0  0.75682  0.17515  0.63913  1.0000
  C   C1305     1.0  0.67136  0.01845  0.63564  1.0000
  Fe  Fe92      1.0  0.82256  0.14614  0.52493  1.0000
  C   C1306     1.0  0.84645  0.43682  0.58520  1.0000
  C   C1307     1.0  0.69772  0.44190  0.67914  1.0000
  C   C1308     1.0  0.91216  0.36731  0.84468  1.0000
  C   C1309     1.0  0.92337  0.49064  0.94645  1.0000
  H   H1053     1.0  0.85902  0.20511  0.60248  1.0000
  C   C1310     1.0  0.74087  0.23383  0.52839  1.0000
  C   C1311     1.0  0.76986  0.46032  0.75743  1.0000
  C   C1312     1.0  0.92614  0.42105  0.91758  1.0000
  C   C1313     1.0  0.74130  0.43515  0.59515  1.0000
  H   H1054     1.0  0.93049  0.42753  0.85693  1.0000
  H   H1055     1.0  0.74147  0.48617  0.91145  1.0000
  C   C1314     1.0  0.91338  0.11227  0.57268  1.0000
  P   P43       1.0  0.72575  0.40025  0.96892  1.0000
  C   C1315     1.0  0.89450  0.06058  0.97377  1.0000
  C   C1316     1.0  0.87025  0.19041  0.60550  1.0000
  C   C1317     1.0  0.93701  0.41831  0.95321  1.0000
  C   C1318     1.0  0.91016  0.07417  0.99475  1.0000
  C   C1319     1.0  0.89650  0.36257  0.87399  1.0000
  C   C1320     1.0  0.96169  0.34597  0.76113  1.0000
  C   C1321     1.0  0.92499  0.40689  0.76315  1.0000
  C   C1322     1.0  0.87849  0.04708  0.99321  1.0000
  C   C1323     1.0  0.73951  0.20074  0.60505  1.0000
  H   H1056     1.0  0.68367  0.17887  0.65291  1.0000
  C   C1324     1.0  0.73054  0.46547  0.55108  1.0000
  C   C1325     1.0  0.90470  0.36917  0.80620  1.0000
  C   C1326     1.0  0.89665  0.02258  0.76093  1.0000
  H   H1057     1.0  0.66375  0.40933  0.63393  1.0000
  H   H1058     1.0  0.74167  0.19695  0.52240  1.0000
  H   H1059     1.0  0.68313  0.05667  0.91942  1.0000
  C   C1327     1.0  0.95290  0.36538  0.77972  1.0000
  C   C1328     1.0  0.67397  0.43423  0.73459  1.0000
  P   P44       1.0  0.92460  0.37613  0.76804  1.0000
  S   S186      1.0  0.86907  0.33585  0.50935  1.0000
  C   C1329     1.0  0.98358  0.33778  0.77041  1.0000
  C   C1330     1.0  0.91649  0.37618  0.68860  1.0000
  H   H1060     1.0  0.80239  0.43307  0.94540  1.0000
  C   C1331     1.0  0.71774  0.03282  0.50993  1.0000
  C   C1332     1.0  0.90511  0.09058  0.50187  1.0000
  C   C1333     1.0  0.91863  0.11024  0.50333  1.0000
  H   H1061     1.0  0.90715  0.48350  0.93690  1.0000
  H   H1062     1.0  0.87052  0.00388  0.73104  1.0000
  H   H1063     1.0  0.92661  0.41528  0.97849  1.0000
  H   H1064     1.0  0.67401  0.13239  0.59483  1.0000
  Fe  Fe93      1.0  0.81601  0.00049  0.84976  1.0000
  H   H1065     1.0  0.97287  0.10818  0.97768  1.0000
  C   C1334     1.0  0.75556  0.40542  0.98081  1.0000
  C   C1335     1.0  0.77976  0.00247  0.74403  1.0000
  C   C1336     1.0  0.67142  0.07046  0.79695  1.0000
  H   H1066     1.0  0.71822  0.47302  0.53131  1.0000
  H   H1067     1.0  0.67788  0.49143  0.71821  1.0000
  C   C1337     1.0  0.69404  0.46536  0.68379  1.0000
  H   H1068     1.0  0.79532  0.99452  0.75480  1.0000
  C   C1338     1.0  0.88847  0.00445  0.73869  1.0000
  C   C1339     1.0  0.68038  0.46435  0.98441  1.0000
  H   H1069     1.0  0.99026  0.32279  0.75594  1.0000
  C   C1340     1.0  0.88503  0.99755  0.63989  1.0000
  C   C1341     1.0  0.74935  0.21305  0.51405  1.0000
  C   C1342     1.0  0.93464  0.00598  0.75997  1.0000
  C   C1343     1.0  0.94371  0.48353  0.92917  1.0000
  H   H1070     1.0  0.87993  0.22180  0.50587  1.0000
  H   H1071     1.0  0.96053  0.16164  0.96810  1.0000
  C   C1344     1.0  0.96460  0.49328  0.94009  1.0000
  H   H1072     1.0  0.95240  0.00622  0.76908  1.0000
  H   H1073     1.0  0.99072  0.02812  0.91997  1.0000
  H   H1074     1.0  0.67655  0.40654  0.98226  1.0000
  H   H1075     1.0  0.98008  0.48765  0.92593  1.0000
  H   H1076     1.0  0.99251  0.42195  0.92364  1.0000
  C   C1345     1.0  0.98060  0.09539  0.99623  1.0000
  H   H1077     1.0  0.92519  0.90154  0.01169  1.0000
  H   H1078     1.0  0.99376  0.98739  0.05658  1.0000
  C   C1346     1.0  0.98976  0.51297  0.16779  1.0000
  C   C1347     1.0  0.99371  0.52790  0.13696  1.0000
  H   H1079     1.0  0.94991  0.49884  0.35787  1.0000
  H   H1080     1.0  0.99528  0.54400  0.26436  1.0000
  H   H1081     1.0  0.95270  0.54097  0.36441  1.0000
  H   H1082     1.0  0.88685  0.98878  0.00836  1.0000
  C   C1348     1.0  0.97416  0.54493  0.31453  1.0000
  H   H1083     1.0  0.97658  0.50019  0.16469  1.0000
  H   H1084     1.0  0.94478  0.53073  0.00745  1.0000
  H   H1085     1.0  0.98361  0.52655  0.11080  1.0000
  H   H1086     1.0  0.95011  0.95539  0.03769  1.0000
  C   C1349     1.0  0.91877  0.97329  0.02668  1.0000
  C   C1350     1.0  0.93653  0.95825  0.01700  1.0000
  C   C1351     1.0  0.98836  0.90081  0.01392  1.0000
  C   C1352     1.0  0.96136  0.53233  0.34100  1.0000
  H   H1087     1.0  0.97234  0.61904  0.00308  1.0000
  H   H1088     1.0  0.91911  0.98222  0.05402  1.0000
  C   C1353     1.0  0.99468  0.56622  0.02082  1.0000
  H   H1089     1.0  0.97745  0.97615  0.11892  1.0000
  H   H1090     1.0  0.98775  0.95879  0.00967  1.0000
  H   H1091     1.0  0.97547  0.56332  0.31750  1.0000
  C   C1354     1.0  0.98537  0.53386  0.28428  1.0000
  C   C1355     1.0  0.97569  0.60094  0.99966  1.0000
  C   C1356     1.0  0.98987  0.58946  0.02586  1.0000
  H   H1092     1.0  0.98281  0.96132  0.31072  1.0000
  C   C1357     1.0  0.96995  0.99026  0.10291  1.0000
  C   C1358     1.0  0.97109  0.49746  0.30722  1.0000
  C   C1359     1.0  0.96162  0.99007  0.29579  1.0000
  C   C1360     1.0  0.98384  0.51003  0.28028  1.0000
  C   C1361     1.0  0.99291  0.94181  0.01810  1.0000
  C   C1362     1.0  0.95981  0.50860  0.33731  1.0000
  C   C1363     1.0  0.98192  0.97727  0.29496  1.0000
  C   C1364     1.0  0.98084  0.92289  0.00393  1.0000
  H   H1093     1.0  0.94722  0.98424  0.31274  1.0000
  H   H1094     1.0  0.90655  0.86415  0.00177  1.0000
  C   C1365     1.0  0.90051  0.97689  0.00113  1.0000
  H   H1095     1.0  0.98011  0.88579  0.00218  1.0000
  S   S187      1.0  0.94474  0.87197  0.81956  1.0000
  S   S188      1.0  0.95028  0.57994  0.86571  1.0000
  C   C1366     1.0  0.97829  0.68453  0.75944  1.0000
  S   S189      1.0  0.90309  0.97354  0.82998  1.0000
  C   C1367     1.0  0.91761  0.50804  0.85027  1.0000
  C   C1368     1.0  0.93976  0.51258  0.83609  1.0000
  C   C1369     1.0  0.95000  0.53434  0.84045  1.0000
  C   C1370     1.0  0.93836  0.55194  0.85947  1.0000
  C   C1371     1.0  0.91629  0.54733  0.87394  1.0000
  C   C1372     1.0  0.90597  0.52561  0.86936  1.0000
  C   C1373     1.0  0.84495  0.95545  0.69002  1.0000
  H   H1096     1.0  0.96680  0.53759  0.82869  1.0000
  H   H1097     1.0  0.90703  0.56073  0.88864  1.0000
  H   H1098     1.0  0.88900  0.52251  0.88057  1.0000
  C   C1374     1.0  0.93379  0.90040  0.82469  1.0000
  C   C1375     1.0  0.94717  0.91971  0.81724  1.0000
  C   C1376     1.0  0.93731  0.94177  0.81852  1.0000
  C   C1377     1.0  0.91415  0.94503  0.82836  1.0000
  C   C1378     1.0  0.90079  0.92576  0.83622  1.0000
  C   C1379     1.0  0.91051  0.90362  0.83403  1.0000
  H   H1099     1.0  0.96498  0.91761  0.80943  1.0000
  H   H1100     1.0  0.94767  0.95644  0.81144  1.0000
  H   H1101     1.0  0.88293  0.92786  0.84370  1.0000
  H   H1102     1.0  0.89990  0.88885  0.83961  1.0000
  H   H1103     1.0  0.69614  0.98289  0.81958  1.0000
  H   H1104     1.0  0.94901  0.49922  0.82129  1.0000
  C   C1380     1.0  0.99338  0.77603  0.67458  1.0000
  H   H1105     1.0  0.94311  0.85555  0.89576  1.0000
  C   C1381     1.0  0.96555  0.70460  0.75334  1.0000
  C   C1382     1.0  0.94387  0.69724  0.82932  1.0000
  H   H1106     1.0  0.80338  0.94370  0.75589  1.0000
  P   P45       1.0  0.94085  0.71092  0.78284  1.0000
  C   C1383     1.0  0.91538  0.69965  0.75995  1.0000
  C   C1384     1.0  0.93764  0.74150  0.78878  1.0000
  C   C1385     1.0  0.91582  0.75170  0.78983  1.0000
  C   C1386     1.0  0.91360  0.77535  0.79475  1.0000
  C   C1387     1.0  0.93310  0.78898  0.79882  1.0000
  C   C1388     1.0  0.95482  0.77895  0.79801  1.0000
  C   C1389     1.0  0.95711  0.75534  0.79303  1.0000
  C   C1390     1.0  0.91473  0.69570  0.72005  1.0000
  C   C1391     1.0  0.89500  0.68675  0.70272  1.0000
  C   C1392     1.0  0.87579  0.68171  0.72504  1.0000
  C   C1393     1.0  0.87625  0.68568  0.76473  1.0000
  C   C1394     1.0  0.89594  0.69463  0.78214  1.0000
  H   H1107     1.0  0.94016  0.64441  0.87084  1.0000
  C   C1395     1.0  0.98904  0.71292  0.69732  1.0000
  C   C1396     1.0  0.73312  0.98488  0.82639  1.0000
  H   H1108     1.0  0.99422  0.98614  0.95323  1.0000
  Fe  Fe94      1.0  0.86883  0.99226  0.84081  1.0000
  C   C1397     1.0  0.97383  0.93712  0.92573  1.0000
  H   H1109     1.0  0.83694  0.94536  0.79970  1.0000
  C   C1398     1.0  0.93918  0.86570  0.92096  1.0000
  P   P46       1.0  0.99200  0.52442  0.98070  1.0000
  H   H1110     1.0  0.95591  0.72748  0.85931  1.0000
  H   H1111     1.0  0.96116  0.70794  0.92150  1.0000
  H   H1112     1.0  0.90046  0.74155  0.78699  1.0000
  H   H1113     1.0  0.89676  0.78315  0.79559  1.0000
  H   H1114     1.0  0.93145  0.80731  0.80280  1.0000
  H   H1115     1.0  0.96991  0.78952  0.80153  1.0000
  H   H1116     1.0  0.97407  0.74787  0.79279  1.0000
  H   H1117     1.0  0.92943  0.69933  0.70221  1.0000
  H   H1118     1.0  0.93420  0.66367  0.80840  1.0000
  C   C1399     1.0  0.88955  0.95868  0.61714  1.0000
  H   H1119     1.0  0.86139  0.68169  0.78208  1.0000
  H   H1120     1.0  0.89602  0.69760  0.81297  1.0000
  C   C1400     1.0  0.92404  0.90397  0.72653  1.0000
  C   C1401     1.0  0.82316  0.95072  0.70475  1.0000
  H   H1121     1.0  0.95539  0.59802  0.94781  1.0000
  Fe  Fe95      1.0  0.98224  0.85966  0.82039  1.0000
  H   H1122     1.0  0.96163  0.73445  0.71683  1.0000
  C   C1402     1.0  0.94955  0.88703  0.92599  1.0000
  C   C1403     1.0  0.99404  0.92594  0.91448  1.0000
  C   C1404     1.0  0.83918  0.94795  0.76898  1.0000
  H   H1123     1.0  0.89216  0.94061  0.62257  1.0000
  H   H1124     1.0  0.89468  0.68358  0.67196  1.0000
  C   C1405     1.0  0.86091  0.95288  0.75438  1.0000
  H   H1125     1.0  0.96125  0.89304  0.90412  1.0000
  H   H1126     1.0  0.97462  0.67324  0.78325  1.0000
  C   C1406     1.0  0.95447  0.69856  0.89703  1.0000
  C   C1407     1.0  0.93627  0.94690  0.98134  1.0000
  H   H1127     1.0  0.95119  0.96575  0.91283  1.0000
  H   H1128     1.0  0.91557  0.84103  0.94384  1.0000
  C   C1408     1.0  0.92367  0.85748  0.94814  1.0000
  C   C1409     1.0  0.97118  0.56603  0.96316  1.0000
  C   C1410     1.0  0.95025  0.67515  0.90043  1.0000
  H   H1129     1.0  0.93825  0.97445  0.72944  1.0000
  C   C1411     1.0  0.91184  0.94027  0.69896  1.0000
  C   C1412     1.0  0.93173  0.94046  0.67625  1.0000
  C   C1413     1.0  0.96650  0.95649  0.90501  1.0000
  H   H1130     1.0  0.95635  0.89073  0.70683  1.0000
  C   C1414     1.0  0.92912  0.89172  0.98612  1.0000
  C   C1415     1.0  0.90814  0.92184  0.72416  1.0000
  H   H1131     1.0  0.99304  0.77485  0.73670  1.0000
  C   C1416     1.0  0.82027  0.94705  0.74424  1.0000
  H   H1132     1.0  0.73647  0.97243  0.80411  1.0000
  C   C1417     1.0  0.95157  0.70956  0.86154  1.0000
  H   H1133     1.0  0.95362  0.66649  0.92749  1.0000
  H   H1134     1.0  0.96314  0.92296  0.66179  1.0000
  H   H1135     1.0  0.86057  0.67465  0.71160  1.0000
  P   P47       1.0  0.89212  0.96420  0.69687  1.0000
  H   H1136     1.0  0.84669  0.95840  0.65941  1.0000
  C   C1418     1.0  0.91750  0.95016  0.95632  1.0000
  C   C1419     1.0  0.94767  0.92261  0.67893  1.0000
  H   H1137     1.0  0.97573  0.78164  0.67211  1.0000
  H   H1138     1.0  0.91663  0.94121  0.92896  1.0000
  H   H1139     1.0  0.93516  0.95463  0.65704  1.0000
  H   H1140     1.0  0.89329  0.92118  0.74254  1.0000
  C   C1420     1.0  0.91860  0.87051  0.98070  1.0000
  C   C1421     1.0  0.94473  0.51742  0.98579  1.0000
  H   H1141     1.0  0.98407  0.53266  0.89866  1.0000
  Fe  Fe96      1.0  0.98577  0.59616  0.85442  1.0000
  C   C1422     1.0  0.94461  0.90018  0.95875  1.0000
  S   S190      1.0  0.78041  0.98516  0.83616  1.0000
  C   C1423     1.0  0.92649  0.98789  0.73742  1.0000
  H   H1142     1.0  0.80848  0.95001  0.68558  1.0000
  H   H1143     1.0  0.92125  0.88993  0.74640  1.0000
  H   H1144     1.0  0.76920  0.97288  0.71185  1.0000
  C   C1424     1.0  0.93951  0.67371  0.83307  1.0000
  C   C1425     1.0  0.89983  0.96522  0.96607  1.0000
  C   C1426     1.0  0.97903  0.96421  0.87331  1.0000
  H   H1145     1.0  0.88622  0.95400  0.55576  1.0000
  H   H1146     1.0  0.87527  0.95398  0.77405  1.0000
  H   H1147     1.0  0.97296  0.97877  0.85693  1.0000
  C   C1427     1.0  0.86404  0.95662  0.71483  1.0000
  C   C1428     1.0  0.94277  0.66271  0.86846  1.0000
  C   C1429     1.0  0.96617  0.58915  0.96856  1.0000
  C   C1430     1.0  0.97123  0.71891  0.72226  1.0000
  C   C1431     1.0  0.94386  0.90441  0.70419  1.0000
  C   C1432     1.0  0.88601  0.96617  0.57926  1.0000
  C   C1433     1.0  0.92389  0.50747  0.97496  1.0000
  H   H1148     1.0  0.88562  0.96799  0.94628  1.0000
  C   C1434     1.0  0.88941  0.97435  0.64776  1.0000
  H   H1149     1.0  0.96379  0.55740  0.93851  1.0000
  C   C1435     1.0  0.90327  0.98705  0.72651  1.0000
  P   P48       1.0  0.95871  0.92707  0.96785  1.0000
  C   C1436     1.0  0.96522  0.51069  0.96791  1.0000
  H   H1150     1.0  0.99325  0.72389  0.67321  1.0000
  C   C1437     1.0  0.98559  0.55431  0.98908  1.0000
  C   C1438     1.0  0.88191  0.98930  0.57171  1.0000
  S   S191      1.0  0.99036  0.62854  0.81958  1.0000
  C   C1439     1.0  0.71014  0.99080  0.83511  1.0000
  S   S192      1.0  0.84398  0.98673  0.88932  1.0000
  C   C1440     1.0  0.76501  0.99026  0.71990  1.0000
  H   H1151     1.0  0.73314  0.99084  0.68830  1.0000
  H   H1152     1.0  0.90802  0.51324  0.98782  1.0000
