data_image0
_chemical_formula_structural       FeS2FeS2Fe2S3FeSC3FeS2HCFeCSHCSC2SHCHC2H4SHC8H4C6HCH2C6H4C8PC15HC2H14CH2CH3CH3C2H2C4H2C3H2SC2H3CHC3HCH2SHC4H2FeH2C2H5C2H2C3HCHC3HPHC5H5C4H2C3PC2H3CH5FeHC2SCHC2HCHCHC3HCHC2H2C3SCSFeSH4C10H4FeSHFeS2Fe2S3CSFeHSCHC6H4C6H4CH2CFeH2CHCHC2PH2C2FeHCH2SHCH3CH3C2H3CHCH2C2HC2SC2HCHC3HPHC6HC2H2C7PC18H12CH8C2PC8HCHCH2C5HCSC2PC2HC2H2CSCH6C3HC6HCH4CFeCFeH2SH2SC6SCH2SHC4H2C2SCFeS2FeS2FeSFeS3C2HC6H4C6H3C6H3C6HCH3CH6C4H2SCHCH3CH2C2H3CHC5HCHC3HCH10CH2C7HPHCHC3HC5H3C3HCPHCHC2HC3HCPC3H2FeHC6HCH2C2H3CSC4H3CHC2HCHC8H2PCHC4HCH4CPFeHCH2C2HC3PSH2C2H3SH2SC2SFeS2FeS2FeSFeS3CSHC6H4C6H4C6H5C2HSH3C3HCHC2HC3SHC3H3C5H4CHC3H4CPC4HCHCHFePC2H4C3H2CHC2PCH3CHCH5CHC2H3C2H2CHCHC3H5PHC3HC2H2CH4C2H3CHC6HC3H3C3SC3HC2HCHFeCHCFeC6H2CHFeS2FeSFeSFeS3FeSCS2C8H4C6H4SCH2SCH2CHCH2C6H3C5HC2H2CHC2HCH3FeH2CFeCH3CH2C2PHCHC2PHCH2CH7C2H3C2H2C2H2C2H2C2HC3H3C2H2CHC3H2C3H2CH2C2HC2HSHCHC6PC19H20C7HCH2C4PH2CHCHC4H2CH2CHC2HCHC2FeS2FeSFeSFeS3CSC2HFeS2FeCFeS3FeHSHC12H2C6H4C5H3C8H5C3PC3HCHC2SH3C2HSCHC2H2SCH4C3H5PHC3HCH2C3H2C2H2CH2CH2C3HC2HCHC2HC2HPH3C3H2C5H4CH2C6HC7HCH2CHCPHC2HC6HCHSCHCH3CH2CHC4H2CH4CH4C5HCH2FeH2C2SC2H2CHSH5CHC2H3CFeS2FeS2FeSFeS3HCSFeS2C6H4C6H4C6H4SHC3H2CH2C2HCHCH4C3HC2HC2PCH2C2HSH3CH3CHFeH2CH3C2HCHC2HC2HCH2C3PC9HCHC9H2CH4CHC2H4CHCH2CH2PC2HC3H2CHCHCH2CPCH3C4SHC4HCH2C2HC6PCSC2PC2H2C2H3CH2CHCHC3HC4HCH4CFe2S2FeSFeSFeS3CSCH3C7H4C6H4SC2HSCHSHCHCHC6H4CHCH2C2H2CH3C2HC4H2CH2FeH2C2HCH2C5H3PHC11HC7H4CHCHCHCHCH5C2HC3HC4H7PH5C2HCH4CHPHC10HCHCHCH3CHCH2CSCH2FeC2HC3H3C2SCHC3HCH2C2FeH2CFeS2CSFeSFeHSCHSFeS2FeHFeS3FeS2FeCSC3H2C6HCH2C6H4C6H3C7H5CH3CH6SC2HSHCHC4H3CHC2HSHFeHCPC2H3C3HCHCH2C3HFeHC2HC2HC3H2C4H5SCH2C6H3CH2C3H2C2H2CHC5HC3HC2H3PHC2HCHC2FeCSH2C2H3C2HSC5HC2FeS2FeS2FeSFeS2HCSCFeSHCHFeCHCHSFePC2H3CHC2H2CSC6H4C6H4C6H4C6H3C4HCH2C4H5C2SH2CHCHC2PSH2CHSHC2HC3H2C3HCH4C2FeHC4HCHCHC2H2C5H2CHC5HCHCHC2HPHC3HC2H2PCH2SHC2HCHSC2H3C2H2C2H3SH4CHSCHC3HCHCHCH2C3HFeC3H2CH2CHC4H2CSFeS2FeHSC2H3C6H4CSFeS2FeSHFeSFeS2H3CHC6H3C7H3CHC3HC2H6CSH3CHCH2SHC3H2CHCHCHC2HC2SPC2H2C4HC10FeC2H8C3H3C3H2C5SCSC2HCHC2H3PH3CHC4H2C4HFeSHCPC3H5C5HCH3C2PC2H3CH2CHCHC6HCH3C2H4C3HSHC3H2FeS2FeS2FeSFeS3FeSHFeS2C6H4C6H5C5H2C3HC2HC3H5C3H2C2HC2H2C2H4C5HC5HCH2PC5HC10H2CH2CH6CH4C2HC3HC6PC14HCH8PCH8CH2CHC2H2CH3SCHC2HC6H2C2H2C2HCH4C3HCHCH2
_chemical_formula_sum              "Fe96 S192 C1440 H1152 P48"
_cell_length_a       43.7498
_cell_length_b       43.5221
_cell_length_c       47.9951
_cell_angle_alpha    89.9088
_cell_angle_beta     89.9415
_cell_angle_gamma    90.1539

_space_group_name_H-M_alt    "P 1"
_space_group_IT_number       1

loop_
  _space_group_symop_operation_xyz
  'x, y, z'

loop_
  _atom_site_type_symbol
  _atom_site_label
  _atom_site_symmetry_multiplicity
  _atom_site_fract_x
  _atom_site_fract_y
  _atom_site_fract_z
  _atom_site_occupancy
  Fe  Fe1       1.0  0.28382  0.26463  0.10643  1.0000
  S   S1        1.0  0.26943  0.21981  0.08761  1.0000
  S   S2        1.0  0.25758  0.28960  0.14106  1.0000
  Fe  Fe2       1.0  0.33784  0.27137  0.06514  1.0000
  S   S3        1.0  0.32642  0.22655  0.04353  1.0000
  S   S4        1.0  0.38064  0.29592  0.04878  1.0000
  Fe  Fe3       1.0  0.27728  0.24242  0.04569  1.0000
  Fe  Fe4       1.0  0.31975  0.20788  0.08702  1.0000
  S   S5        1.0  0.33571  0.16339  0.10823  1.0000
  S   S6        1.0  0.28936  0.28818  0.06470  1.0000
  S   S7        1.0  0.33358  0.25171  0.10842  1.0000
  Fe  Fe5       1.0  0.44794  0.46861  0.03479  1.0000
  S   S8        1.0  0.41638  0.43794  0.06102  1.0000
  C   C1        1.0  0.15661  0.03338  0.20380  1.0000
  C   C2        1.0  0.47189  0.19754  0.09929  1.0000
  C   C3        1.0  0.44080  0.23637  0.07634  1.0000
  Fe  Fe6       1.0  0.46102  0.03178  0.11338  1.0000
  S   S9        1.0  0.45727  0.03401  0.15995  1.0000
  S   S10       1.0  0.44527  0.07023  0.08432  1.0000
  H   H1        1.0  0.38124  0.05075  0.05395  1.0000
  C   C4        1.0  0.33626  0.01969  0.10494  1.0000
  Fe  Fe7       1.0  0.17706  0.24783  0.29337  1.0000
  C   C5        1.0  0.46901  0.22202  0.08029  1.0000
  S   S11       1.0  0.20597  0.23317  0.25543  1.0000
  H   H2        1.0  0.15792  0.17189  0.26100  1.0000
  C   C6        1.0  0.28609  0.99440  0.17481  1.0000
  S   S12       1.0  0.12717  0.26098  0.29306  1.0000
  C   C7        1.0  0.24047  0.09914  0.09286  1.0000
  C   C8        1.0  0.07260  0.02868  0.20078  1.0000
  S   S13       1.0  0.08114  0.18911  0.30103  1.0000
  H   H3        1.0  0.37962  0.08122  0.22084  1.0000
  C   C9        1.0  0.33911  0.08630  0.19575  1.0000
  H   H4        1.0  0.35166  0.45328  0.04080  1.0000
  C   C10       1.0  0.07063  0.35536  0.32187  1.0000
  C   C11       1.0  0.04851  0.05029  0.15977  1.0000
  H   H5        1.0  0.47112  0.16041  0.05456  1.0000
  H   H6        1.0  0.21075  0.45386  0.02940  1.0000
  H   H7        1.0  0.03232  0.00996  0.18133  1.0000
  H   H8        1.0  0.29468  0.01149  0.18916  1.0000
  S   S14       1.0  0.23725  0.24281  0.01458  1.0000
  H   H9        1.0  0.48139  0.12294  0.12740  1.0000
  C   C12       1.0  0.04937  0.02808  0.18078  1.0000
  C   C13       1.0  0.38208  0.00330  0.06664  1.0000
  C   C14       1.0  0.24205  0.27354  0.17227  1.0000
  C   C15       1.0  0.23002  0.29314  0.19285  1.0000
  C   C16       1.0  0.21825  0.28130  0.21816  1.0000
  C   C17       1.0  0.21858  0.24962  0.22328  1.0000
  C   C18       1.0  0.23038  0.23004  0.20256  1.0000
  C   C19       1.0  0.24175  0.24188  0.17716  1.0000
  H   H10       1.0  0.22997  0.31769  0.18929  1.0000
  H   H11       1.0  0.20936  0.29671  0.23384  1.0000
  H   H12       1.0  0.23063  0.20550  0.20611  1.0000
  H   H13       1.0  0.25035  0.22661  0.16131  1.0000
  C   C20       1.0  0.40630  0.39858  0.05656  1.0000
  C   C21       1.0  0.42206  0.37928  0.03823  1.0000
  C   C22       1.0  0.41388  0.34797  0.03610  1.0000
  C   C23       1.0  0.38948  0.33572  0.05178  1.0000
  C   C24       1.0  0.37318  0.35522  0.06949  1.0000
  C   C25       1.0  0.38174  0.38638  0.07202  1.0000
  H   H14       1.0  0.44078  0.38841  0.02603  1.0000
  C   C26       1.0  0.34832  0.45508  0.01845  1.0000
  H   H15       1.0  0.35430  0.34620  0.08160  1.0000
  H   H16       1.0  0.36931  0.40113  0.08616  1.0000
  C   C27       1.0  0.36709  0.13864  0.10138  1.0000
  C   C28       1.0  0.38463  0.14083  0.07708  1.0000
  C   C29       1.0  0.40865  0.11989  0.07231  1.0000
  C   C30       1.0  0.41553  0.09671  0.09178  1.0000
  C   C31       1.0  0.39827  0.09483  0.11626  1.0000
  C   C32       1.0  0.37419  0.11564  0.12095  1.0000
  H   H17       1.0  0.37944  0.15838  0.06182  1.0000
  H   H18       1.0  0.42169  0.12144  0.05322  1.0000
  H   H19       1.0  0.40316  0.07705  0.13138  1.0000
  H   H20       1.0  0.36093  0.11385  0.13989  1.0000
  C   C33       1.0  0.02305  0.12324  0.20562  1.0000
  C   C34       1.0  0.32173  0.07419  0.17390  1.0000
  C   C35       1.0  0.26533  0.13907  0.19885  1.0000
  C   C36       1.0  0.25824  0.14445  0.17089  1.0000
  C   C37       1.0  0.27451  0.16658  0.15583  1.0000
  C   C38       1.0  0.29766  0.18361  0.16870  1.0000
  C   C39       1.0  0.30454  0.17877  0.19688  1.0000
  C   C40       1.0  0.28866  0.15590  0.21173  1.0000
  P   P1        1.0  0.33582  0.19904  0.21308  1.0000
  C   C41       1.0  0.36798  0.17308  0.21129  1.0000
  C   C42       1.0  0.34371  0.23445  0.19468  1.0000
  C   C43       1.0  0.37269  0.24073  0.18324  1.0000
  C   C44       1.0  0.37827  0.26870  0.16971  1.0000
  C   C45       1.0  0.35521  0.29078  0.16793  1.0000
  C   C46       1.0  0.32660  0.28493  0.17973  1.0000
  C   C47       1.0  0.32084  0.25691  0.19303  1.0000
  C   C48       1.0  0.37908  0.16388  0.18511  1.0000
  C   C49       1.0  0.40459  0.14469  0.18318  1.0000
  C   C50       1.0  0.41878  0.13392  0.20733  1.0000
  C   C51       1.0  0.40710  0.14188  0.23345  1.0000
  C   C52       1.0  0.38159  0.16112  0.23547  1.0000
  C   C53       1.0  0.32564  0.21148  0.24782  1.0000
  C   C54       1.0  0.34839  0.22215  0.26607  1.0000
  C   C55       1.0  0.34057  0.23287  0.29262  1.0000
  H   H21       1.0  0.03062  0.04949  0.14417  1.0000
  C   C56       1.0  0.28707  0.22451  0.28239  1.0000
  C   C57       1.0  0.29482  0.21370  0.25591  1.0000
  H   H22       1.0  0.16102  0.28188  0.03307  1.0000
  H   H23       1.0  0.31008  0.20051  0.15651  1.0000
  H   H24       1.0  0.29416  0.15127  0.23332  1.0000
  H   H25       1.0  0.39113  0.22438  0.18478  1.0000
  H   H26       1.0  0.40040  0.27326  0.16042  1.0000
  H   H27       1.0  0.35934  0.31229  0.15711  1.0000
  H   H28       1.0  0.30862  0.30197  0.17823  1.0000
  H   H29       1.0  0.29851  0.25286  0.20211  1.0000
  H   H30       1.0  0.36816  0.17185  0.16613  1.0000
  H   H31       1.0  0.41331  0.13806  0.16294  1.0000
  H   H32       1.0  0.43855  0.11903  0.20574  1.0000
  H   H33       1.0  0.41780  0.13303  0.25217  1.0000
  H   H34       1.0  0.37258  0.16635  0.25589  1.0000
  H   H35       1.0  0.37212  0.22254  0.25965  1.0000
  C   C58       1.0  0.17796  0.05116  0.18895  1.0000
  H   H36       1.0  0.26318  0.22616  0.28838  1.0000
  H   H37       1.0  0.27649  0.20788  0.24173  1.0000
  C   C59       1.0  0.17942  0.29833  0.03555  1.0000
  H   H38       1.0  0.39765  0.19417  0.12122  1.0000
  H   H39       1.0  0.07580  0.33845  0.30609  1.0000
  H   H40       1.0  0.27685  0.13247  0.09550  1.0000
  C   C60       1.0  0.13670  0.08967  0.23534  1.0000
  H   H41       1.0  0.18480  0.28932  0.07948  1.0000
  H   H42       1.0  0.36767  0.01371  0.15700  1.0000
  H   H43       1.0  0.11151  0.09166  0.17751  1.0000
  C   C61       1.0  0.04063  0.27100  0.25227  1.0000
  C   C62       1.0  0.02598  0.24381  0.26028  1.0000
  H   H44       1.0  0.20908  0.06099  0.09225  1.0000
  H   H45       1.0  0.43854  0.25529  0.06171  1.0000
  C   C63       1.0  0.37654  0.04608  0.18953  1.0000
  C   C64       1.0  0.33206  0.04824  0.15930  1.0000
  C   C65       1.0  0.28214  0.05790  0.11717  1.0000
  C   C66       1.0  0.09462  0.05220  0.20042  1.0000
  H   H46       1.0  0.00702  0.31357  0.28690  1.0000
  H   H47       1.0  0.03331  0.10485  0.19383  1.0000
  C   C67       1.0  0.04152  0.10534  0.29071  1.0000
  C   C68       1.0  0.26984  0.10902  0.09988  1.0000
  C   C69       1.0  0.11919  0.02985  0.25531  1.0000
  H   H48       1.0  0.17730  0.07599  0.18980  1.0000
  H   H49       1.0  0.21650  0.05068  0.16098  1.0000
  S   S15       1.0  0.16879  0.20505  0.31881  1.0000
  C   C70       1.0  0.08473  0.01448  0.29249  1.0000
  C   C71       1.0  0.44594  0.18753  0.11404  1.0000
  H   H50       1.0  0.06336  0.27611  0.26009  1.0000
  H   H51       1.0  0.34136  0.06534  0.08718  1.0000
  H   H52       1.0  0.40027  0.99728  0.05235  1.0000
  C   C72       1.0  0.21515  0.44183  0.01004  1.0000
  H   H53       1.0  0.35821  0.24083  0.30670  1.0000
  C   C73       1.0  0.30992  0.23383  0.30085  1.0000
  C   C74       1.0  0.21764  0.32238  0.06467  1.0000
  C   C75       1.0  0.03800  0.15147  0.20828  1.0000
  H   H54       1.0  0.02927  0.09386  0.27416  1.0000
  C   C76       1.0  0.02624  0.29126  0.23392  1.0000
  H   H55       1.0  0.09065  0.10760  0.23195  1.0000
  H   H56       1.0  0.42657  0.33314  0.02224  1.0000
  S   S16       1.0  0.02311  0.05736  0.32501  1.0000
  H   H57       1.0  0.03371  0.37599  0.29855  1.0000
  C   C77       1.0  0.29048  0.08861  0.11212  1.0000
  C   C78       1.0  0.23178  0.06872  0.09796  1.0000
  C   C79       1.0  0.20001  0.03689  0.17230  1.0000
  C   C80       1.0  0.21940  0.40997  0.01023  1.0000
  H   H58       1.0  0.05260  0.14493  0.26582  1.0000
  H   H59       1.0  0.07253  0.04579  0.25983  1.0000
  Fe  Fe8       1.0  0.11951  0.21867  0.31949  1.0000
  H   H60       1.0  0.30372  0.24230  0.32131  1.0000
  H   H61       1.0  0.21814  0.39791  0.02990  1.0000
  C   C81       1.0  0.28988  0.99791  0.14587  1.0000
  C   C82       1.0  0.21557  0.33450  0.01514  1.0000
  H   H62       1.0  0.07348  0.01039  0.21608  1.0000
  H   H63       1.0  0.31306  0.09690  0.11734  1.0000
  H   H64       1.0  0.24530  0.02466  0.11320  1.0000
  H   H65       1.0  0.30032  0.08507  0.16858  1.0000
  H   H66       1.0  0.06007  0.15502  0.19851  1.0000
  C   C83       1.0  0.11425  0.11261  0.23705  1.0000
  C   C84       1.0  0.06982  0.15044  0.30737  1.0000
  H   H67       1.0  0.22462  0.11501  0.08316  1.0000
  H   H68       1.0  0.39337  0.23732  0.08766  1.0000
  C   C85       1.0  0.36641  0.07216  0.20365  1.0000
  C   C86       1.0  0.12202  0.14220  0.24604  1.0000
  C   C87       1.0  0.09051  0.03151  0.26832  1.0000
  H   H69       1.0  0.06237  0.01510  0.30207  1.0000
  C   C88       1.0  0.22914  0.33816  0.04149  1.0000
  H   H70       1.0  0.10471  0.15988  0.24760  1.0000
  C   C89       1.0  0.37127  0.03343  0.06747  1.0000
  C   C90       1.0  0.35951  0.03419  0.16742  1.0000
  C   C91       1.0  0.02479  0.17497  0.22405  1.0000
  H   H71       1.0  0.30738  0.48217  0.02170  1.0000
  P   P2        1.0  0.12678  0.05139  0.22389  1.0000
  H   H72       1.0  0.19734  0.13124  0.25981  1.0000
  C   C92       1.0  0.15204  0.14895  0.25385  1.0000
  C   C93       1.0  0.04683  0.37676  0.31762  1.0000
  C   C94       1.0  0.04293  0.09199  0.31716  1.0000
  C   C95       1.0  0.05474  0.13441  0.28599  1.0000
  C   C96       1.0  0.19289  0.30237  0.06167  1.0000
  H   H73       1.0  0.03777  0.22808  0.27410  1.0000
  H   H74       1.0  0.03780  0.31221  0.22755  1.0000
  H   H75       1.0  0.33142  0.10661  0.20665  1.0000
  H   H76       1.0  0.07061  0.09007  0.14208  1.0000
  H   H77       1.0  0.24919  0.35253  0.04406  1.0000
  C   C97       1.0  0.19069  0.31425  0.01234  1.0000
  C   C98       1.0  0.09394  0.07413  0.17891  1.0000
  C   C99       1.0  0.00130  0.31108  0.30871  1.0000
  C   C100      1.0  0.41776  0.20206  0.11007  1.0000
  H   H78       1.0  0.25269  0.12198  0.21059  1.0000
  H   H79       1.0  0.38886  0.42936  0.00858  1.0000
  C   C101      1.0  0.07097  0.07316  0.15867  1.0000
  C   C102      1.0  0.25254  0.04813  0.10991  1.0000
  C   C103      1.0  0.41522  0.22634  0.09115  1.0000
  P   P3        1.0  0.30957  0.03119  0.13181  1.0000
  C   C104      1.0  0.16662  0.09635  0.24411  1.0000
  C   C105      1.0  0.34851  0.04163  0.08651  1.0000
  H   H80       1.0  0.03724  0.19629  0.22623  1.0000
  H   H81       1.0  0.22865  0.32471  0.08483  1.0000
  H   H82       1.0  0.44714  0.16835  0.12829  1.0000
  C   C106      1.0  0.17428  0.12599  0.25307  1.0000
  H   H83       1.0  0.24015  0.13157  0.16081  1.0000
  H   H84       1.0  0.39749  0.03475  0.19581  1.0000
  H   H85       1.0  0.18394  0.07863  0.24424  1.0000
  H   H86       1.0  0.26925  0.17077  0.13411  1.0000
  H   H87       1.0  0.16506  0.01139  0.25861  1.0000
  Fe  Fe9       1.0  0.99676  0.02916  0.29283  1.0000
  H   H88       1.0  0.46658  0.24491  0.00130  1.0000
  C   C107      1.0  0.36938  0.44160  0.00037  1.0000
  C   C108      1.0  0.32341  0.47125  0.00766  1.0000
  S   S17       1.0  0.99995  0.03543  0.24654  1.0000
  C   C109      1.0  0.98750  0.21618  0.31450  1.0000
  H   H89       1.0  0.47333  0.11551  0.02360  1.0000
  C   C110      1.0  0.14245  0.01232  0.26772  1.0000
  C   C111      1.0  0.99649  0.17029  0.23738  1.0000
  H   H90       1.0  0.32187  0.28546  0.99511  1.0000
  C   C112      1.0  0.99688  0.23647  0.24981  1.0000
  H   H91       1.0  0.35911  0.32817  0.99910  1.0000
  C   C113      1.0  0.99472  0.11861  0.21829  1.0000
  H   H92       1.0  0.38377  0.36574  0.32470  1.0000
  C   C114      1.0  0.99710  0.28439  0.22369  1.0000
  C   C115      1.0  0.15691  0.00126  0.20091  1.0000
  C   C116      1.0  0.20046  0.00488  0.16994  1.0000
  H   H93       1.0  0.04184  0.28501  0.31841  1.0000
  C   C117      1.0  0.33512  0.33314  0.99581  1.0000
  H   H94       1.0  0.34129  0.38203  0.99806  1.0000
  C   C118      1.0  0.10771  0.99654  0.30436  1.0000
  C   C119      1.0  0.13665  0.99564  0.29209  1.0000
  H   H95       1.0  0.21717  0.99385  0.15671  1.0000
  H   H96       1.0  0.98754  0.14250  0.29048  1.0000
  C   C120      1.0  0.98839  0.16163  0.30476  1.0000
  C   C121      1.0  0.31417  0.30906  0.99336  1.0000
  C   C122      1.0  0.32504  0.36354  0.99496  1.0000
  S   S18       1.0  0.25116  0.27428  0.50783  1.0000
  C   C123      1.0  0.36012  0.47316  0.43481  1.0000
  S   S19       1.0  0.12471  0.24427  0.36016  1.0000
  Fe  Fe10      1.0  0.17525  0.23424  0.35725  1.0000
  S   S20       1.0  0.20647  0.21604  0.39214  1.0000
  H   H97       1.0  0.26401  0.03139  0.64580  1.0000
  H   H98       1.0  0.36714  0.13427  0.63807  1.0000
  H   H99       1.0  0.99407  0.22874  0.35753  1.0000
  H   H100      1.0  0.30545  0.40771  0.43184  1.0000
  C   C124      1.0  0.06231  0.44689  0.46986  1.0000
  C   C125      1.0  0.05726  0.40003  0.36224  1.0000
  C   C126      1.0  0.08131  0.37896  0.36633  1.0000
  C   C127      1.0  0.32073  0.46881  0.54315  1.0000
  C   C128      1.0  0.22038  0.23403  0.42306  1.0000
  C   C129      1.0  0.20870  0.26190  0.43288  1.0000
  C   C130      1.0  0.21864  0.27389  0.45869  1.0000
  C   C131      1.0  0.24073  0.25852  0.47484  1.0000
  C   C132      1.0  0.25319  0.23121  0.46458  1.0000
  C   C133      1.0  0.24286  0.21895  0.43901  1.0000
  H   H101      1.0  0.19134  0.27374  0.42097  1.0000
  H   H102      1.0  0.20878  0.29501  0.46635  1.0000
  H   H103      1.0  0.27047  0.21927  0.47645  1.0000
  H   H104      1.0  0.25212  0.19742  0.43163  1.0000
  Fe  Fe11      1.0  0.29303  0.28257  0.60493  1.0000
  S   S21       1.0  0.27590  0.23973  0.58428  1.0000
  H   H105      1.0  0.31446  0.10631  0.60965  1.0000
  Fe  Fe12      1.0  0.34672  0.28908  0.56330  1.0000
  S   S22       1.0  0.33368  0.24568  0.54039  1.0000
  S   S23       1.0  0.38900  0.31411  0.54681  1.0000
  Fe  Fe13      1.0  0.28526  0.26326  0.54298  1.0000
  Fe  Fe14      1.0  0.32575  0.22568  0.58329  1.0000
  S   S24       1.0  0.33887  0.18030  0.60411  1.0000
  S   S25       1.0  0.29898  0.30741  0.56402  1.0000
  S   S26       1.0  0.34230  0.26782  0.60592  1.0000
  C   C134      1.0  0.01448  0.29335  0.35492  1.0000
  S   S27       1.0  0.41907  0.45744  0.55368  1.0000
  Fe  Fe15      1.0  0.45197  0.04021  0.60830  1.0000
  H   H106      1.0  0.09467  0.38002  0.38527  1.0000
  S   S28       1.0  0.43771  0.07721  0.57718  1.0000
  C   C135      1.0  0.08823  0.35651  0.34619  1.0000
  H   H107      1.0  0.16132  0.44551  0.48639  1.0000
  C   C136      1.0  0.41062  0.41768  0.55078  1.0000
  C   C137      1.0  0.38443  0.40590  0.56412  1.0000
  C   C138      1.0  0.37723  0.37433  0.56285  1.0000
  C   C139      1.0  0.39645  0.35415  0.54855  1.0000
  C   C140      1.0  0.42266  0.36593  0.53531  1.0000
  C   C141      1.0  0.42959  0.39755  0.53611  1.0000
  H   H108      1.0  0.36981  0.42122  0.57577  1.0000
  H   H109      1.0  0.35722  0.36548  0.57339  1.0000
  H   H110      1.0  0.43782  0.35041  0.52459  1.0000
  H   H111      1.0  0.44972  0.40626  0.52563  1.0000
  C   C142      1.0  0.36912  0.15439  0.59698  1.0000
  C   C143      1.0  0.38315  0.15275  0.57083  1.0000
  C   C144      1.0  0.40457  0.12935  0.56523  1.0000
  C   C145      1.0  0.41214  0.10742  0.58565  1.0000
  C   C146      1.0  0.39879  0.10972  0.61205  1.0000
  C   C147      1.0  0.37759  0.13317  0.61769  1.0000
  H   H112      1.0  0.37684  0.16890  0.55468  1.0000
  H   H113      1.0  0.41482  0.12782  0.54476  1.0000
  H   H114      1.0  0.40419  0.09298  0.62794  1.0000
  H   H115      1.0  0.04326  0.43971  0.48280  1.0000
  C   C148      1.0  0.06252  0.47620  0.45798  1.0000
  H   H116      1.0  0.29937  0.44467  0.47014  1.0000
  H   H117      1.0  0.36021  0.43326  0.40891  1.0000
  C   C149      1.0  0.27130  0.16480  0.64857  1.0000
  Fe  Fe16      1.0  0.13598  0.28569  0.33366  1.0000
  H   H118      1.0  0.36231  0.00322  0.61073  1.0000
  H   H119      1.0  0.22311  0.41369  0.61623  1.0000
  C   C150      1.0  0.26415  0.38833  0.60765  1.0000
  H   H120      1.0  0.09713  0.11132  0.59110  1.0000
  C   C151      1.0  0.08333  0.48418  0.34553  1.0000
  H   H121      1.0  0.48118  0.22990  0.55221  1.0000
  C   C152      1.0  0.26548  0.36248  0.47688  1.0000
  C   C153      1.0  0.26195  0.38334  0.49877  1.0000
  P   P4        1.0  0.47047  0.21216  0.65377  1.0000
  H   H122      1.0  0.39752  0.42239  0.49162  1.0000
  H   H123      1.0  0.38724  0.47680  0.50106  1.0000
  C   C154      1.0  0.05901  0.10741  0.33839  1.0000
  C   C155      1.0  0.11081  0.43582  0.44760  1.0000
  Fe  Fe17      1.0  0.43057  0.99590  0.65404  1.0000
  H   H124      1.0  0.19601  0.45194  0.43889  1.0000
  C   C156      1.0  0.36562  0.44207  0.42936  1.0000
  H   H125      1.0  0.25641  0.33930  0.47881  1.0000
  H   H126      1.0  0.24952  0.37609  0.51720  1.0000
  S   S29       1.0  0.11989  0.33166  0.35209  1.0000
  H   H127      1.0  0.08389  0.14854  0.35025  1.0000
  C   C157      1.0  0.38636  0.43602  0.47579  1.0000
  H   H128      1.0  0.33835  0.37159  0.40377  1.0000
  H   H129      1.0  0.20996  0.36756  0.39448  1.0000
  H   H130      1.0  0.44359  0.42264  0.44690  1.0000
  C   C158      1.0  0.33898  0.07272  0.58621  1.0000
  H   H131      1.0  0.43365  0.37532  0.34771  1.0000
  H   H132      1.0  0.01126  0.40452  0.41464  1.0000
  H   H133      1.0  0.12884  0.41950  0.44344  1.0000
  C   C159      1.0  0.28867  0.39916  0.56341  1.0000
  C   C160      1.0  0.99270  0.15553  0.33308  1.0000
  H   H134      1.0  0.99309  0.37498  0.37429  1.0000
  H   H135      1.0  0.20419  0.29859  0.62567  1.0000
  H   H136      1.0  0.35875  0.38558  0.49734  1.0000
  C   C161      1.0  0.20602  0.40942  0.41832  1.0000
  H   H137      1.0  0.41905  0.32832  0.46439  1.0000
  C   C162      1.0  0.23015  0.45886  0.51760  1.0000
  H   H138      1.0  0.28412  0.35483  0.43601  1.0000
  H   H139      1.0  0.30710  0.39467  0.54889  1.0000
  C   C163      1.0  0.29328  0.40090  0.45051  1.0000
  C   C164      1.0  0.33459  0.03534  0.63340  1.0000
  H   H140      1.0  0.43158  0.26451  0.63970  1.0000
  C   C165      1.0  0.35303  0.04392  0.58646  1.0000
  C   C166      1.0  0.26595  0.42084  0.55701  1.0000
  S   S30       1.0  0.00815  0.47372  0.40315  1.0000
  C   C167      1.0  0.27415  0.41319  0.49673  1.0000
  C   C168      1.0  0.28981  0.42184  0.47237  1.0000
  H   H141      1.0  0.32639  0.34869  0.52215  1.0000
  C   C169      1.0  0.17893  0.45748  0.49794  1.0000
  H   H142      1.0  0.31195  0.29929  0.50020  1.0000
  C   C170      1.0  0.45022  0.26212  0.57105  1.0000
  C   C171      1.0  0.40730  0.20272  0.65687  1.0000
  C   C172      1.0  0.38062  0.46700  0.48121  1.0000
  H   H143      1.0  0.22472  0.18038  0.64882  1.0000
  P   P5        1.0  0.26677  0.44089  0.52394  1.0000
  H   H144      1.0  0.33097  0.28645  0.45318  1.0000
  C   C173      1.0  0.37895  0.42321  0.44982  1.0000
  C   C174      1.0  0.48702  0.36490  0.47310  1.0000
  C   C175      1.0  0.32147  0.06476  0.63377  1.0000
  C   C176      1.0  0.08644  0.42670  0.46466  1.0000
  C   C177      1.0  0.28115  0.37124  0.45276  1.0000
  C   C178      1.0  0.20727  0.44350  0.50247  1.0000
  H   H145      1.0  0.05189  0.41675  0.37809  1.0000
  C   C179      1.0  0.08675  0.48528  0.44082  1.0000
  C   C180      1.0  0.07251  0.13647  0.33352  1.0000
  H   H146      1.0  0.22450  0.44258  0.57207  1.0000
  H   H147      1.0  0.21105  0.42069  0.49427  1.0000
  C   C181      1.0  0.29627  0.47023  0.52423  1.0000
  C   C182      1.0  0.27685  0.17726  0.53546  1.0000
  C   C183      1.0  0.28468  0.15582  0.55592  1.0000
  C   C184      1.0  0.26292  0.14645  0.57553  1.0000
  C   C185      1.0  0.23324  0.15822  0.57452  1.0000
  C   C186      1.0  0.22497  0.17910  0.55353  1.0000
  C   C187      1.0  0.24721  0.18918  0.53450  1.0000
  P   P6        1.0  0.18749  0.19623  0.55353  1.0000
  C   C188      1.0  0.15918  0.16931  0.56595  1.0000
  C   C189      1.0  0.19069  0.22913  0.57618  1.0000
  C   C190      1.0  0.18855  0.22537  0.60521  1.0000
  C   C191      1.0  0.19296  0.25047  0.62295  1.0000
  C   C192      1.0  0.20009  0.27931  0.61186  1.0000
  C   C193      1.0  0.20299  0.28307  0.58307  1.0000
  C   C194      1.0  0.19835  0.25808  0.56528  1.0000
  C   C195      1.0  0.13363  0.17965  0.58095  1.0000
  C   C196      1.0  0.11147  0.15873  0.59017  1.0000
  C   C197      1.0  0.11440  0.12748  0.58406  1.0000
  C   C198      1.0  0.13937  0.11715  0.56851  1.0000
  C   C199      1.0  0.16159  0.13800  0.55931  1.0000
  C   C200      1.0  0.17545  0.20586  0.51859  1.0000
  C   C201      1.0  0.18478  0.18777  0.49591  1.0000
  C   C202      1.0  0.17493  0.19479  0.46894  1.0000
  C   C203      1.0  0.15541  0.21962  0.46442  1.0000
  C   C204      1.0  0.14542  0.23729  0.48693  1.0000
  C   C205      1.0  0.15512  0.23027  0.51397  1.0000
  H   H148      1.0  0.29396  0.18530  0.52081  1.0000
  H   H149      1.0  0.30789  0.14722  0.55712  1.0000
  H   H150      1.0  0.26929  0.13065  0.59192  1.0000
  H   H151      1.0  0.21698  0.15142  0.59039  1.0000
  H   H152      1.0  0.24183  0.20676  0.51933  1.0000
  H   H153      1.0  0.18397  0.20301  0.61418  1.0000
  H   H154      1.0  0.03037  0.28187  0.36877  1.0000
  H   H155      1.0  0.35853  0.19612  0.65893  1.0000
  H   H156      1.0  0.20970  0.30516  0.57457  1.0000
  H   H157      1.0  0.20156  0.26124  0.54312  1.0000
  H   H158      1.0  0.13068  0.20386  0.58536  1.0000
  H   H159      1.0  0.09189  0.16680  0.60188  1.0000
  C   C206      1.0  0.23979  0.16086  0.65148  1.0000
  H   H160      1.0  0.14137  0.09300  0.56338  1.0000
  H   H161      1.0  0.18052  0.12974  0.54684  1.0000
  H   H162      1.0  0.19982  0.16835  0.49890  1.0000
  H   H163      1.0  0.18291  0.18143  0.45131  1.0000
  H   H164      1.0  0.14847  0.22537  0.44334  1.0000
  H   H165      1.0  0.13035  0.25659  0.48331  1.0000
  H   H166      1.0  0.14687  0.24397  0.53119  1.0000
  H   H167      1.0  0.22490  0.40393  0.43200  1.0000
  C   C207      1.0  0.43553  0.34691  0.46392  1.0000
  C   C208      1.0  0.42711  0.37643  0.45492  1.0000
  P   P7        1.0  0.38893  0.38372  0.44225  1.0000
  C   C209      1.0  0.38751  0.37740  0.40504  1.0000
  C   C210      1.0  0.36327  0.35765  0.46012  1.0000
  C   C211      1.0  0.35567  0.32915  0.44813  1.0000
  C   C212      1.0  0.33686  0.30839  0.46241  1.0000
  C   C213      1.0  0.32612  0.31557  0.48898  1.0000
  C   C214      1.0  0.33402  0.34353  0.50125  1.0000
  C   C215      1.0  0.35250  0.36451  0.48696  1.0000
  C   C216      1.0  0.35933  0.37224  0.39180  1.0000
  H   H168      1.0  0.36472  0.32255  0.42804  1.0000
  C   C217      1.0  0.41430  0.37859  0.38891  1.0000
  H   H169      1.0  0.44461  0.27351  0.55160  1.0000
  C   C218      1.0  0.99492  0.17971  0.35206  1.0000
  H   H170      1.0  0.32320  0.44979  0.55741  1.0000
  H   H171      1.0  0.30545  0.36667  0.59382  1.0000
  C   C219      1.0  0.41290  0.37433  0.36005  1.0000
  C   C220      1.0  0.35067  0.02517  0.61002  1.0000
  C   C221      1.0  0.43641  0.27182  0.59575  1.0000
  C   C222      1.0  0.44921  0.39988  0.45443  1.0000
  C   C223      1.0  0.16495  0.44387  0.40452  1.0000
  H   H172      1.0  0.47158  0.31853  0.48033  1.0000
  C   C224      1.0  0.32343  0.08323  0.60983  1.0000
  S   S31       1.0  0.26898  0.30749  0.64072  1.0000
  C   C225      1.0  0.48572  0.17451  0.64652  1.0000
  C   C226      1.0  0.28786  0.38324  0.58874  1.0000
  P   P8        1.0  0.14137  0.47696  0.41200  1.0000
  C   C227      1.0  0.35802  0.36794  0.36295  1.0000
  C   C228      1.0  0.47741  0.22259  0.59656  1.0000
  H   H173      1.0  0.36657  0.03659  0.56876  1.0000
  C   C229      1.0  0.46331  0.23207  0.62140  1.0000
  C   C230      1.0  0.11125  0.46537  0.43569  1.0000
  H   H174      1.0  0.34166  0.08765  0.56827  1.0000
  H   H175      1.0  0.99925  0.17488  0.37385  1.0000
  C   C231      1.0  0.15668  0.42306  0.38344  1.0000
  S   S32       1.0  0.45791  0.48015  0.48155  1.0000
  C   C232      1.0  0.18964  0.43669  0.42207  1.0000
  H   H176      1.0  0.26278  0.24336  0.65895  1.0000
  H   H177      1.0  0.08604  0.40377  0.47350  1.0000
  H   H178      1.0  0.19158  0.24757  0.64537  1.0000
  H   H179      1.0  0.43629  0.38296  0.39845  1.0000
  H   H180      1.0  0.26338  0.37546  0.62705  1.0000
  H   H181      1.0  0.33623  0.36388  0.35285  1.0000
  C   C233      1.0  0.38480  0.36897  0.34708  1.0000
  C   C234      1.0  0.47761  0.12091  0.63491  1.0000
  C   C235      1.0  0.24237  0.42611  0.57633  1.0000
  H   H182      1.0  0.42024  0.29068  0.59535  1.0000
  C   C236      1.0  0.44287  0.25689  0.62083  1.0000
  C   C237      1.0  0.19767  0.38896  0.39722  1.0000
  C   C238      1.0  0.24146  0.40980  0.60148  1.0000
  C   C239      1.0  0.17305  0.39581  0.37980  1.0000
  C   C240      1.0  0.46539  0.34121  0.47297  1.0000
  C   C241      1.0  0.47891  0.39414  0.46373  1.0000
  H   H183      1.0  0.06033  0.09722  0.35892  1.0000
  C   C242      1.0  0.47078  0.23757  0.57145  1.0000
  H   H184      1.0  0.13734  0.42732  0.36999  1.0000
  H   H185      1.0  0.40761  0.20095  0.63434  1.0000
  H   H186      1.0  0.08846  0.45496  0.38113  1.0000
  H   H187      1.0  0.33389  0.02084  0.65175  1.0000
  C   C243      1.0  0.98868  0.39427  0.41511  1.0000
  Fe  Fe18      1.0  0.99641  0.46735  0.35805  1.0000
  C   C244      1.0  0.46598  0.15028  0.63958  1.0000
  Fe  Fe19      1.0  0.45368  0.48457  0.52784  1.0000
  H   H188      1.0  0.46235  0.10237  0.62939  1.0000
  H   H189      1.0  0.06364  0.47172  0.33768  1.0000
  S   S33       1.0  0.01038  0.42628  0.33107  1.0000
  H   H190      1.0  0.31534  0.14360  0.65062  1.0000
  H   H191      1.0  0.44161  0.15383  0.63774  1.0000
  S   S34       1.0  0.43409  0.99175  0.60753  1.0000
  C   C245      1.0  0.99211  0.21003  0.34281  1.0000
  C   C246      1.0  0.98816  0.30727  0.36558  1.0000
  C   C247      1.0  0.02100  0.29516  0.32648  1.0000
  C   C248      1.0  0.09750  0.47465  0.37012  1.0000
  C   C249      1.0  0.04021  0.39942  0.33763  1.0000
  C   C250      1.0  0.36781  0.48565  0.46065  1.0000
  S   S35       1.0  0.18701  0.27611  0.33196  1.0000
  C   C251      1.0  0.29096  0.13992  0.65257  1.0000
  H   H192      1.0  0.28066  0.18719  0.64324  1.0000
  H   H193      1.0  0.99527  0.13199  0.34016  1.0000
  S   S36       1.0  0.44623  0.04530  0.65430  1.0000
  H   H194      1.0  0.16624  0.37968  0.36370  1.0000
  C   C252      1.0  0.27930  0.11069  0.65916  1.0000
  C   C253      1.0  0.22788  0.13187  0.65801  1.0000
  C   C254      1.0  0.17323  0.48686  0.50838  1.0000
  C   C255      1.0  0.22402  0.48822  0.52839  1.0000
  H   H195      1.0  0.35078  0.48791  0.41873  1.0000
  H   H196      1.0  0.27095  0.22017  0.91813  1.0000
  C   C256      1.0  0.37525  0.47075  0.90951  1.0000
  C   C257      1.0  0.20155  0.04532  0.77936  1.0000
  S   S37       1.0  0.00648  0.07377  0.82000  1.0000
  C   C258      1.0  0.99447  0.18849  0.74473  1.0000
  Fe  Fe20      1.0  0.14004  0.29150  0.83152  1.0000
  S   S38       1.0  0.13091  0.24848  0.85668  1.0000
  S   S39       1.0  0.12573  0.33612  0.85362  1.0000
  Fe  Fe21      1.0  0.17966  0.25648  0.78788  1.0000
  S   S40       1.0  0.17373  0.21242  0.81196  1.0000
  S   S41       1.0  0.20638  0.24512  0.74774  1.0000
  Fe  Fe22      1.0  0.12403  0.22462  0.81519  1.0000
  S   S42       1.0  0.08830  0.19293  0.79472  1.0000
  Fe  Fe23      1.0  0.18140  0.23987  0.85122  1.0000
  S   S43       1.0  0.21830  0.22599  0.88289  1.0000
  S   S44       1.0  0.12958  0.26849  0.79038  1.0000
  S   S45       1.0  0.19086  0.28311  0.82700  1.0000
  C   C259      1.0  0.03019  0.32606  0.77638  1.0000
  C   C260      1.0  0.40485  0.20652  0.71496  1.0000
  H   H197      1.0  0.05901  0.02384  0.81605  1.0000
  C   C261      1.0  0.04733  0.40512  0.83894  1.0000
  C   C262      1.0  0.05840  0.38706  0.81687  1.0000
  C   C263      1.0  0.08218  0.36573  0.82104  1.0000
  C   C264      1.0  0.09517  0.36213  0.84739  1.0000
  C   C265      1.0  0.08427  0.38036  0.86950  1.0000
  C   C266      1.0  0.06045  0.40171  0.86534  1.0000
  H   H198      1.0  0.04869  0.38982  0.79631  1.0000
  H   H199      1.0  0.09088  0.35251  0.80373  1.0000
  H   H200      1.0  0.09407  0.37779  0.89004  1.0000
  H   H201      1.0  0.05234  0.41557  0.88251  1.0000
  C   C267      1.0  0.02975  0.10646  0.81257  1.0000
  C   C268      1.0  0.04111  0.12428  0.83478  1.0000
  C   C269      1.0  0.05988  0.15021  0.82987  1.0000
  C   C270      1.0  0.06715  0.15891  0.80259  1.0000
  C   C271      1.0  0.05575  0.14108  0.78039  1.0000
  C   C272      1.0  0.03732  0.11497  0.78531  1.0000
  H   H202      1.0  0.03544  0.11788  0.85595  1.0000
  H   H203      1.0  0.06825  0.16373  0.84715  1.0000
  H   H204      1.0  0.06131  0.14742  0.75920  1.0000
  C   C273      1.0  0.12161  0.45405  0.92676  1.0000
  C   C274      1.0  0.25178  0.25787  0.67421  1.0000
  C   C275      1.0  0.23773  0.24477  0.69794  1.0000
  C   C276      1.0  0.22339  0.26327  0.71816  1.0000
  C   C277      1.0  0.22309  0.29513  0.71419  1.0000
  C   C278      1.0  0.23714  0.30824  0.69043  1.0000
  H   H205      1.0  0.11255  0.09646  0.85196  1.0000
  H   H206      1.0  0.23816  0.22012  0.70078  1.0000
  H   H207      1.0  0.21217  0.30967  0.72949  1.0000
  C   C279      1.0  0.22317  0.23208  0.91943  1.0000
  C   C280      1.0  0.19913  0.24110  0.93685  1.0000
  C   C281      1.0  0.20401  0.24450  0.96579  1.0000
  C   C282      1.0  0.23296  0.23926  0.97773  1.0000
  C   C283      1.0  0.25715  0.23097  0.96023  1.0000
  C   C284      1.0  0.25219  0.22719  0.93134  1.0000
  H   H208      1.0  0.17671  0.24495  0.92809  1.0000
  C   C285      1.0  0.16564  0.41461  0.88417  1.0000
  H   H209      1.0  0.27951  0.22680  0.96902  1.0000
  H   H210      1.0  0.98866  0.35246  0.77768  1.0000
  H   H211      1.0  0.14897  0.34107  0.91659  1.0000
  C   C286      1.0  0.27548  0.01787  0.72499  1.0000
  H   H212      1.0  0.37144  0.06436  0.66962  1.0000
  H   H213      1.0  0.14571  0.09731  0.81043  1.0000
  H   H214      1.0  0.14036  0.17567  0.75811  1.0000
  H   H215      1.0  0.04176  0.19997  0.75185  1.0000
  H   H216      1.0  0.21352  0.48290  0.98500  1.0000
  H   H217      1.0  0.22314  0.45537  0.94067  1.0000
  C   C287      1.0  0.08707  0.42790  0.97010  1.0000
  C   C288      1.0  0.09249  0.46888  0.82876  1.0000
  C   C289      1.0  0.18569  0.34638  0.94629  1.0000
  C   C290      1.0  0.18907  0.31622  0.90409  1.0000
  H   H218      1.0  0.18511  0.25084  0.97910  1.0000
  H   H219      1.0  0.03707  0.33472  0.75614  1.0000
  S   S46       1.0  0.01749  0.43177  0.83216  1.0000
  C   C291      1.0  0.01819  0.20672  0.75501  1.0000
  H   H220      1.0  0.08687  0.45211  0.81288  1.0000
  C   C292      1.0  0.09099  0.46256  0.93073  1.0000
  H   H221      1.0  0.45878  0.48272  0.88345  1.0000
  H   H222      1.0  0.37128  0.43928  0.87465  1.0000
  H   H223      1.0  0.20779  0.48051  0.88082  1.0000
  C   C293      1.0  0.37932  0.19977  0.67075  1.0000
  H   H224      1.0  0.20025  0.08391  0.73036  1.0000
  H   H225      1.0  0.12255  0.43845  0.85024  1.0000
  C   C294      1.0  0.11767  0.41956  0.96655  1.0000
  C   C295      1.0  0.26719  0.02794  0.66797  1.0000
  H   H226      1.0  0.40228  0.12557  0.73340  1.0000
  H   H227      1.0  0.23686  0.33291  0.68767  1.0000
  H   H228      1.0  0.24495  0.03228  0.79693  1.0000
  C   C296      1.0  0.37805  0.20182  0.69973  1.0000
  H   H229      1.0  0.04993  0.05523  0.70253  1.0000
  C   C297      1.0  0.17233  0.33518  0.92186  1.0000
  C   C298      1.0  0.17279  0.44590  0.88727  1.0000
  C   C299      1.0  0.01329  0.30477  0.82945  1.0000
  C   C300      1.0  0.29016  0.04262  0.71193  1.0000
  C   C301      1.0  0.33039  0.11627  0.70753  1.0000
  H   H230      1.0  0.23243  0.38902  0.85663  1.0000
  C   C302      1.0  0.08688  0.03074  0.68307  1.0000
  H   H231      1.0  0.15877  0.42645  0.94293  1.0000
  C   C303      1.0  0.21611  0.40489  0.86554  1.0000
  C   C304      1.0  0.20190  0.45645  0.87936  1.0000
  C   C305      1.0  0.22352  0.43596  0.86871  1.0000
  H   H232      1.0  0.22052  0.13614  0.72120  1.0000
  C   C306      1.0  0.21585  0.33839  0.95330  1.0000
  H   H233      1.0  0.23204  0.29376  0.89675  1.0000
  H   H234      1.0  0.38258  0.43381  0.95807  1.0000
  H   H235      1.0  0.10145  0.25539  0.93118  1.0000
  H   H236      1.0  0.98739  0.18236  0.83026  1.0000
  H   H237      1.0  0.23212  0.39938  0.94074  1.0000
  H   H238      1.0  0.32636  0.40230  0.94672  1.0000
  H   H239      1.0  0.30349  0.35539  0.92721  1.0000
  H   H240      1.0  0.41276  0.08493  0.69856  1.0000
  H   H241      1.0  0.09222  0.02362  0.77467  1.0000
  H   H242      1.0  0.34945  0.14513  0.73960  1.0000
  C   C307      1.0  0.08212  0.26188  0.91835  1.0000
  H   H243      1.0  0.30060  0.48721  0.97095  1.0000
  H   H244      1.0  0.24575  0.44436  0.86226  1.0000
  C   C308      1.0  0.12236  0.05034  0.72833  1.0000
  C   C309      1.0  0.98838  0.34911  0.87976  1.0000
  C   C310      1.0  0.27288  0.34583  0.98785  1.0000
  C   C311      1.0  0.25168  0.28975  0.67035  1.0000
  C   C312      1.0  0.00292  0.33599  0.78850  1.0000
  C   C313      1.0  0.36613  0.08228  0.68443  1.0000
  C   C314      1.0  0.12087  0.06122  0.78900  1.0000
  H   H245      1.0  0.14314  0.40596  0.88947  1.0000
  P   P9        1.0  0.30538  0.07925  0.66587  1.0000
  H   H246      1.0  0.10359  0.30317  0.90301  1.0000
  C   C315      1.0  0.43435  0.20810  0.67195  1.0000
  H   H247      1.0  0.01770  0.22717  0.84517  1.0000
  C   C316      1.0  0.38386  0.11670  0.72063  1.0000
  C   C317      1.0  0.11922  0.48242  0.87143  1.0000
  C   C318      1.0  0.30535  0.37591  0.91443  1.0000
  H   H248      1.0  0.08128  0.07392  0.74173  1.0000
  C   C319      1.0  0.23266  0.31969  0.93505  1.0000
  C   C320      1.0  0.01170  0.23322  0.77013  1.0000
  C   C321      1.0  0.29403  0.36997  0.99089  1.0000
  C   C322      1.0  0.99432  0.32515  0.81481  1.0000
  C   C323      1.0  0.17477  0.03518  0.76606  1.0000
  H   H249      1.0  0.20341  0.12890  0.66046  1.0000
  H   H250      1.0  0.30748  0.12500  0.71059  1.0000
  H   H251      1.0  0.06007  0.31776  0.87324  1.0000
  C   C324      1.0  0.25249  0.00327  0.68112  1.0000
  C   C325      1.0  0.11275  0.46121  0.85017  1.0000
  C   C326      1.0  0.99296  0.22885  0.84495  1.0000
  H   H252      1.0  0.05491  0.22267  0.93015  1.0000
  C   C327      1.0  0.19853  0.13321  0.73126  1.0000
  P   P10       1.0  0.00092  0.28928  0.86247  1.0000
  H   H253      1.0  0.42392  0.44738  0.85814  1.0000
  C   C328      1.0  0.38979  0.09388  0.70094  1.0000
  H   H254      1.0  0.23779  0.08477  0.66726  1.0000
  C   C329      1.0  0.13498  0.43274  0.94509  1.0000
  C   C330      1.0  0.09176  0.05965  0.72589  1.0000
  H   H255      1.0  0.35624  0.19988  0.71033  1.0000
  C   C331      1.0  0.12696  0.08105  0.81138  1.0000
  C   C332      1.0  0.10847  0.08037  0.83515  1.0000
  C   C333      1.0  0.04893  0.30539  0.79063  1.0000
  H   H256      1.0  0.17855  0.30708  0.88540  1.0000
  C   C334      1.0  0.03291  0.27788  0.88377  1.0000
  P   P11       1.0  0.33728  0.46415  0.92332  1.0000
  C   C335      1.0  0.32098  0.42930  0.90909  1.0000
  C   C336      1.0  0.05597  0.24338  0.91761  1.0000
  C   C337      1.0  0.31968  0.47404  0.97880  1.0000
  H   H257      1.0  0.08026  0.47953  0.91746  1.0000
  H   H258      1.0  0.05537  0.27853  0.82766  1.0000
  Fe  Fe24      1.0  0.99657  0.46605  0.86278  1.0000
  H   H259      1.0  0.40384  0.20807  0.73747  1.0000
  C   C338      1.0  0.31051  0.42874  0.88145  1.0000
  C   C339      1.0  0.29805  0.40178  0.87029  1.0000
  C   C340      1.0  0.29527  0.37544  0.88682  1.0000
  C   C341      1.0  0.36576  0.44428  0.97164  1.0000
  C   C342      1.0  0.31832  0.40265  0.92547  1.0000
  C   C343      1.0  0.22713  0.41093  0.96022  1.0000
  H   H260      1.0  0.30500  0.05723  0.72417  1.0000
  C   C344      1.0  0.15335  0.15553  0.75205  1.0000
  H   H261      1.0  0.15936  0.02613  0.70788  1.0000
  H   H262      1.0  0.19074  0.18197  0.73528  1.0000
  C   C345      1.0  0.21666  0.45819  0.98501  1.0000
  C   C346      1.0  0.07402  0.04954  0.70351  1.0000
  H   H263      1.0  0.05027  0.45653  0.95530  1.0000
  H   H264      1.0  0.11969  0.12397  0.76751  1.0000
  H   H265      1.0  0.07013  0.29785  0.78125  1.0000
  C   C347      1.0  0.08337  0.28876  0.90246  1.0000
  S   S47       1.0  0.44882  0.47109  0.98785  1.0000
  C   C348      1.0  0.07382  0.44949  0.95229  1.0000
  C   C349      1.0  0.11769  0.02257  0.68467  1.0000
  C   C350      1.0  0.18715  0.39430  0.87316  1.0000
  C   C351      1.0  0.35413  0.12773  0.72406  1.0000
  H   H266      1.0  0.31239  0.44906  0.86846  1.0000
  H   H267      1.0  0.29064  0.40125  0.84875  1.0000
  H   H268      1.0  0.28556  0.35454  0.87821  1.0000
  C   C352      1.0  0.43292  0.20955  0.70118  1.0000
  H   H269      1.0  0.27107  0.46898  0.91927  1.0000
  C   C353      1.0  0.07845  0.03926  0.81502  1.0000
  C   C354      1.0  0.18175  0.15909  0.73911  1.0000
  H   H270      1.0  0.00609  0.35652  0.86542  1.0000
  C   C355      1.0  0.14185  0.12613  0.75757  1.0000
  H   H271      1.0  0.12800  0.40310  0.98060  1.0000
  C   C356      1.0  0.13556  0.03275  0.70698  1.0000
  C   C357      1.0  0.22440  0.02433  0.78659  1.0000
  C   C358      1.0  0.03124  0.25154  0.90069  1.0000
  C   C359      1.0  0.04058  0.29473  0.81709  1.0000
  C   C360      1.0  0.22529  0.39422  0.98529  1.0000
  C   C361      1.0  0.15902  0.10001  0.75061  1.0000
  C   C362      1.0  0.05880  0.29683  0.88536  1.0000
  C   C363      1.0  0.21930  0.30882  0.91049  1.0000
  H   H272      1.0  0.07364  0.41791  0.98683  1.0000
  H   H273      1.0  0.45323  0.21330  0.71348  1.0000
  P   P12       1.0  0.14454  0.06200  0.75820  1.0000
  C   C364      1.0  0.08414  0.05958  0.83691  1.0000
  H   H274      1.0  0.02889  0.10148  0.76802  1.0000
  C   C365      1.0  0.09697  0.03973  0.79131  1.0000
  C   C366      1.0  0.38580  0.45517  0.88577  1.0000
  C   C367      1.0  0.18709  0.10373  0.73673  1.0000
  C   C368      1.0  0.33628  0.09381  0.68721  1.0000
  H   H275      1.0  0.06906  0.05983  0.85484  1.0000
  C   C369      1.0  0.28314  0.31535  0.98969  1.0000
  H   H276      1.0  0.20456  0.06933  0.78462  1.0000
  H   H277      1.0  0.18105  0.37041  0.86988  1.0000
  H   H278      1.0  0.17236  0.36091  0.95996  1.0000
  H   H279      1.0  0.27915  0.01359  0.74697  1.0000
  C   C370      1.0  0.34098  0.46063  0.96060  1.0000
  P   P13       1.0  0.14426  0.47240  0.89998  1.0000
  Fe  Fe25      1.0  0.99773  0.99854  0.73873  1.0000
  H   H280      1.0  0.25585  0.31298  0.93968  1.0000
  C   C371      1.0  0.43545  0.47949  0.89055  1.0000
  H   H281      1.0  0.01098  0.23723  0.90083  1.0000
  H   H282      1.0  0.07264  0.02174  0.66649  1.0000
  C   C372      1.0  0.22239  0.44271  0.96008  1.0000
  C   C373      1.0  0.41579  0.45960  0.87633  1.0000
  H   H283      1.0  0.00018  0.16727  0.73424  1.0000
  C   C374      1.0  0.28608  0.04785  0.68330  1.0000
  C   C375      1.0  0.25661  0.99824  0.70963  1.0000
  C   C376      1.0  0.22048  0.99306  0.78098  1.0000
  P   P14       1.0  0.23242  0.35328  0.98511  1.0000
  S   S48       1.0  0.99827  0.46132  0.90919  1.0000
  H   H284      1.0  0.18064  0.30958  0.99224  1.0000
  H   H285      1.0  0.26704  0.29640  0.98879  1.0000
  C   C377      1.0  0.24752  0.10684  0.66184  1.0000
  C   C378      1.0  0.17066  0.00362  0.76126  1.0000
  H   H286      1.0  0.28672  0.39369  0.99076  1.0000
  H   H287      1.0  0.14965  0.99499  0.75225  1.0000
  H   H288      1.0  0.12743  0.00755  0.66905  1.0000
  S   S49       1.0  0.00339  0.99193  0.78464  1.0000
  H   H289      1.0  0.03037  0.24649  0.77867  1.0000
  H   H290      1.0  0.37905  0.95809  0.08471  1.0000
  S   S50       1.0  0.44107  0.51978  0.03986  1.0000
  C   C379      1.0  0.14134  0.68682  0.99554  1.0000
  C   C380      1.0  0.27835  0.91462  0.27544  1.0000
  S   S51       1.0  0.02717  0.95471  0.21410  1.0000
  Fe  Fe26      1.0  0.23578  0.81465  0.22530  1.0000
  S   S52       1.0  0.18724  0.81410  0.20947  1.0000
  S   S53       1.0  0.25671  0.79541  0.26609  1.0000
  Fe  Fe27      1.0  0.25751  0.85597  0.17594  1.0000
  S   S54       1.0  0.21004  0.85903  0.15774  1.0000
  S   S55       1.0  0.29692  0.87659  0.15041  1.0000
  Fe  Fe28      1.0  0.19314  0.86504  0.20194  1.0000
  S   S56       1.0  0.16418  0.90337  0.22185  1.0000
  Fe  Fe29      1.0  0.20780  0.80800  0.16607  1.0000
  S   S57       1.0  0.18841  0.77299  0.13450  1.0000
  S   S58       1.0  0.24115  0.86585  0.21923  1.0000
  S   S59       1.0  0.25580  0.80473  0.18265  1.0000
  C   C381      1.0  0.48363  0.72967  0.09869  1.0000
  S   S60       1.0  0.40732  0.96483  0.18546  1.0000
  H   H291      1.0  0.41621  0.88445  0.12873  1.0000
  C   C382      1.0  0.32714  0.90146  0.16077  1.0000
  C   C383      1.0  0.32941  0.91328  0.18778  1.0000
  C   C384      1.0  0.35367  0.93329  0.19473  1.0000
  C   C385      1.0  0.37629  0.94106  0.17510  1.0000
  C   C386      1.0  0.37395  0.92935  0.14811  1.0000
  C   C387      1.0  0.34935  0.90993  0.14094  1.0000
  H   H292      1.0  0.31234  0.90725  0.20319  1.0000
  H   H293      1.0  0.35499  0.94282  0.21543  1.0000
  H   H294      1.0  0.39102  0.93542  0.13274  1.0000
  H   H295      1.0  0.34738  0.90155  0.11985  1.0000
  C   C388      1.0  0.06482  0.93942  0.21735  1.0000
  C   C389      1.0  0.07609  0.91980  0.19643  1.0000
  C   C390      1.0  0.10615  0.90800  0.19762  1.0000
  C   C391      1.0  0.12546  0.91596  0.21969  1.0000
  C   C392      1.0  0.11407  0.93536  0.24072  1.0000
  C   C393      1.0  0.08395  0.94688  0.23969  1.0000
  H   H296      1.0  0.06153  0.91378  0.17907  1.0000
  H   H297      1.0  0.11447  0.89311  0.18127  1.0000
  H   H298      1.0  0.12871  0.94152  0.25796  1.0000
  H   H299      1.0  0.07564  0.96178  0.25599  1.0000
  C   C394      1.0  0.21738  0.74164  0.04569  1.0000
  C   C395      1.0  0.19543  0.72534  0.06106  1.0000
  C   C396      1.0  0.18717  0.73510  0.08817  1.0000
  C   C397      1.0  0.20101  0.76095  0.10065  1.0000
  C   C398      1.0  0.22337  0.77691  0.08548  1.0000
  C   C399      1.0  0.23124  0.76747  0.05818  1.0000
  H   H300      1.0  0.18467  0.70531  0.05206  1.0000
  H   H301      1.0  0.16991  0.72247  0.09961  1.0000
  H   H302      1.0  0.23418  0.79689  0.09458  1.0000
  H   H303      1.0  0.24818  0.78038  0.04660  1.0000
  H   H304      1.0  0.43966  0.71515  0.08415  1.0000
  C   C400      1.0  0.21412  0.76187  0.29799  1.0000
  C   C401      1.0  0.24365  0.77422  0.29600  1.0000
  H   H305      1.0  0.25758  0.92788  0.27782  1.0000
  S   S61       1.0  0.22796  0.73147  0.01076  1.0000
  H   H306      1.0  0.19821  0.76524  0.28103  1.0000
  H   H307      1.0  0.46094  0.93715  0.05997  1.0000
  H   H308      1.0  0.47306  0.86819  0.19986  1.0000
  C   C402      1.0  0.00104  0.86457  0.30186  1.0000
  C   C403      1.0  0.46530  0.62261  0.00269  1.0000
  C   C404      1.0  0.44328  0.87910  0.16559  1.0000
  H   H309      1.0  0.39639  0.89928  0.22597  1.0000
  C   C405      1.0  0.30388  0.86537  0.27449  1.0000
  H   H310      1.0  0.36298  0.74867  0.29651  1.0000
  C   C406      1.0  0.39247  0.68504  0.05811  1.0000
  C   C407      1.0  0.40343  0.86981  0.05118  1.0000
  H   H311      1.0  0.99889  0.90251  0.24375  1.0000
  C   C408      1.0  0.20530  0.74462  0.32174  1.0000
  C   C409      1.0  0.01805  0.58901  0.31511  1.0000
  C   C410      1.0  0.03386  0.83780  0.25328  1.0000
  S   S62       1.0  0.99879  0.97727  0.29091  1.0000
  H   H312      1.0  0.05771  0.87194  0.27818  1.0000
  C   C411      1.0  0.05934  0.85529  0.26154  1.0000
  C   C412      1.0  0.06446  0.81528  0.21625  1.0000
  C   C413      1.0  0.03648  0.81824  0.23016  1.0000
  H   H313      1.0  0.41587  0.83065  0.23206  1.0000
  H   H314      1.0  0.32234  0.82067  0.17452  1.0000
  H   H315      1.0  0.01663  0.57114  0.29947  1.0000
  C   C414      1.0  0.40032  0.89646  0.03509  1.0000
  C   C415      1.0  0.34771  0.98955  0.10424  1.0000
  C   C416      1.0  0.08731  0.85210  0.24772  1.0000
  C   C417      1.0  0.43483  0.91791  0.24790  1.0000
  C   C418      1.0  0.27740  0.88270  0.27836  1.0000
  H   H316      1.0  0.33931  0.72340  0.01977  1.0000
  H   H317      1.0  0.38214  0.89809  0.01984  1.0000
  H   H318      1.0  0.18254  0.73493  0.32270  1.0000
  H   H319      1.0  0.10693  0.86562  0.25411  1.0000
  C   C419      1.0  0.36812  0.83174  0.10130  1.0000
  H   H320      1.0  0.31634  0.77406  0.11046  1.0000
  C   C420      1.0  0.44493  0.84417  0.12609  1.0000
  C   C421      1.0  0.44768  0.89202  0.07396  1.0000
  C   C422      1.0  0.36500  0.69972  0.05148  1.0000
  H   H321      1.0  0.28136  0.97706  0.10563  1.0000
  H   H322      1.0  0.26914  0.96533  0.20792  1.0000
  H   H323      1.0  0.06645  0.80020  0.19840  1.0000
  H   H324      1.0  0.42321  0.78613  0.04877  1.0000
  C   C423      1.0  0.33996  0.81723  0.10572  1.0000
  P   P15       1.0  0.99729  0.84230  0.27034  1.0000
  C   C424      1.0  0.17718  0.83053  0.03217  1.0000
  C   C425      1.0  0.42083  0.92086  0.03843  1.0000
  C   C426      1.0  0.46047  0.61594  0.08573  1.0000
  C   C427      1.0  0.08990  0.83212  0.22511  1.0000
  H   H325      1.0  0.17226  0.82635  0.07679  1.0000
  C   C428      1.0  0.43313  0.87046  0.13913  1.0000
  H   H326      1.0  0.42052  0.55162  0.10360  1.0000
  C   C429      1.0  0.40614  0.58492  0.07307  1.0000
  H   H327      1.0  0.08297  0.51755  0.31243  1.0000
  Fe  Fe30      1.0  0.99868  0.98366  0.24441  1.0000
  P   P16       1.0  0.36576  0.85681  0.26405  1.0000
  C   C430      1.0  0.44059  0.62815  0.06567  1.0000
  C   C431      1.0  0.41357  0.61215  0.05911  1.0000
  H   H328      1.0  0.38560  0.57237  0.06753  1.0000
  H   H329      1.0  0.46001  0.75431  0.02276  1.0000
  H   H330      1.0  0.33992  0.97251  0.11905  1.0000
  H   H331      1.0  0.11968  0.76274  0.02843  1.0000
  C   C432      1.0  0.16883  0.81860  0.00619  1.0000
  C   C433      1.0  0.27151  0.96830  0.18561  1.0000
  C   C434      1.0  0.39532  0.82884  0.21961  1.0000
  H   H332      1.0  0.42937  0.69479  0.99603  1.0000
  H   H333      1.0  0.99664  0.72961  0.28699  1.0000
  C   C435      1.0  0.13586  0.78156  0.02912  1.0000
  H   H334      1.0  0.35392  0.92385  0.26159  1.0000
  C   C436      1.0  0.02101  0.85438  0.32280  1.0000
  C   C437      1.0  0.26404  0.94896  0.13889  1.0000
  P   P17       1.0  0.45078  0.66243  0.04650  1.0000
  C   C438      1.0  0.40900  0.89915  0.24540  1.0000
  H   H335      1.0  0.11154  0.83016  0.21419  1.0000
  H   H336      1.0  0.31896  0.84503  0.22059  1.0000
  H   H337      1.0  0.30250  0.84059  0.27630  1.0000
  C   C439      1.0  0.33826  0.78520  0.10696  1.0000
  H   H338      1.0  0.15452  0.98179  0.30132  1.0000
  C   C440      1.0  0.26055  0.94559  0.16766  1.0000
  H   H339      1.0  0.46883  0.57889  0.11449  1.0000
  H   H340      1.0  0.03443  0.83376  0.31978  1.0000
  H   H341      1.0  0.28682  0.77867  0.31720  1.0000
  H   H342      1.0  0.39855  0.62023  0.04273  1.0000
  H   H343      1.0  0.47463  0.80480  0.13146  1.0000
  C   C441      1.0  0.45788  0.81009  0.07270  1.0000
  H   H344      1.0  0.24992  0.92499  0.17604  1.0000
  C   C442      1.0  0.14432  0.79349  0.05504  1.0000
  C   C443      1.0  0.44740  0.78883  0.05282  1.0000
  H   H345      1.0  0.41860  0.94141  0.02584  1.0000
  H   H346      1.0  0.39506  0.67464  0.07850  1.0000
  H   H347      1.0  0.38771  0.85091  0.04790  1.0000
  C   C444      1.0  0.36352  0.82678  0.29007  1.0000
  C   C445      1.0  0.46498  0.86126  0.17947  1.0000
  H   H348      1.0  0.37180  0.80108  0.15711  1.0000
  H   H349      1.0  0.43437  0.89976  0.17525  1.0000
  C   C446      1.0  0.39480  0.81432  0.09767  1.0000
  H   H350      1.0  0.16217  0.72900  0.00841  1.0000
  C   C447      1.0  0.16515  0.81778  0.05659  1.0000
  H   H351      1.0  0.41848  0.80620  0.18577  1.0000
  C   C448      1.0  0.36486  0.76768  0.10432  1.0000
  C   C449      1.0  0.39310  0.78217  0.10003  1.0000
  C   C450      1.0  0.47026  0.65159  0.01477  1.0000
  H   H352      1.0  0.13536  0.78345  0.07408  1.0000
  H   H353      1.0  0.45017  0.60591  0.01221  1.0000
  H   H354      1.0  0.36354  0.74287  0.10590  1.0000
  H   H355      1.0  0.41352  0.76828  0.09871  1.0000
  H   H356      1.0  0.01682  0.80548  0.22274  1.0000
  P   P18       1.0  0.43106  0.83339  0.09201  1.0000
  H   H357      1.0  0.25597  0.87110  0.28294  1.0000
  C   C451      1.0  0.27854  0.97502  0.12799  1.0000
  C   C452      1.0  0.36090  0.71265  0.02510  1.0000
  C   C453      1.0  0.46390  0.71066  0.08348  1.0000
  H   H358      1.0  0.25624  0.93080  0.12515  1.0000
  C   C454      1.0  0.47615  0.83449  0.16704  1.0000
  C   C455      1.0  0.38435  0.71106  0.00535  1.0000
  H   H359      1.0  0.35308  0.85811  0.32373  1.0000
  H   H360      1.0  0.37066  0.78900  0.26130  1.0000
  C   C456      1.0  0.14637  0.71848  0.99396  1.0000
  H   H361      1.0  0.19338  0.84933  0.03346  1.0000
  H   H362      1.0  0.02069  0.77829  0.27223  1.0000
  H   H363      1.0  0.31945  0.83088  0.10856  1.0000
  H   H364      1.0  0.48221  0.62677  0.09018  1.0000
  C   C457      1.0  0.26395  0.76931  0.31841  1.0000
  C   C458      1.0  0.33273  0.91200  0.26594  1.0000
  H   H365      1.0  0.15290  0.67337  0.01134  1.0000
  H   H366      1.0  0.36902  0.85657  0.10085  1.0000
  H   H367      1.0  0.34652  0.70045  0.06654  1.0000
  C   C459      1.0  0.42676  0.86768  0.07117  1.0000
  H   H368      1.0  0.47140  0.93288  0.27464  1.0000
  C   C460      1.0  0.34270  0.82293  0.18718  1.0000
  C   C461      1.0  0.37062  0.81198  0.17727  1.0000
  C   C462      1.0  0.39691  0.81488  0.19346  1.0000
  C   C463      1.0  0.44227  0.89966  0.29506  1.0000
  C   C464      1.0  0.36735  0.84015  0.22967  1.0000
  C   C465      1.0  0.34094  0.83689  0.21336  1.0000
  H   H369      1.0  0.46657  0.89057  0.08852  1.0000
  C   C466      1.0  0.30604  0.92928  0.26928  1.0000
  C   C467      1.0  0.42579  0.57324  0.09340  1.0000
  C   C468      1.0  0.35621  0.83434  0.31773  1.0000
  H   H370      1.0  0.40973  0.86672  0.31016  1.0000
  H   H371      1.0  0.47457  0.74855  0.11077  1.0000
  H   H372      1.0  0.30683  0.95403  0.26707  1.0000
  C   C469      1.0  0.45292  0.58872  0.09967  1.0000
  C   C470      1.0  0.41607  0.68308  0.03830  1.0000
  C   C471      1.0  0.33175  0.87983  0.26817  1.0000
  S   S63       1.0  0.44618  0.98213  0.11039  1.0000
  C   C472      1.0  0.46821  0.77101  0.03773  1.0000
  C   C473      1.0  0.45145  0.91820  0.27272  1.0000
  C   C474      1.0  0.37018  0.98131  0.08492  1.0000
  H   H373      1.0  0.44174  0.93245  0.23059  1.0000
  C   C475      1.0  0.47566  0.68643  0.06741  1.0000
  C   C476      1.0  0.39939  0.88068  0.26783  1.0000
  H   H374      1.0  0.36527  0.52863  0.99359  1.0000
  C   C477      1.0  0.46588  0.82572  0.14059  1.0000
  H   H375      1.0  0.17911  0.96218  0.18242  1.0000
  Fe  Fe31      1.0  0.44502  0.52244  0.99341  1.0000
  C   C478      1.0  0.36614  0.79568  0.28260  1.0000
  H   H376      1.0  0.45523  0.89988  0.31429  1.0000
  C   C479      1.0  0.36169  0.77262  0.30254  1.0000
  Fe  Fe32      1.0  0.44522  0.98357  0.15723  1.0000
  C   C480      1.0  0.41184  0.69634  0.01188  1.0000
  C   C481      1.0  0.44460  0.91853  0.05772  1.0000
  C   C482      1.0  0.99749  0.77860  0.28006  1.0000
  C   C483      1.0  0.41634  0.88092  0.29266  1.0000
  C   C484      1.0  0.14884  0.79335  0.00451  1.0000
  C   C485      1.0  0.99365  0.60921  0.31882  1.0000
  H   H377      1.0  0.10303  0.98345  0.32310  1.0000
  H   H378      1.0  0.13987  0.98712  0.21123  1.0000
  C   C486      1.0  0.17897  0.98706  0.18430  1.0000
  H   H379      1.0  0.31025  0.54309  0.99326  1.0000
  Fe  Fe33      1.0  0.19139  0.66008  0.45995  1.0000
  S   S64       1.0  0.22593  0.64828  0.42701  1.0000
  S   S65       1.0  0.14842  0.63278  0.47198  1.0000
  Fe  Fe34      1.0  0.22833  0.71681  0.48048  1.0000
  S   S66       1.0  0.26470  0.70953  0.44759  1.0000
  Fe  Fe35      1.0  0.22607  0.69955  0.41736  1.0000
  S   S67       1.0  0.21295  0.71699  0.37329  1.0000
  Fe  Fe36      1.0  0.26211  0.65919  0.45938  1.0000
  S   S68       1.0  0.30102  0.63095  0.47900  1.0000
  S   S69       1.0  0.18995  0.71052  0.44956  1.0000
  S   S70       1.0  0.22711  0.66735  0.49309  1.0000
  Fe  Fe37      1.0  0.45214  0.53144  0.48022  1.0000
  S   S71       1.0  0.42007  0.55274  0.44796  1.0000
  C   C487      1.0  0.38662  0.68163  0.54359  1.0000
  S   S72       1.0  0.00709  0.51628  0.34666  1.0000
  S   S73       1.0  0.06161  0.55067  0.39484  1.0000
  C   C488      1.0  0.22565  0.73950  0.34404  1.0000
  C   C489      1.0  0.42814  0.84957  0.56404  1.0000
  C   C490      1.0  0.33400  0.60954  0.46929  1.0000
  C   C491      1.0  0.34295  0.60524  0.44157  1.0000
  C   C492      1.0  0.36934  0.58784  0.43534  1.0000
  C   C493      1.0  0.38723  0.57486  0.45669  1.0000
  C   C494      1.0  0.37839  0.57943  0.48437  1.0000
  C   C495      1.0  0.35180  0.59631  0.49056  1.0000
  H   H380      1.0  0.32952  0.61520  0.42496  1.0000
  H   H381      1.0  0.37597  0.58450  0.41384  1.0000
  H   H382      1.0  0.39205  0.56995  0.50101  1.0000
  H   H383      1.0  0.34491  0.59919  0.51202  1.0000
  C   C496      1.0  0.12416  0.61070  0.44998  1.0000
  C   C497      1.0  0.13054  0.60629  0.42172  1.0000
  C   C498      1.0  0.11106  0.58790  0.40528  1.0000
  C   C499      1.0  0.08494  0.57380  0.41677  1.0000
  C   C500      1.0  0.07861  0.57811  0.44506  1.0000
  C   C501      1.0  0.09809  0.59652  0.46152  1.0000
  H   H384      1.0  0.15059  0.61687  0.41256  1.0000
  H   H385      1.0  0.11630  0.58460  0.38346  1.0000
  H   H386      1.0  0.05893  0.56705  0.45432  1.0000
  H   H387      1.0  0.09307  0.59960  0.48341  1.0000
  S   S74       1.0  0.23670  0.75689  0.51108  1.0000
  C   C502      1.0  0.35188  0.81121  0.33763  1.0000
  H   H388      1.0  0.02889  0.72698  0.36765  1.0000
  H   H389      1.0  0.06231  0.57495  0.33004  1.0000
  S   S75       1.0  0.18638  0.79081  0.63296  1.0000
  C   C503      1.0  0.15424  0.52650  0.44766  1.0000
  H   H390      1.0  0.24953  0.80685  0.54856  1.0000
  H   H391      1.0  0.37126  0.83399  0.63904  1.0000
  C   C504      1.0  0.42762  0.64875  0.50370  1.0000
  H   H392      1.0  0.40035  0.68562  0.48613  1.0000
  C   C505      1.0  0.02073  0.63410  0.35685  1.0000
  H   H393      1.0  0.46892  0.59832  0.46467  1.0000
  H   H394      1.0  0.36047  0.65547  0.51338  1.0000
  C   C506      1.0  0.22352  0.76482  0.54564  1.0000
  C   C507      1.0  0.20280  0.74573  0.55969  1.0000
  C   C508      1.0  0.19230  0.75365  0.58663  1.0000
  C   C509      1.0  0.20267  0.78045  0.60014  1.0000
  C   C510      1.0  0.22373  0.79927  0.58628  1.0000
  C   C511      1.0  0.23391  0.79159  0.55922  1.0000
  H   H395      1.0  0.19456  0.72505  0.54971  1.0000
  H   H396      1.0  0.17575  0.73904  0.59696  1.0000
  H   H397      1.0  0.23116  0.82041  0.59598  1.0000
  C   C512      1.0  0.00495  0.72174  0.37055  1.0000
  C   C513      1.0  0.29794  0.89258  0.61804  1.0000
  C   C514      1.0  0.33212  0.71489  0.55096  1.0000
  C   C515      1.0  0.32106  0.89092  0.59777  1.0000
  C   C516      1.0  0.31171  0.79813  0.52487  1.0000
  H   H398      1.0  0.34940  0.91746  0.56951  1.0000
  C   C517      1.0  0.20152  0.55562  0.44661  1.0000
  C   C518      1.0  0.38534  0.70609  0.56265  1.0000
  H   H399      1.0  0.06892  0.66221  0.43006  1.0000
  H   H400      1.0  0.27601  0.49699  0.49085  1.0000
  C   C519      1.0  0.19412  0.51301  0.41488  1.0000
  H   H401      1.0  0.44380  0.62696  0.42654  1.0000
  C   C520      1.0  0.99481  0.63154  0.33971  1.0000
  C   C521      1.0  0.33325  0.69079  0.53181  1.0000
  H   H402      1.0  0.28098  0.86435  0.50001  1.0000
  C   C522      1.0  0.29355  0.84911  0.51367  1.0000
  H   H403      1.0  0.04362  0.49177  0.46155  1.0000
  H   H404      1.0  0.99321  0.66297  0.48436  1.0000
  H   H405      1.0  0.13166  0.52358  0.45636  1.0000
  Fe  Fe38      1.0  0.48282  0.97669  0.61529  1.0000
  H   H406      1.0  0.06498  0.61450  0.36642  1.0000
  H   H407      1.0  0.31308  0.68473  0.51979  1.0000
  C   C523      1.0  0.43989  0.58120  0.58470  1.0000
  Fe  Fe39      1.0  0.01660  0.52369  0.39230  1.0000
  C   C524      1.0  0.04378  0.59123  0.33219  1.0000
  H   H408      1.0  0.06352  0.68805  0.34326  1.0000
  H   H409      1.0  0.15129  0.49769  0.50482  1.0000
  H   H410      1.0  0.12244  0.67945  0.43122  1.0000
  C   C525      1.0  0.38529  0.58198  0.57701  1.0000
  H   H411      1.0  0.28796  0.97008  0.62010  1.0000
  H   H412      1.0  0.35717  0.53560  0.52677  1.0000
  C   C526      1.0  0.46042  0.68194  0.58068  1.0000
  C   C527      1.0  0.32968  0.82661  0.61552  1.0000
  P   P19       1.0  0.33833  0.85452  0.58874  1.0000
  H   H413      1.0  0.46556  0.61845  0.56719  1.0000
  C   C528      1.0  0.09430  0.50994  0.33127  1.0000
  H   H414      1.0  0.08878  0.87684  0.41997  1.0000
  C   C529      1.0  0.28586  0.92103  0.62581  1.0000
  C   C530      1.0  0.29583  0.81792  0.50715  1.0000
  P   P20       1.0  0.42120  0.65909  0.53967  1.0000
  H   H415      1.0  0.33694  0.79370  0.56295  1.0000
  C   C531      1.0  0.05707  0.86039  0.45100  1.0000
  H   H416      1.0  0.14700  0.70081  0.38889  1.0000
  H   H417      1.0  0.31284  0.77387  0.51992  1.0000
  C   C532      1.0  0.31937  0.94654  0.59295  1.0000
  H   H418      1.0  0.31096  0.72746  0.55385  1.0000
  H   H419      1.0  0.30440  0.88465  0.54282  1.0000
  H   H420      1.0  0.38603  0.82797  0.55228  1.0000
  H   H421      1.0  0.43657  0.90326  0.61487  1.0000
  H   H422      1.0  0.23275  0.72618  0.64414  1.0000
  H   H423      1.0  0.40517  0.71245  0.57478  1.0000
  H   H424      1.0  0.28474  0.80883  0.48871  1.0000
  C   C533      1.0  0.41699  0.62373  0.55930  1.0000
  C   C534      1.0  0.44246  0.87083  0.58154  1.0000
  H   H425      1.0  0.01352  0.59687  0.40226  1.0000
  H   H426      1.0  0.23454  0.54155  0.41599  1.0000
  H   H427      1.0  0.98963  0.60621  0.48844  1.0000
  C   C535      1.0  0.12308  0.69402  0.38838  1.0000
  C   C536      1.0  0.44287  0.60898  0.57027  1.0000
  H   H428      1.0  0.40910  0.54560  0.59843  1.0000
  H   H429      1.0  0.36304  0.57125  0.57921  1.0000
  C   C537      1.0  0.36029  0.67422  0.52819  1.0000
  C   C538      1.0  0.35817  0.72258  0.56633  1.0000
  H   H430      1.0  0.38109  0.89382  0.61940  1.0000
  H   H431      1.0  0.32783  0.96744  0.58337  1.0000
  C   C539      1.0  0.45402  0.61739  0.46952  1.0000
  C   C540      1.0  0.07585  0.68687  0.36280  1.0000
  H   H432      1.0  0.28553  0.81483  0.59829  1.0000
  H   H433      1.0  0.44469  0.67205  0.59566  1.0000
  C   C541      1.0  0.34969  0.82187  0.63793  1.0000
  C   C542      1.0  0.29308  0.79174  0.63710  1.0000
  H   H434      1.0  0.44154  0.83734  0.54865  1.0000
  C   C543      1.0  0.45451  0.67976  0.55198  1.0000
  C   C544      1.0  0.30692  0.86053  0.53805  1.0000
  C   C545      1.0  0.41484  0.66608  0.48191  1.0000
  H   H435      1.0  0.26870  0.92207  0.64208  1.0000
  H   H436      1.0  0.27071  0.78091  0.63714  1.0000
  H   H437      1.0  0.46682  0.87525  0.57966  1.0000
  C   C546      1.0  0.99754  0.64866  0.46634  1.0000
  C   C547      1.0  0.29675  0.94803  0.61348  1.0000
  H   H438      1.0  0.45879  0.61159  0.51358  1.0000
  H   H439      1.0  0.40961  0.67073  0.43745  1.0000
  C   C548      1.0  0.13404  0.51629  0.36599  1.0000
  H   H440      1.0  0.28966  0.87218  0.62857  1.0000
  C   C549      1.0  0.38814  0.60995  0.56282  1.0000
  C   C550      1.0  0.32514  0.80945  0.54923  1.0000
  C   C551      1.0  0.19578  0.50223  0.52356  1.0000
  H   H441      1.0  0.35047  0.76240  0.34528  1.0000
  H   H442      1.0  0.16411  0.56514  0.47432  1.0000
  C   C552      1.0  0.32272  0.84073  0.55612  1.0000
  C   C553      1.0  0.25505  0.75222  0.34226  1.0000
  C   C554      1.0  0.43997  0.63368  0.44799  1.0000
  H   H443      1.0  0.08623  0.50775  0.43123  1.0000
  H   H444      1.0  0.03887  0.87571  0.44461  1.0000
  C   C555      1.0  0.33151  0.91814  0.58512  1.0000
  H   H445      1.0  0.27108  0.74856  0.35906  1.0000
  H   H446      1.0  0.36877  0.69065  0.65507  1.0000
  C   C556      1.0  0.17262  0.55024  0.45798  1.0000
  C   C557      1.0  0.21229  0.53699  0.42508  1.0000
  H   H447      1.0  0.46011  0.56975  0.59259  1.0000
  C   C558      1.0  0.31614  0.51902  0.50695  1.0000
  C   C559      1.0  0.47562  0.69237  0.53301  1.0000
  H   H448      1.0  0.36781  0.62039  0.55438  1.0000
  S   S76       1.0  0.44534  0.53560  0.52623  1.0000
  H   H449      1.0  0.19134  0.52505  0.53165  1.0000
  C   C560      1.0  0.01146  0.64370  0.41749  1.0000
  H   H450      1.0  0.36463  0.50998  0.46448  1.0000
  C   C561      1.0  0.05266  0.84043  0.47351  1.0000
  C   C562      1.0  0.10646  0.69632  0.36363  1.0000
  C   C563      1.0  0.08515  0.86096  0.43708  1.0000
  C   C564      1.0  0.10876  0.84140  0.44549  1.0000
  C   C565      1.0  0.10419  0.82070  0.46760  1.0000
  C   C566      1.0  0.07621  0.82085  0.48196  1.0000
  P   P21       1.0  0.13481  0.79644  0.47973  1.0000
  C   C567      1.0  0.12214  0.75738  0.48500  1.0000
  C   C568      1.0  0.16460  0.79341  0.45384  1.0000
  C   C569      1.0  0.19548  0.79673  0.46116  1.0000
  C   C570      1.0  0.21841  0.79226  0.44126  1.0000
  C   C571      1.0  0.21069  0.78449  0.41393  1.0000
  C   C572      1.0  0.18002  0.78090  0.40652  1.0000
  C   C573      1.0  0.15705  0.78502  0.42644  1.0000
  C   C574      1.0  0.09488  0.74657  0.47299  1.0000
  C   C575      1.0  0.08598  0.71592  0.47660  1.0000
  C   C576      1.0  0.10451  0.69576  0.49166  1.0000
  C   C577      1.0  0.13199  0.70619  0.50309  1.0000
  C   C578      1.0  0.14086  0.73685  0.49970  1.0000
  C   C579      1.0  0.14786  0.81359  0.51184  1.0000
  C   C580      1.0  0.16499  0.84092  0.51117  1.0000
  C   C581      1.0  0.17440  0.85485  0.53600  1.0000
  C   C582      1.0  0.16612  0.84201  0.56163  1.0000
  C   C583      1.0  0.14833  0.81534  0.56247  1.0000
  C   C584      1.0  0.13915  0.80118  0.53772  1.0000
  C   C585      1.0  0.42052  0.65813  0.45417  1.0000
  H   H451      1.0  0.34571  0.81715  0.35881  1.0000
  H   H452      1.0  0.11761  0.70488  0.34497  1.0000
  H   H453      1.0  0.13057  0.84279  0.43488  1.0000
  H   H454      1.0  0.07271  0.80593  0.49979  1.0000
  H   H455      1.0  0.20206  0.80167  0.48238  1.0000
  H   H456      1.0  0.24221  0.79381  0.44731  1.0000
  H   H457      1.0  0.22845  0.78023  0.39864  1.0000
  H   H458      1.0  0.17428  0.77381  0.38550  1.0000
  H   H459      1.0  0.13347  0.78104  0.42060  1.0000
  H   H460      1.0  0.08074  0.76150  0.46045  1.0000
  H   H461      1.0  0.06505  0.70757  0.46725  1.0000
  H   H462      1.0  0.09809  0.67179  0.49387  1.0000
  H   H463      1.0  0.14686  0.69023  0.51390  1.0000
  H   H464      1.0  0.16268  0.74440  0.50800  1.0000
  H   H465      1.0  0.17123  0.85132  0.49145  1.0000
  H   H466      1.0  0.18817  0.87554  0.53541  1.0000
  H   H467      1.0  0.17369  0.85243  0.58095  1.0000
  H   H468      1.0  0.14214  0.80535  0.58242  1.0000
  H   H469      1.0  0.12527  0.78063  0.53900  1.0000
  H   H470      1.0  0.21530  0.57464  0.45417  1.0000
  C   C586      1.0  0.30149  0.81108  0.61512  1.0000
  C   C587      1.0  0.42536  0.88665  0.60144  1.0000
  C   C588      1.0  0.39392  0.88133  0.60380  1.0000
  C   C589      1.0  0.37918  0.86049  0.58589  1.0000
  C   C590      1.0  0.39662  0.84433  0.56620  1.0000
  C   C591      1.0  0.41116  0.56759  0.58793  1.0000
  C   C592      1.0  0.44780  0.62474  0.49727  1.0000
  H   H471      1.0  0.03108  0.84038  0.48463  1.0000
  C   C593      1.0  0.07859  0.67258  0.41154  1.0000
  H   H472      1.0  0.47194  0.69086  0.51076  1.0000
  H   H473      1.0  0.35727  0.74124  0.58122  1.0000
  C   C594      1.0  0.16491  0.50750  0.42612  1.0000
  C   C595      1.0  0.04516  0.61369  0.35293  1.0000
  C   C596      1.0  0.10917  0.68212  0.41228  1.0000
  C   C597      1.0  0.06147  0.67538  0.38687  1.0000
  P   P22       1.0  0.02238  0.66158  0.38501  1.0000
  H   H474      1.0  0.00884  0.91027  0.37111  1.0000
  H   H475      1.0  0.15327  0.52940  0.37363  1.0000
  C   C598      1.0  0.00901  0.61166  0.41989  1.0000
  H   H476      1.0  0.31446  0.53854  0.49292  1.0000
  C   C599      1.0  0.00103  0.59826  0.44540  1.0000
  H   H477      1.0  0.00719  0.68692  0.43936  1.0000
  C   C600      1.0  0.00547  0.66213  0.44085  1.0000
  C   C601      1.0  0.34015  0.51751  0.52606  1.0000
  C   C602      1.0  0.11957  0.52605  0.34153  1.0000
  C   C603      1.0  0.34251  0.49236  0.54402  1.0000
  H   H478      1.0  0.36146  0.49096  0.55853  1.0000
  H   H479      1.0  0.24104  0.50032  0.54060  1.0000
  C   C604      1.0  0.99534  0.69229  0.37889  1.0000
  H   H480      1.0  0.99087  0.76760  0.35926  1.0000
  H   H481      1.0  0.12776  0.54631  0.33071  1.0000
  C   C605      1.0  0.12319  0.49032  0.38040  1.0000
  H   H482      1.0  0.99974  0.57347  0.44717  1.0000
  C   C606      1.0  0.99542  0.61671  0.46864  1.0000
  C   C607      1.0  0.29441  0.49540  0.50586  1.0000
  H   H483      1.0  0.20258  0.49917  0.39780  1.0000
  C   C608      1.0  0.00668  0.89739  0.35191  1.0000
  H   H484      1.0  0.03964  0.86306  0.36360  1.0000
  C   C609      1.0  0.02397  0.87086  0.34766  1.0000
  C   C610      1.0  0.35456  0.78036  0.33003  1.0000
  Fe  Fe40      1.0  0.18666  0.65180  0.93527  1.0000
  S   S77       1.0  0.22945  0.64022  0.91147  1.0000
  S   S78       1.0  0.14319  0.63404  0.91388  1.0000
  Fe  Fe41      1.0  0.22175  0.69475  0.97624  1.0000
  S   S79       1.0  0.26630  0.68527  0.95405  1.0000
  Fe  Fe42      1.0  0.24000  0.69087  0.91375  1.0000
  S   S80       1.0  0.26039  0.72011  0.87820  1.0000
  Fe  Fe43      1.0  0.25172  0.63572  0.95361  1.0000
  S   S81       1.0  0.27685  0.59221  0.96761  1.0000
  S   S82       1.0  0.19640  0.70293  0.93567  1.0000
  S   S83       1.0  0.20810  0.64454  0.97759  1.0000
  C   C611      1.0  0.32356  0.65800  0.71819  1.0000
  S   S84       1.0  0.41870  0.55699  0.96664  1.0000
  C   C612      1.0  0.18510  0.55705  0.90680  1.0000
  C   C613      1.0  0.08855  0.85561  0.80083  1.0000
  H   H485      1.0  0.37449  0.63587  0.66843  1.0000
  Fe  Fe44      1.0  0.21237  0.81396  0.73324  1.0000
  S   S85       1.0  0.17152  0.82643  0.70698  1.0000
  S   S86       1.0  0.20051  0.78011  0.76875  1.0000
  Fe  Fe45      1.0  0.25406  0.85662  0.69781  1.0000
  C   C614      1.0  0.32019  0.68906  0.71082  1.0000
  Fe  Fe46      1.0  0.18780  0.87533  0.70974  1.0000
  S   S87       1.0  0.15952  0.91436  0.72912  1.0000
  S   S88       1.0  0.22763  0.86305  0.73771  1.0000
  S   S89       1.0  0.24164  0.80622  0.69523  1.0000
  Fe  Fe47      1.0  0.00649  0.51251  0.90951  1.0000
  H   H486      1.0  0.34561  0.61501  0.70877  1.0000
  S   S90       1.0  0.04270  0.53092  0.93954  1.0000
  H   H487      1.0  0.98753  0.57458  0.80860  1.0000
  C   C615      1.0  0.07843  0.49763  0.82843  1.0000
  C   C616      1.0  0.02329  0.89396  0.70829  1.0000
  C   C617      1.0  0.09513  0.83181  0.81972  1.0000
  C   C618      1.0  0.17170  0.53039  0.89601  1.0000
  C   C619      1.0  0.06603  0.96054  0.71338  1.0000
  C   C620      1.0  0.08109  0.94499  0.69163  1.0000
  C   C621      1.0  0.10902  0.92958  0.69627  1.0000
  C   C622      1.0  0.12265  0.93022  0.72262  1.0000
  C   C623      1.0  0.10758  0.94581  0.74435  1.0000
  C   C624      1.0  0.07929  0.96051  0.73990  1.0000
  C   C625      1.0  0.20531  0.73122  0.71017  1.0000
  C   C626      1.0  0.35939  0.65069  0.68022  1.0000
  H   H488      1.0  0.11792  0.94660  0.76479  1.0000
  H   H489      1.0  0.32191  0.97859  0.69160  1.0000
  C   C627      1.0  0.24277  0.73737  0.84844  1.0000
  C   C628      1.0  0.21274  0.73062  0.84042  1.0000
  C   C629      1.0  0.20029  0.74405  0.81611  1.0000
  C   C630      1.0  0.21750  0.76456  0.79955  1.0000
  C   C631      1.0  0.24734  0.77169  0.80782  1.0000
  C   C632      1.0  0.25984  0.75815  0.83204  1.0000
  H   H490      1.0  0.19929  0.71469  0.85271  1.0000
  H   H491      1.0  0.17720  0.73828  0.80994  1.0000
  H   H492      1.0  0.26086  0.78755  0.79556  1.0000
  H   H493      1.0  0.28304  0.76367  0.83803  1.0000
  C   C633      1.0  0.31674  0.58425  0.96892  1.0000
  C   C634      1.0  0.33837  0.60274  0.95540  1.0000
  C   C635      1.0  0.36948  0.59420  0.95521  1.0000
  C   C636      1.0  0.37949  0.56748  0.96899  1.0000
  C   C637      1.0  0.33156  0.95631  0.68707  1.0000
  H   H494      1.0  0.09343  0.96998  0.83458  1.0000
  H   H495      1.0  0.33103  0.62325  0.94457  1.0000
  H   H496      1.0  0.38591  0.60837  0.94423  1.0000
  C   C638      1.0  0.99067  0.68301  0.85455  1.0000
  C   C639      1.0  0.04619  0.96431  0.84624  1.0000
  C   C640      1.0  0.11672  0.60398  0.92125  1.0000
  C   C641      1.0  0.09455  0.59669  0.90108  1.0000
  C   C642      1.0  0.07181  0.57447  0.90635  1.0000
  C   C643      1.0  0.07123  0.55880  0.93178  1.0000
  C   C644      1.0  0.09377  0.56557  0.95178  1.0000
  C   C645      1.0  0.11641  0.58806  0.94658  1.0000
  H   H497      1.0  0.09492  0.60835  0.88124  1.0000
  H   H498      1.0  0.05461  0.56956  0.89081  1.0000
  H   H499      1.0  0.09359  0.55349  0.97149  1.0000
  H   H500      1.0  0.13340  0.59320  0.96225  1.0000
  H   H501      1.0  0.18450  0.73678  0.72136  1.0000
  C   C646      1.0  0.18610  0.78231  0.89742  1.0000
  C   C647      1.0  0.21655  0.78271  0.90617  1.0000
  C   C648      1.0  0.22345  0.78156  0.93455  1.0000
  P   P23       1.0  0.13893  0.77694  0.97107  1.0000
  C   C649      1.0  0.16925  0.78107  0.94575  1.0000
  C   C650      1.0  0.16250  0.78115  0.91711  1.0000
  C   C651      1.0  0.29521  0.69369  0.81364  1.0000
  H   H502      1.0  0.03278  0.84236  0.93687  1.0000
  C   C652      1.0  0.07608  0.78669  0.96725  1.0000
  H   H503      1.0  0.20004  0.58070  0.94380  1.0000
  C   C653      1.0  0.16684  0.50980  0.94276  1.0000
  C   C654      1.0  0.10813  0.82494  0.94480  1.0000
  S   S91       1.0  0.00757  0.51677  0.86284  1.0000
  H   H504      1.0  0.12037  0.91792  0.67930  1.0000
  H   H505      1.0  0.18384  0.53900  0.97567  1.0000
  H   H506      1.0  0.07106  0.94487  0.67105  1.0000
  C   C655      1.0  0.27191  0.67188  0.81614  1.0000
  C   C656      1.0  0.08203  0.84095  0.93635  1.0000
  H   H507      1.0  0.23805  0.97672  0.78673  1.0000
  S   S92       1.0  0.30496  0.86599  0.69051  1.0000
  C   C657      1.0  0.14168  0.85522  0.78575  1.0000
  H   H508      1.0  0.17084  0.82212  0.80570  1.0000
  C   C658      1.0  0.05299  0.82981  0.94324  1.0000
  C   C659      1.0  0.01639  0.62411  0.95384  1.0000
  H   H509      1.0  0.18101  0.78214  0.87533  1.0000
  H   H510      1.0  0.23488  0.78298  0.89096  1.0000
  S   S93       1.0  0.21566  0.87217  0.66982  1.0000
  C   C660      1.0  0.16227  0.50658  0.91394  1.0000
  H   H511      1.0  0.13908  0.77980  0.90998  1.0000
  H   H512      1.0  0.31358  0.57353  0.90504  1.0000
  H   H513      1.0  0.03901  0.68844  0.91928  1.0000
  H   H514      1.0  0.23643  0.51335  0.91345  1.0000
  C   C661      1.0  0.08443  0.68102  0.87714  1.0000
  C   C662      1.0  0.30442  0.55048  0.90727  1.0000
  C   C663      1.0  0.31174  0.75122  0.73558  1.0000
  H   H515      1.0  0.25768  0.56559  0.90626  1.0000
  H   H516      1.0  0.23161  0.72638  0.74747  1.0000
  H   H517      1.0  0.29121  0.82572  0.74690  1.0000
  H   H518      1.0  0.99878  0.95295  0.85333  1.0000
  H   H519      1.0  0.10287  0.73432  0.93687  1.0000
  P   P24       1.0  0.29468  0.71384  0.73017  1.0000
  H   H520      1.0  0.38095  0.78768  0.73695  1.0000
  C   C664      1.0  0.20553  0.73126  0.68110  1.0000
  C   C665      1.0  0.02041  0.94541  0.84468  1.0000
  C   C666      1.0  0.30585  0.80597  0.74369  1.0000
  H   H521      1.0  0.35869  0.73575  0.73222  1.0000
  C   C667      1.0  0.05395  0.86499  0.74104  1.0000
  H   H522      1.0  0.26854  0.77404  0.74294  1.0000
  H   H523      1.0  0.09643  0.92052  0.80999  1.0000
  C   C668      1.0  0.05867  0.62156  0.83161  1.0000
  C   C669      1.0  0.25610  0.66207  0.79248  1.0000
  C   C670      1.0  0.28629  0.69687  0.76375  1.0000
  H   H524      1.0  0.35607  0.80017  0.67782  1.0000
  H   H525      1.0  0.23782  0.64539  0.79454  1.0000
  C   C671      1.0  0.00591  0.60676  0.93134  1.0000
  C   C672      1.0  0.23218  0.72526  0.72494  1.0000
  H   H526      1.0  0.08435  0.86219  0.92470  1.0000
  H   H527      1.0  0.31996  0.72371  0.78636  1.0000
  C   C673      1.0  0.10530  0.79738  0.95986  1.0000
  H   H528      1.0  0.10846  0.52749  0.88768  1.0000
  H   H529      1.0  0.99171  0.92616  0.72630  1.0000
  C   C674      1.0  0.25955  0.71896  0.71076  1.0000
  H   H530      1.0  0.16823  0.52861  0.87373  1.0000
  H   H531      1.0  0.30693  0.70168  0.83219  1.0000
  C   C675      1.0  0.10976  0.72566  0.85758  1.0000
  C   C676      1.0  0.02202  0.91720  0.83091  1.0000
  C   C677      1.0  0.02996  0.66551  0.92233  1.0000
  H   H532      1.0  0.31119  0.64831  0.73565  1.0000
  C   C678      1.0  0.26339  0.67432  0.76633  1.0000
  C   C679      1.0  0.34123  0.80248  0.65992  1.0000
  H   H533      1.0  0.00146  0.90342  0.82921  1.0000
  C   C680      1.0  0.08477  0.51887  0.84944  1.0000
  H   H534      1.0  0.34851  0.53016  0.91203  1.0000
  C   C681      1.0  0.33745  0.81000  0.74176  1.0000
  C   C682      1.0  0.11315  0.72144  0.95372  1.0000
  H   H535      1.0  0.34712  0.83291  0.74332  1.0000
  C   C683      1.0  0.30235  0.70627  0.78760  1.0000
  C   C684      1.0  0.33670  0.70066  0.68794  1.0000
  H   H536      1.0  0.13006  0.73984  0.85549  1.0000
  P   P25       1.0  0.02484  0.66248  0.86434  1.0000
  H   H537      1.0  0.09475  0.67809  0.93963  1.0000
  H   H538      1.0  0.29006  0.93152  0.69760  1.0000
  H   H539      1.0  0.03913  0.55926  0.79252  1.0000
  C   C685      1.0  0.29306  0.77667  0.74097  1.0000
  C   C686      1.0  0.35639  0.78455  0.73785  1.0000
  C   C687      1.0  0.02951  0.63027  0.84094  1.0000
  H   H540      1.0  0.04467  0.98642  0.85651  1.0000
  H   H541      1.0  0.26574  0.66315  0.83658  1.0000
  C   C688      1.0  0.04944  0.90759  0.81849  1.0000
  C   C689      1.0  0.12471  0.81977  0.82144  1.0000
  C   C690      1.0  0.14795  0.83149  0.80448  1.0000
  C   C691      1.0  0.32420  0.52569  0.91125  1.0000
  C   C692      1.0  0.05003  0.80276  0.95878  1.0000
  H   H542      1.0  0.13088  0.69410  0.88636  1.0000
  H   H543      1.0  0.08469  0.58934  0.80722  1.0000
  H   H544      1.0  0.99329  0.82052  0.87492  1.0000
  H   H545      1.0  0.25079  0.66662  0.74822  1.0000
  C   C693      1.0  0.06211  0.59608  0.81415  1.0000
  H   H546      1.0  0.05699  0.86049  0.69641  1.0000
  H   H547      1.0  0.30559  0.77414  0.67739  1.0000
  C   C694      1.0  0.02055  0.64774  0.89945  1.0000
  C   C695      1.0  0.34363  0.75520  0.73493  1.0000
  C   C696      1.0  0.02264  0.84534  0.81286  1.0000
  C   C697      1.0  0.11220  0.86736  0.78403  1.0000
  C   C698      1.0  0.01741  0.90241  0.75784  1.0000
  C   C699      1.0  0.31345  0.92965  0.69054  1.0000
  H   H548      1.0  0.08548  0.66090  0.89035  1.0000
  C   C700      1.0  0.18981  0.55992  0.93545  1.0000
  C   C701      1.0  0.08329  0.73274  0.84261  1.0000
  C   C702      1.0  0.00386  0.61327  0.83226  1.0000
  C   C703      1.0  0.18070  0.53631  0.95341  1.0000
  C   C704      1.0  0.04029  0.88068  0.76338  1.0000
  C   C705      1.0  0.25959  0.71929  0.68144  1.0000
  C   C706      1.0  0.26090  0.51653  0.91204  1.0000
  H   H549      1.0  0.15967  0.86414  0.77240  1.0000
  C   C707      1.0  0.99662  0.82230  0.85261  1.0000
  H   H550      1.0  0.36659  0.87642  0.67295  1.0000
  H   H551      1.0  0.07342  0.76610  0.97974  1.0000
  C   C708      1.0  0.23265  0.72537  0.66673  1.0000
  H   H552      1.0  0.19134  0.57587  0.89306  1.0000
  C   C709      1.0  0.04573  0.87193  0.71359  1.0000
  P   P26       1.0  0.05061  0.87207  0.79899  1.0000
  H   H553      1.0  0.10790  0.88582  0.76939  1.0000
  C   C710      1.0  0.11026  0.69987  0.87492  1.0000
  C   C711      1.0  0.13172  0.73617  0.97351  1.0000
  H   H554      1.0  0.08299  0.75255  0.82890  1.0000
  C   C712      1.0  0.10839  0.68968  0.95521  1.0000
  C   C713      1.0  0.36220  0.95432  0.67820  1.0000
  C   C714      1.0  0.05772  0.68783  0.86215  1.0000
  C   C715      1.0  0.00416  0.82781  0.79493  1.0000
  C   C716      1.0  0.32597  0.90063  0.68545  1.0000
  C   C717      1.0  0.34311  0.63895  0.70295  1.0000
  H   H555      1.0  0.07103  0.84750  0.74464  1.0000
  C   C718      1.0  0.01879  0.84229  0.84181  1.0000
  H   H556      1.0  0.24706  0.78043  0.94127  1.0000
  S   S94       1.0  0.38451  0.98846  0.67579  1.0000
  C   C719      1.0  0.42513  0.49507  0.91414  1.0000
  H   H557      1.0  0.01555  0.61453  0.97469  1.0000
  C   C720      1.0  0.31281  0.78773  0.65967  1.0000
  H   H558      1.0  0.06799  0.97227  0.75683  1.0000
  H   H559      1.0  0.38089  0.72062  0.98473  1.0000
  H   H560      1.0  0.00638  0.82983  0.77254  1.0000
  C   C721      1.0  0.07359  0.95505  0.83385  1.0000
  H   H561      1.0  0.11906  0.64774  0.97691  1.0000
  H   H562      1.0  0.12973  0.80126  0.83581  1.0000
  C   C722      1.0  0.19358  0.98272  0.76841  1.0000
  H   H563      1.0  0.13049  0.83416  0.93975  1.0000
  C   C723      1.0  0.32677  0.55754  0.98274  1.0000
  C   C724      1.0  0.35656  0.89871  0.67655  1.0000
  C   C725      1.0  0.05735  0.71394  0.84487  1.0000
  C   C726      1.0  0.07522  0.92684  0.81995  1.0000
  H   H564      1.0  0.07756  0.82236  0.83306  1.0000
  H   H565      1.0  0.17835  0.82882  0.98754  1.0000
  C   C727      1.0  0.35618  0.68155  0.67272  1.0000
  H   H566      1.0  0.03727  0.71973  0.83286  1.0000
  H   H567      1.0  0.19025  0.95840  0.76448  1.0000
  H   H568      1.0  0.07884  0.63419  0.83786  1.0000
  H   H569      1.0  0.06195  0.50303  0.81232  1.0000
  C   C728      1.0  0.27282  0.54599  0.90793  1.0000
  H   H570      1.0  0.03614  0.66706  0.96690  1.0000
  H   H571      1.0  0.07340  0.54092  0.84956  1.0000
  H   H572      1.0  0.03263  0.85575  0.85599  1.0000
  H   H573      1.0  0.02752  0.79440  0.96452  1.0000
  C   C729      1.0  0.00894  0.90891  0.73042  1.0000
  C   C730      1.0  0.35797  0.54930  0.98300  1.0000
  C   C731      1.0  0.03651  0.57916  0.80584  1.0000
  C   C732      1.0  0.12230  0.67242  0.97619  1.0000
  C   C733      1.0  0.02814  0.65360  0.94938  1.0000
  H   H574      1.0  0.00597  0.91446  0.77457  1.0000
  C   C734      1.0  0.10480  0.51120  0.87100  1.0000
  H   H575      1.0  0.01728  0.89989  0.68707  1.0000
  H   H576      1.0  0.33448  0.72449  0.68179  1.0000
  Fe  Fe48      1.0  0.20218  0.82186  0.66913  1.0000
  H   H577      1.0  0.18482  0.73663  0.66969  1.0000
  H   H578      1.0  0.38781  0.50276  0.94217  1.0000
  C   C735      1.0  0.19993  0.78054  0.95426  1.0000
  C   C736      1.0  0.00743  0.58781  0.81485  1.0000
  S   S95       1.0  0.03154  0.98074  0.70608  1.0000
  C   C737      1.0  0.37450  0.92535  0.67268  1.0000
  C   C738      1.0  0.00786  0.61849  0.90427  1.0000
  H   H579      1.0  0.15934  0.49216  0.95713  1.0000
  H   H580      1.0  0.99991  0.60427  0.88732  1.0000
  C   C739      1.0  0.31241  0.49594  0.91515  1.0000
  H   H581      1.0  0.28026  0.71528  0.66976  1.0000
  S   S96       1.0  0.47835  0.97818  0.66211  1.0000
  H   H582      1.0  0.39810  0.92344  0.66617  1.0000
  H   H583      1.0  0.24549  0.97888  0.71973  1.0000
  H   H584      1.0  0.44035  0.51041  0.92534  1.0000
  H   H585      1.0  0.47571  0.59245  0.96852  1.0000
  H   H586      1.0  0.99768  0.67703  0.81017  1.0000
  C   C740      1.0  0.39522  0.49071  0.92361  1.0000
  H   H587      1.0  0.99702  0.58377  0.93479  1.0000
  C   C741      1.0  0.47984  0.61480  0.97775  1.0000
  C   C742      1.0  0.28059  0.49155  0.91547  1.0000
  H   H588      1.0  0.20580  0.77855  0.97607  1.0000
  H   H589      1.0  0.23814  0.98778  0.66921  1.0000
  H   H590      1.0  0.69113  0.26157  0.27983  1.0000
  C   C743      1.0  0.70481  0.15290  0.06161  1.0000
  Fe  Fe49      1.0  0.72081  0.19263  0.23832  1.0000
  S   S97       1.0  0.76455  0.19235  0.21335  1.0000
  S   S98       1.0  0.72645  0.20410  0.28497  1.0000
  Fe  Fe50      1.0  0.68497  0.15954  0.19051  1.0000
  S   S99       1.0  0.72714  0.15674  0.16367  1.0000
  S   S100      1.0  0.64104  0.14419  0.16813  1.0000
  Fe  Fe51      1.0  0.75254  0.14344  0.20285  1.0000
  S   S101      1.0  0.78104  0.09971  0.20906  1.0000
  Fe  Fe52      1.0  0.73538  0.20585  0.17618  1.0000
  S   S102      1.0  0.74443  0.24752  0.14762  1.0000
  S   S103      1.0  0.70955  0.14303  0.22876  1.0000
  S   S104      1.0  0.69239  0.20941  0.20203  1.0000
  H   H591      1.0  0.76125  0.14380  0.10984  1.0000
  C   C744      1.0  0.71989  0.14023  0.03849  1.0000
  S   S105      1.0  0.92363  0.07335  0.22548  1.0000
  Fe  Fe53      1.0  0.50652  0.01895  0.16017  1.0000
  S   S106      1.0  0.54253  0.03802  0.18996  1.0000
  S   S107      1.0  0.51116  0.01969  0.11375  1.0000
  C   C745      1.0  0.61503  0.11339  0.17410  1.0000
  C   C746      1.0  0.59268  0.10697  0.15382  1.0000
  C   C747      1.0  0.57100  0.08329  0.15783  1.0000
  C   C748      1.0  0.57089  0.06631  0.18262  1.0000
  C   C749      1.0  0.59330  0.07267  0.20284  1.0000
  C   C750      1.0  0.61541  0.09588  0.19855  1.0000
  H   H592      1.0  0.59198  0.12058  0.13499  1.0000
  H   H593      1.0  0.55380  0.07884  0.14216  1.0000
  H   H594      1.0  0.59343  0.05971  0.22210  1.0000
  H   H595      1.0  0.63236  0.10063  0.21439  1.0000
  C   C751      1.0  0.82074  0.09362  0.21490  1.0000
  C   C752      1.0  0.84272  0.11628  0.20955  1.0000
  C   C753      1.0  0.87407  0.10959  0.21282  1.0000
  C   C754      1.0  0.88379  0.08057  0.22230  1.0000
  C   C755      1.0  0.86178  0.05819  0.22835  1.0000
  C   C756      1.0  0.83049  0.06457  0.22432  1.0000
  H   H596      1.0  0.83561  0.13860  0.20206  1.0000
  H   H597      1.0  0.89096  0.12697  0.20790  1.0000
  H   H598      1.0  0.86891  0.03575  0.23547  1.0000
  H   H599      1.0  0.81374  0.04679  0.22836  1.0000
  C   C757      1.0  0.74671  0.25876  0.05156  1.0000
  C   C758      1.0  0.75302  0.23011  0.06399  1.0000
  C   C759      1.0  0.75195  0.22626  0.09321  1.0000
  C   C760      1.0  0.74493  0.25103  0.11052  1.0000
  C   C761      1.0  0.73914  0.27983  0.09814  1.0000
  C   C762      1.0  0.73955  0.28359  0.06886  1.0000
  H   H600      1.0  0.75897  0.21077  0.05095  1.0000
  H   H601      1.0  0.75748  0.20440  0.10250  1.0000
  H   H602      1.0  0.73415  0.29934  0.11129  1.0000
  H   H603      1.0  0.73499  0.30585  0.05972  1.0000
  S   S108      1.0  0.94550  0.02962  0.29363  1.0000
  H   H604      1.0  0.52892  0.32600  0.03733  1.0000
  C   C763      1.0  0.71726  0.23442  0.30861  1.0000
  C   C764      1.0  0.69978  0.25992  0.30087  1.0000
  C   C765      1.0  0.63122  0.08545  0.09280  1.0000
  H   H605      1.0  0.65744  0.12406  0.10681  1.0000
  H   H606      1.0  0.93469  0.12662  0.29137  1.0000
  C   C766      1.0  0.91512  0.09456  0.32055  1.0000
  H   H607      1.0  0.54534  0.19332  0.15321  1.0000
  H   H608      1.0  0.89444  0.42499  0.27751  1.0000
  C   C767      1.0  0.69311  0.28318  0.32051  1.0000
  C   C768      1.0  0.48958  0.14415  0.05708  1.0000
  H   H609      1.0  0.60617  0.40558  0.02762  1.0000
  C   C769      1.0  0.58129  0.25334  0.08640  1.0000
  H   H610      1.0  0.79345  0.07359  0.27217  1.0000
  C   C770      1.0  0.79864  0.01116  0.29723  1.0000
  H   H611      1.0  0.63135  0.07451  0.11313  1.0000
  H   H612      1.0  0.96093  0.33848  0.30531  1.0000
  H   H613      1.0  0.62912  0.34716  0.06840  1.0000
  H   H614      1.0  0.70619  0.20190  0.02322  1.0000
  C   C771      1.0  0.78266  0.08582  0.28914  1.0000
  C   C772      1.0  0.82662  0.02599  0.30242  1.0000
  C   C773      1.0  0.56279  0.20130  0.07965  1.0000
  H   H615      1.0  0.54483  0.18945  0.02041  1.0000
  C   C774      1.0  0.63539  0.18658  0.10675  1.0000
  C   C775      1.0  0.81878  0.23528  0.30339  1.0000
  H   H616      1.0  0.70838  0.16298  0.10560  1.0000
  C   C776      1.0  0.53224  0.17269  0.15720  1.0000
  C   C777      1.0  0.49111  0.24266  0.00399  1.0000
  P   P27       1.0  0.66549  0.16477  0.05878  1.0000
  C   C778      1.0  0.75760  0.10452  0.28329  1.0000
  H   H617      1.0  0.93285  0.44240  0.31198  1.0000
  H   H618      1.0  0.67107  0.30910  0.06522  1.0000
  C   C779      1.0  0.76488  0.13108  0.06664  1.0000
  C   C780      1.0  0.74350  0.12115  0.30454  1.0000
  H   H619      1.0  0.67865  0.26437  0.10638  1.0000
  S   S109      1.0  0.49913  0.47216  0.03974  1.0000
  H   H620      1.0  0.76166  0.12042  0.02294  1.0000
  H   H621      1.0  0.96015  0.25197  0.22299  1.0000
  H   H622      1.0  0.60585  0.04903  0.07316  1.0000
  C   C781      1.0  0.65990  0.18369  0.02550  1.0000
  H   H623      1.0  0.58415  0.34275  0.03834  1.0000
  H   H624      1.0  0.68860  0.22649  0.06938  1.0000
  H   H625      1.0  0.56082  0.43754  0.01644  1.0000
  C   C782      1.0  0.51190  0.16089  0.13723  1.0000
  H   H626      1.0  0.56563  0.17911  0.06993  1.0000
  Fe  Fe54      1.0  0.94825  0.03355  0.24717  1.0000
  H   H627      1.0  0.61448  0.20270  0.14463  1.0000
  H   H628      1.0  0.78818  0.12297  0.06860  1.0000
  C   C783      1.0  0.60120  0.32490  0.03741  1.0000
  H   H629      1.0  0.65257  0.48541  0.02954  1.0000
  H   H630      1.0  0.64243  0.25236  0.14449  1.0000
  H   H631      1.0  0.66778  0.26654  0.03128  1.0000
  C   C784      1.0  0.85383  0.01248  0.29300  1.0000
  C   C785      1.0  0.98629  0.19201  0.29514  1.0000
  H   H632      1.0  0.63337  0.12297  0.01955  1.0000
  C   C786      1.0  0.63193  0.11351  0.04033  1.0000
  H   H633      1.0  0.49126  0.40402  0.99484  1.0000
  C   C787      1.0  0.51018  0.26800  0.99938  1.0000
  C   C788      1.0  0.89934  0.35997  0.31690  1.0000
  H   H634      1.0  0.60716  0.07347  0.02639  1.0000
  C   C789      1.0  0.59885  0.30055  0.01831  1.0000
  C   C790      1.0  0.64587  0.23605  0.12775  1.0000
  H   H635      1.0  0.87349  0.37214  0.28022  1.0000
  C   C791      1.0  0.65752  0.48326  0.00754  1.0000
  H   H636      1.0  0.60812  0.00114  0.15038  1.0000
  H   H637      1.0  0.70846  0.13846  0.01855  1.0000
  C   C792      1.0  0.53471  0.09945  0.06440  1.0000
  C   C793      1.0  0.55431  0.23697  0.01068  1.0000
  C   C794      1.0  0.80637  0.21160  0.28699  1.0000
  P   P28       1.0  0.82123  0.27418  0.29016  1.0000
  C   C795      1.0  0.88644  0.19924  0.26905  1.0000
  C   C796      1.0  0.86012  0.28350  0.28009  1.0000
  C   C797      1.0  0.88504  0.27177  0.29518  1.0000
  C   C798      1.0  0.91499  0.27981  0.28790  1.0000
  C   C799      1.0  0.92035  0.29983  0.26565  1.0000
  C   C800      1.0  0.89575  0.31202  0.25079  1.0000
  C   C801      1.0  0.86577  0.30410  0.25808  1.0000
  C   C802      1.0  0.62304  0.27946  0.01644  1.0000
  C   C803      1.0  0.98137  0.14200  0.23400  1.0000
  H   H638      1.0  0.51305  0.07580  0.03029  1.0000
  C   C804      1.0  0.98244  0.25706  0.23154  1.0000
  H   H639      1.0  0.92555  0.20258  0.29561  1.0000
  C   C805      1.0  0.79533  0.27780  0.26102  1.0000
  C   C806      1.0  0.80450  0.26882  0.23417  1.0000
  C   C807      1.0  0.78412  0.27092  0.21181  1.0000
  C   C808      1.0  0.75435  0.28138  0.21616  1.0000
  C   C809      1.0  0.74489  0.28980  0.24286  1.0000
  C   C810      1.0  0.76522  0.28797  0.26524  1.0000
  C   C811      1.0  0.49635  0.13321  0.14286  1.0000
  C   C812      1.0  0.50841  0.36579  0.01878  1.0000
  C   C813      1.0  0.53684  0.15710  0.18236  1.0000
  H   H640      1.0  0.55137  0.08152  0.06794  1.0000
  H   H641      1.0  0.79639  0.21628  0.26683  1.0000
  C   C814      1.0  0.68410  0.20013  0.01312  1.0000
  H   H642      1.0  0.51665  0.24097  0.12411  1.0000
  H   H643      1.0  0.94355  0.30616  0.26009  1.0000
  H   H644      1.0  0.89989  0.32781  0.23369  1.0000
  H   H645      1.0  0.84703  0.31437  0.24667  1.0000
  C   C815      1.0  0.50552  0.38368  0.99475  1.0000
  H   H646      1.0  0.72443  0.13617  0.29975  1.0000
  C   C816      1.0  0.65066  0.30631  0.05267  1.0000
  C   C817      1.0  0.63020  0.20810  0.12783  1.0000
  H   H647      1.0  0.52570  0.11701  0.20683  1.0000
  H   H648      1.0  0.82714  0.25970  0.23054  1.0000
  H   H649      1.0  0.79104  0.26377  0.19110  1.0000
  H   H650      1.0  0.73842  0.28243  0.19888  1.0000
  C   C818      1.0  0.64871  0.28221  0.03361  1.0000
  H   H651      1.0  0.75704  0.29390  0.28583  1.0000
  C   C819      1.0  0.74996  0.12972  0.04094  1.0000
  H   H652      1.0  0.88649  0.13432  0.26561  1.0000
  H   H653      1.0  0.88803  0.19273  0.19848  1.0000
  C   C820      1.0  0.58412  0.22453  0.07394  1.0000
  H   H654      1.0  0.98541  0.23980  0.30773  1.0000
  H   H655      1.0  0.79583  0.16338  0.28412  1.0000
  P   P29       1.0  0.82765  0.06061  0.32314  1.0000
  C   C821      1.0  0.53551  0.23606  0.11016  1.0000
  C   C822      1.0  0.64570  0.11384  0.08917  1.0000
  H   H656      1.0  0.59810  0.27110  0.08219  1.0000
  C   C823      1.0  0.66639  0.24274  0.10631  1.0000
  C   C824      1.0  0.61693  0.07113  0.07029  1.0000
  C   C825      1.0  0.93879  0.19987  0.25211  1.0000
  H   H657      1.0  0.74938  0.10631  0.26210  1.0000
  H   H658      1.0  0.84002  0.10656  0.27919  1.0000
  C   C826      1.0  0.52120  0.12971  0.18781  1.0000
  H   H659      1.0  0.87577  0.02309  0.29707  1.0000
  C   C827      1.0  0.65689  0.19263  0.08563  1.0000
  H   H660      1.0  0.77740  0.02088  0.30469  1.0000
  C   C828      1.0  0.86048  0.10345  0.29148  1.0000
  H   H661      1.0  0.98611  0.30003  0.20927  1.0000
  H   H662      1.0  0.60322  0.22018  0.06014  1.0000
  C   C829      1.0  0.62694  0.32764  0.05454  1.0000
  P   P30       1.0  0.97946  0.19998  0.25867  1.0000
  C   C830      1.0  0.53388  0.12505  0.08192  1.0000
  H   H663      1.0  0.55029  0.12676  0.09876  1.0000
  H   H664      1.0  0.72158  0.29723  0.24632  1.0000
  H   H665      1.0  0.95938  0.13770  0.24368  1.0000
  C   C831      1.0  0.63105  0.18414  0.01268  1.0000
  C   C832      1.0  0.92782  0.19701  0.22473  1.0000
  C   C833      1.0  0.90156  0.40965  0.29408  1.0000
  C   C834      1.0  0.64523  0.12873  0.06313  1.0000
  S   S110      1.0  0.74869  0.26216  0.01452  1.0000
  H   H666      1.0  0.85131  0.19461  0.23780  1.0000
  C   C835      1.0  0.87566  0.19652  0.24177  1.0000
  C   C836      1.0  0.67201  0.22112  0.08540  1.0000
  C   C837      1.0  0.55707  0.25906  0.10461  1.0000
  C   C838      1.0  0.61750  0.08504  0.04401  1.0000
  H   H667      1.0  0.55495  0.28139  0.11439  1.0000
  C   C839      1.0  0.53804  0.20706  0.09754  1.0000
  H   H668      1.0  0.94360  0.19546  0.20736  1.0000
  H   H669      1.0  0.62252  0.16542  0.10740  1.0000
  C   C840      1.0  0.74970  0.14285  0.08989  1.0000
  C   C841      1.0  0.71978  0.15381  0.08740  1.0000
  H   H670      1.0  0.55340  0.16565  0.19728  1.0000
  C   C842      1.0  0.52734  0.33995  0.01868  1.0000
  C   C843      1.0  0.54201  0.26548  0.00294  1.0000
  C   C844      1.0  0.49073  0.11866  0.03940  1.0000
  C   C845      1.0  0.51111  0.14746  0.07855  1.0000
  C   C846      1.0  0.79390  0.08342  0.31643  1.0000
  C   C847      1.0  0.51311  0.09621  0.04319  1.0000
  P   P31       1.0  0.56687  0.29754  0.99439  1.0000
  C   C848      1.0  0.88974  0.37985  0.29569  1.0000
  S   S111      1.0  0.65053  0.37450  0.99419  1.0000
  C   C849      1.0  0.67086  0.45610  0.99792  1.0000
  C   C850      1.0  0.53519  0.21151  0.01483  1.0000
  P   P32       1.0  0.50844  0.17858  0.10325  1.0000
  C   C851      1.0  0.86116  0.08289  0.31405  1.0000
  C   C852      1.0  0.54407  0.33216  0.99467  1.0000
  H   H671      1.0  0.98312  0.09673  0.21602  1.0000
  H   H672      1.0  0.67573  0.43752  0.01232  1.0000
  C   C853      1.0  0.91413  0.11504  0.29817  1.0000
  C   C854      1.0  0.60039  0.41002  0.00609  1.0000
  H   H673      1.0  0.87053  0.19925  0.28627  1.0000
  H   H674      1.0  0.49595  0.37205  0.03747  1.0000
  H   H675      1.0  0.93407  0.27062  0.29960  1.0000
  C   C855      1.0  0.89637  0.19545  0.21961  1.0000
  H   H676      1.0  0.61160  0.17324  0.02259  1.0000
  H   H677      1.0  0.57865  0.23421  0.01304  1.0000
  C   C856      1.0  0.91783  0.20096  0.27426  1.0000
  H   H678      1.0  0.67942  0.30265  0.31425  1.0000
  C   C857      1.0  0.50094  0.11781  0.16809  1.0000
  H   H679      1.0  0.83407  0.33960  0.29854  1.0000
  C   C858      1.0  0.88686  0.11947  0.28369  1.0000
  C   C859      1.0  0.92302  0.41957  0.31361  1.0000
  C   C860      1.0  0.50362  0.21438  0.01153  1.0000
  H   H680      1.0  0.62278  0.26176  0.00074  1.0000
  C   C861      1.0  0.57472  0.42830  0.99982  1.0000
  C   C862      1.0  0.81901  0.33203  0.31498  1.0000
  C   C863      1.0  0.80601  0.18133  0.29678  1.0000
  C   C864      1.0  0.97511  0.32524  0.31930  1.0000
  H   H681      1.0  0.89046  0.33676  0.31757  1.0000
  C   C865      1.0  0.80938  0.30128  0.31645  1.0000
  H   H682      1.0  0.88156  0.25654  0.31267  1.0000
  H   H683      1.0  0.48846  0.23004  0.06837  1.0000
  H   H684      1.0  0.48981  0.09593  0.17192  1.0000
  H   H685      1.0  0.48878  0.19469  0.01460  1.0000
  C   C866      1.0  0.81800  0.17440  0.32298  1.0000
  Fe  Fe55      1.0  0.49986  0.47764  0.99314  1.0000
  Fe  Fe56      1.0  0.77002  0.36069  0.43882  1.0000
  S   S112      1.0  0.72763  0.37701  0.41696  1.0000
  S   S113      1.0  0.81400  0.37836  0.41789  1.0000
  Fe  Fe57      1.0  0.73233  0.31549  0.47572  1.0000
  S   S114      1.0  0.68812  0.32907  0.45495  1.0000
  Fe  Fe58      1.0  0.71419  0.32700  0.41423  1.0000
  S   S115      1.0  0.69423  0.31142  0.37211  1.0000
  Fe  Fe59      1.0  0.70528  0.37760  0.45911  1.0000
  S   S116      1.0  0.67992  0.41901  0.47742  1.0000
  S   S117      1.0  0.75737  0.31045  0.43446  1.0000
  S   S118      1.0  0.74878  0.36436  0.48162  1.0000
  C   C867      1.0  0.96971  0.39860  0.43817  1.0000
  S   S119      1.0  0.54017  0.45802  0.46281  1.0000
  C   C868      1.0  0.51665  0.11828  0.56606  1.0000
  H   H686      1.0  0.58806  0.47834  0.50173  1.0000
  H   H687      1.0  0.57058  0.00419  0.65747  1.0000
  H   H688      1.0  0.81769  0.15094  0.33046  1.0000
  C   C869      1.0  0.61193  0.32350  0.46910  1.0000
  C   C870      1.0  0.64051  0.42822  0.47430  1.0000
  C   C871      1.0  0.62171  0.41407  0.45456  1.0000
  C   C872      1.0  0.59102  0.42332  0.45163  1.0000
  C   C873      1.0  0.57863  0.44661  0.46849  1.0000
  C   C874      1.0  0.59724  0.46040  0.48863  1.0000
  C   C875      1.0  0.62803  0.45127  0.49143  1.0000
  H   H689      1.0  0.63099  0.39645  0.44114  1.0000
  H   H690      1.0  0.57684  0.41253  0.43597  1.0000
  H   H691      1.0  0.60925  0.15507  0.63365  1.0000
  H   H692      1.0  0.64238  0.46239  0.50674  1.0000
  C   C876      1.0  0.84326  0.40574  0.42505  1.0000
  C   C877      1.0  0.84857  0.41765  0.45170  1.0000
  C   C878      1.0  0.87367  0.43751  0.45641  1.0000
  C   C879      1.0  0.89362  0.44581  0.43459  1.0000
  C   C880      1.0  0.88769  0.43455  0.40784  1.0000
  C   C881      1.0  0.86276  0.41468  0.40315  1.0000
  H   H693      1.0  0.83383  0.41096  0.46878  1.0000
  H   H694      1.0  0.87797  0.44602  0.47721  1.0000
  H   H695      1.0  0.90278  0.44036  0.39085  1.0000
  H   H696      1.0  0.85880  0.40592  0.38240  1.0000
  S   S120      1.0  0.72945  0.27485  0.50663  1.0000
  C   C882      1.0  0.83844  0.07257  0.37942  1.0000
  C   C883      1.0  0.94882  0.36440  0.39236  1.0000
  H   H697      1.0  0.76152  0.30726  0.37222  1.0000
  S   S121      1.0  0.72827  0.25418  0.63944  1.0000
  C   C884      1.0  0.56989  0.11913  0.57980  1.0000
  H   H698      1.0  0.72366  0.22065  0.54064  1.0000
  S   S122      1.0  0.50113  0.02512  0.61128  1.0000
  H   H699      1.0  0.76453  0.45025  0.47804  1.0000
  C   C885      1.0  0.64264  0.11933  0.56026  1.0000
  H   H700      1.0  0.62555  0.11518  0.54440  1.0000
  C   C886      1.0  0.61547  0.02288  0.59267  1.0000
  H   H701      1.0  0.49499  0.10621  0.56454  1.0000
  C   C887      1.0  0.72896  0.26983  0.54369  1.0000
  C   C888      1.0  0.73147  0.29444  0.56229  1.0000
  C   C889      1.0  0.73125  0.28911  0.59137  1.0000
  C   C890      1.0  0.72829  0.25919  0.60242  1.0000
  C   C891      1.0  0.72516  0.23462  0.58383  1.0000
  C   C892      1.0  0.72566  0.23993  0.55473  1.0000
  H   H702      1.0  0.73402  0.31753  0.55430  1.0000
  H   H703      1.0  0.73349  0.30835  0.60547  1.0000
  H   H704      1.0  0.72279  0.21149  0.59184  1.0000
  H   H705      1.0  0.64590  0.23929  0.47974  1.0000
  C   C893      1.0  0.70171  0.02951  0.64500  1.0000
  H   H706      1.0  0.49268  0.27651  0.65191  1.0000
  C   C894      1.0  0.57686  0.37029  0.55295  1.0000
  H   H707      1.0  0.49311  0.20341  0.59643  1.0000
  H   H708      1.0  0.98485  0.15098  0.64790  1.0000
  C   C895      1.0  0.55419  0.36153  0.57215  1.0000
  C   C896      1.0  0.68807  0.13035  0.59990  1.0000
  H   H709      1.0  0.51750  0.09229  0.63467  1.0000
  H   H710      1.0  0.58858  0.16952  0.51579  1.0000
  C   C897      1.0  0.66744  0.09926  0.56263  1.0000
  H   H711      1.0  0.74309  0.13153  0.34828  1.0000
  H   H712      1.0  0.65556  0.28320  0.64481  1.0000
  H   H713      1.0  0.72935  0.25385  0.37712  1.0000
  C   C898      1.0  0.92069  0.36993  0.33680  1.0000
  C   C899      1.0  0.79763  0.48521  0.42213  1.0000
  H   H714      1.0  0.66255  0.17028  0.61118  1.0000
  C   C900      1.0  0.52593  0.37658  0.57242  1.0000
  C   C901      1.0  0.91141  0.28522  0.37534  1.0000
  C   C902      1.0  0.82955  0.05048  0.35967  1.0000
  C   C903      1.0  0.97829  0.37737  0.39227  1.0000
  H   H715      1.0  0.77877  0.43997  0.42907  1.0000
  H   H716      1.0  0.84393  0.09580  0.37295  1.0000
  C   C904      1.0  0.78328  0.46242  0.43806  1.0000
  H   H717      1.0  0.58889  0.10763  0.58974  1.0000
  H   H718      1.0  0.58702  0.39960  0.51754  1.0000
  Fe  Fe60      1.0  0.50830  0.48904  0.48792  1.0000
  H   H719      1.0  0.66928  0.07964  0.54888  1.0000
  H   H720      1.0  0.83857  0.19254  0.36024  1.0000
  C   C905      1.0  0.93002  0.36858  0.41580  1.0000
  C   C906      1.0  0.54213  0.10342  0.57721  1.0000
  H   H721      1.0  0.60564  0.19927  0.47480  1.0000
  C   C907      1.0  0.61793  0.19370  0.54487  1.0000
  H   H722      1.0  0.81634  0.00277  0.35392  1.0000
  H   H723      1.0  0.49569  0.41244  0.46363  1.0000
  C   C908      1.0  0.57033  0.39332  0.53329  1.0000
  C   C909      1.0  0.58928  0.24152  0.62805  1.0000
  C   C910      1.0  0.77794  0.31403  0.35647  1.0000
  C   C911      1.0  0.87619  0.32796  0.37815  1.0000
  C   C912      1.0  0.94052  0.38555  0.43859  1.0000
  H   H724      1.0  0.61709  0.08441  0.63020  1.0000
  H   H725      1.0  0.59188  0.28307  0.45086  1.0000
  H   H726      1.0  0.80422  0.47955  0.40105  1.0000
  P   P33       1.0  0.60801  0.17049  0.57474  1.0000
  H   H727      1.0  0.70918  0.08908  0.58466  1.0000
  C   C913      1.0  0.93252  0.39986  0.33491  1.0000
  C   C914      1.0  0.70387  0.28145  0.34815  1.0000
  C   C915      1.0  0.78765  0.34455  0.35492  1.0000
  C   C916      1.0  0.66333  0.15045  0.59760  1.0000
  C   C917      1.0  0.61767  0.33804  0.60761  1.0000
  C   C918      1.0  0.58680  0.28339  0.49560  1.0000
  C   C919      1.0  0.59648  0.29539  0.47002  1.0000
  C   C920      1.0  0.64566  0.29503  0.62704  1.0000
  C   C921      1.0  0.61823  0.33941  0.49373  1.0000
  C   C922      1.0  0.60903  0.32724  0.51952  1.0000
  C   C923      1.0  0.59283  0.29936  0.52026  1.0000
  H   H728      1.0  0.54002  0.07996  0.58461  1.0000
  C   C924      1.0  0.64495  0.37552  0.54802  1.0000
  C   C925      1.0  0.66821  0.42568  0.55504  1.0000
  C   C926      1.0  0.69684  0.41354  0.54840  1.0000
  C   C927      1.0  0.69964  0.38241  0.54186  1.0000
  C   C928      1.0  0.67381  0.36349  0.54144  1.0000
  C   C929      1.0  0.60414  0.99588  0.60512  1.0000
  C   C930      1.0  0.60404  0.17927  0.63189  1.0000
  H   H729      1.0  0.92558  0.38948  0.45625  1.0000
  H   H730      1.0  0.71683  0.42823  0.54804  1.0000
  H   H731      1.0  0.72184  0.37295  0.53692  1.0000
  H   H732      1.0  0.67649  0.33940  0.53628  1.0000
  C   C931      1.0  0.59934  0.03702  0.57102  1.0000
  H   H733      1.0  0.98380  0.30629  0.38780  1.0000
  C   C932      1.0  0.64101  0.21602  0.54730  1.0000
  H   H734      1.0  0.70553  0.13458  0.61546  1.0000
  C   C933      1.0  0.62226  0.32657  0.58059  1.0000
  H   H735      1.0  0.55946  0.03503  0.54465  1.0000
  C   C934      1.0  0.54673  0.16462  0.55983  1.0000
  H   H736      1.0  0.66603  0.44982  0.56000  1.0000
  C   C935      1.0  0.61512  0.20424  0.49516  1.0000
  H   H737      1.0  0.62995  0.36135  0.49254  1.0000
  H   H738      1.0  0.62058  0.41645  0.56101  1.0000
  H   H739      1.0  0.93375  0.27587  0.37094  1.0000
  H   H740      1.0  0.49880  0.16051  0.54958  1.0000
  H   H741      1.0  0.83110  0.31725  0.39337  1.0000
  C   C936      1.0  0.63997  0.14461  0.57826  1.0000
  C   C937      1.0  0.57269  0.14953  0.57021  1.0000
  H   H742      1.0  0.59205  0.23558  0.58373  1.0000
  C   C938      1.0  0.72782  0.23254  0.33630  1.0000
  C   C939      1.0  0.64236  0.40670  0.55515  1.0000
  C   C940      1.0  0.54209  0.40828  0.53362  1.0000
  H   H743      1.0  0.94952  0.40798  0.34950  1.0000
  C   C941      1.0  0.60236  0.19329  0.60563  1.0000
  C   C942      1.0  0.84043  0.06477  0.40764  1.0000
  C   C943      1.0  0.51886  0.14894  0.55760  1.0000
  C   C944      1.0  0.88833  0.26536  0.38469  1.0000
  H   H744      1.0  0.90705  0.35949  0.41657  1.0000
  H   H745      1.0  0.55803  0.34283  0.58658  1.0000
  H   H746      1.0  0.84166  0.26177  0.39914  1.0000
  H   H747      1.0  0.60644  0.35991  0.61075  1.0000
  H   H748      1.0  0.58456  0.29019  0.53986  1.0000
  H   H749      1.0  0.74122  0.21289  0.34263  1.0000
  H   H750      1.0  0.57448  0.26179  0.49627  1.0000
  P   P34       1.0  0.61267  0.34989  0.55069  1.0000
  H   H751      1.0  0.93661  0.09033  0.33115  1.0000
  H   H752      1.0  0.65222  0.21994  0.56711  1.0000
  H   H753      1.0  0.54800  0.18853  0.55365  1.0000
  H   H754      1.0  0.61908  0.33304  0.44923  1.0000
  H   H755      1.0  0.81598  0.37723  0.33332  1.0000
  C   C945      1.0  0.57714  0.07110  0.65395  1.0000
  C   C946      1.0  0.52883  0.13954  0.64335  1.0000
  H   H756      1.0  0.83541  0.02874  0.43820  1.0000
  C   C947      1.0  0.90562  0.31680  0.37238  1.0000
  H   H757      1.0  0.78032  0.26912  0.33847  1.0000
  H   H758      1.0  0.77887  0.36123  0.36962  1.0000
  H   H759      1.0  0.87107  0.35219  0.37611  1.0000
  H   H760      1.0  0.89305  0.24113  0.38749  1.0000
  C   C948      1.0  0.65066  0.23262  0.52391  1.0000
  H   H761      1.0  0.63668  0.03317  0.59956  1.0000
  P   P35       1.0  0.93563  0.34325  0.36222  1.0000
  H   H762      1.0  0.66876  0.24957  0.52572  1.0000
  C   C949      1.0  0.83017  0.22817  0.32996  1.0000
  C   C950      1.0  0.51996  0.40008  0.55329  1.0000
  C   C951      1.0  0.60530  0.18762  0.51853  1.0000
  C   C952      1.0  0.59434  0.22444  0.60378  1.0000
  C   C953      1.0  0.65047  0.28362  0.60024  1.0000
  C   C954      1.0  0.63906  0.29937  0.57708  1.0000
  C   C955      1.0  0.63781  0.22671  0.49786  1.0000
  C   C956      1.0  0.85335  0.30814  0.38783  1.0000
  C   C957      1.0  0.57194  0.02425  0.56152  1.0000
  C   C958      1.0  0.72121  0.25583  0.35593  1.0000
  H   H763      1.0  0.51008  0.36069  0.48041  1.0000
  C   C959      1.0  0.83370  0.03485  0.41635  1.0000
  H   H764      1.0  0.60816  0.05777  0.56150  1.0000
  C   C960      1.0  0.69002  0.10464  0.58263  1.0000
  H   H765      1.0  0.49809  0.41179  0.55356  1.0000
  C   C961      1.0  0.85940  0.27690  0.39122  1.0000
  H   H766      1.0  0.56760  0.05718  0.63745  1.0000
  H   H767      1.0  0.64474  0.29109  0.55647  1.0000
  H   H768      1.0  0.78685  0.09810  0.35919  1.0000
  C   C962      1.0  0.75416  0.11858  0.33187  1.0000
  H   H769      1.0  0.53731  0.42615  0.51846  1.0000
  C   C963      1.0  0.96822  0.32329  0.34783  1.0000
  H   H770      1.0  0.66419  0.26317  0.59749  1.0000
  H   H771      1.0  0.84735  0.08187  0.42278  1.0000
  C   C964      1.0  0.88887  0.07818  0.32824  1.0000
  S   S123      1.0  0.92639  0.46892  0.44184  1.0000
  C   C965      1.0  0.82988  0.19784  0.33967  1.0000
  H   H772      1.0  0.72378  0.03284  0.63516  1.0000
  H   H773      1.0  0.50844  0.36993  0.58728  1.0000
  Fe  Fe61      1.0  0.95836  0.48719  0.40787  1.0000
  C   C966      1.0  0.82287  0.02044  0.36861  1.0000
  C   C967      1.0  0.78877  0.29244  0.33737  1.0000
  H   H774      1.0  0.68769  0.99426  0.61650  1.0000
  C   C968      1.0  0.62909  0.32214  0.63075  1.0000
  C   C969      1.0  0.77554  0.46811  0.46579  1.0000
  C   C970      1.0  0.50885  0.11536  0.63747  1.0000
  H   H775      1.0  0.58353  0.26565  0.62661  1.0000
  H   H776      1.0  0.83911  0.24615  0.34317  1.0000
  H   H777      1.0  0.89055  0.06125  0.34473  1.0000
  C   C971      1.0  0.68127  0.00756  0.63463  1.0000
  C   C972      1.0  0.60514  0.08671  0.64982  1.0000
  S   S124      1.0  0.94645  0.47854  0.36332  1.0000
  C   C973      1.0  0.80847  0.35351  0.33437  1.0000
  H   H778      1.0  0.97432  0.09486  0.64957  1.0000
  C   C974      1.0  0.59951  0.19645  0.65609  1.0000
  C   C975      1.0  0.65246  0.00346  0.64713  1.0000
  C   C976      1.0  0.56047  0.99755  0.57388  1.0000
  H   H779      1.0  0.62614  0.33138  0.65153  1.0000
  C   C977      1.0  0.82496  0.01271  0.39684  1.0000
  H   H780      1.0  0.55312  0.13516  0.64506  1.0000
  H   H781      1.0  0.97728  0.41265  0.45546  1.0000
  C   C978      1.0  0.59233  0.22764  0.65419  1.0000
  C   C979      1.0  0.77913  0.09963  0.33789  1.0000
  Fe  Fe62      1.0  0.49442  0.02760  0.65750  1.0000
  H   H782      1.0  0.69485  0.47833  0.44897  1.0000
  H   H783      1.0  0.53333  0.18765  0.65142  1.0000
  C   C980      1.0  0.51740  0.16917  0.64735  1.0000
  Fe  Fe63      1.0  0.75088  0.35312  0.94207  1.0000
  S   S125      1.0  0.70288  0.35271  0.92418  1.0000
  S   S126      1.0  0.78281  0.38605  0.91812  1.0000
  C   C981      1.0  0.92926  0.23270  0.84189  1.0000
  S   S127      1.0  0.68719  0.29783  0.96843  1.0000
  Fe  Fe64      1.0  0.70690  0.30099  0.92505  1.0000
  S   S128      1.0  0.69461  0.26202  0.89465  1.0000
  Fe  Fe65      1.0  0.68731  0.34954  0.96894  1.0000
  H   H784      1.0  0.87866  0.40442  0.97062  1.0000
  S   S129      1.0  0.75527  0.30159  0.94081  1.0000
  C   C982      1.0  0.51232  0.21937  0.69721  1.0000
  H   H785      1.0  0.97938  0.39536  0.89343  1.0000
  S   S130      1.0  0.53369  0.45549  0.96295  1.0000
  Fe  Fe66      1.0  0.69498  0.20978  0.73128  1.0000
  S   S131      1.0  0.74180  0.21922  0.71412  1.0000
  S   S132      1.0  0.67386  0.24250  0.76366  1.0000
  Fe  Fe67      1.0  0.68404  0.15770  0.68843  1.0000
  H   H786      1.0  0.75898  0.25748  0.87206  1.0000
  Fe  Fe68      1.0  0.74784  0.16764  0.71378  1.0000
  S   S133      1.0  0.78971  0.14876  0.73733  1.0000
  S   S134      1.0  0.70135  0.15829  0.73278  1.0000
  S   S135      1.0  0.67363  0.20833  0.68830  1.0000
  Fe  Fe69      1.0  0.93417  0.02936  0.74649  1.0000
  S   S136      1.0  0.93613  0.02381  0.79326  1.0000
  S   S137      1.0  0.89459  0.04772  0.71959  1.0000
  Fe  Fe70      1.0  0.72104  0.21480  0.67112  1.0000
  C   C983      1.0  0.85291  0.22253  0.69470  1.0000
  S   S138      1.0  0.91650  0.44339  0.93672  1.0000
  C   C984      1.0  0.77232  0.23388  0.90929  1.0000
  C   C985      1.0  0.57500  0.09130  0.70076  1.0000
  C   C986      1.0  0.60277  0.10723  0.69649  1.0000
  H   H787      1.0  0.56356  0.09298  0.72070  1.0000
  H   H788      1.0  0.61255  0.12090  0.71308  1.0000
  C   C987      1.0  0.81758  0.11943  0.73203  1.0000
  C   C988      1.0  0.82188  0.10492  0.70633  1.0000
  C   C989      1.0  0.84548  0.08307  0.70300  1.0000
  C   C990      1.0  0.86513  0.07541  0.72521  1.0000
  C   C991      1.0  0.86078  0.08992  0.75090  1.0000
  C   C992      1.0  0.83710  0.11165  0.75424  1.0000
  H   H789      1.0  0.55442  0.25268  0.94933  1.0000
  C   C993      1.0  0.87965  0.23883  0.70082  1.0000
  H   H790      1.0  0.87550  0.08421  0.76822  1.0000
  H   H791      1.0  0.83375  0.12247  0.77424  1.0000
  C   C994      1.0  0.69252  0.25954  0.85753  1.0000
  C   C995      1.0  0.67464  0.27983  0.84187  1.0000
  C   C996      1.0  0.66938  0.27429  0.81325  1.0000
  C   C997      1.0  0.68255  0.24890  0.79960  1.0000
  C   C998      1.0  0.70106  0.22902  0.81510  1.0000
  C   C999      1.0  0.70548  0.23399  0.84393  1.0000
  H   H792      1.0  0.66392  0.29918  0.85201  1.0000
  H   H793      1.0  0.65486  0.28972  0.80160  1.0000
  H   H794      1.0  0.71109  0.20920  0.80508  1.0000
  H   H795      1.0  0.71862  0.21759  0.85587  1.0000
  C   C1000     1.0  0.95052  0.09711  0.68872  1.0000
  C   C1001     1.0  0.61088  0.40342  0.95703  1.0000
  C   C1002     1.0  0.58518  0.42171  0.95075  1.0000
  C   C1003     1.0  0.56686  0.43412  0.97207  1.0000
  C   C1004     1.0  0.87029  0.31290  0.83411  1.0000
  C   C1005     1.0  0.62725  0.19838  0.98670  1.0000
  H   H796      1.0  0.62467  0.39395  0.94043  1.0000
  H   H797      1.0  0.57926  0.42601  0.92922  1.0000
  H   H798      1.0  0.87846  0.17575  0.77295  1.0000
  C   C1006     1.0  0.62217  0.30422  0.92586  1.0000
  C   C1007     1.0  0.82025  0.40126  0.92364  1.0000
  C   C1008     1.0  0.83363  0.41977  0.90278  1.0000
  C   C1009     1.0  0.86303  0.43274  0.90627  1.0000
  C   C1010     1.0  0.87949  0.42738  0.93078  1.0000
  C   C1011     1.0  0.86621  0.40871  0.95154  1.0000
  C   C1012     1.0  0.83684  0.39568  0.94802  1.0000
  H   H799      1.0  0.82112  0.42420  0.88378  1.0000
  H   H800      1.0  0.87284  0.44701  0.89007  1.0000
  H   H801      1.0  0.90459  0.23420  0.84040  1.0000
  H   H802      1.0  0.82695  0.38157  0.96429  1.0000
  H   H803      1.0  0.67441  0.47262  0.92875  1.0000
  C   C1013     1.0  0.65186  0.21348  0.97398  1.0000
  H   H804      1.0  0.88147  0.26286  0.69509  1.0000
  H   H805      1.0  0.69905  0.22719  0.97800  1.0000
  H   H806      1.0  0.94715  0.09644  0.81247  1.0000
  C   C1014     1.0  0.81936  0.22600  0.82238  1.0000
  H   H807      1.0  0.75293  0.44776  0.94327  1.0000
  H   H808      1.0  0.62425  0.27501  0.88976  1.0000
  H   H809      1.0  0.55339  0.34497  0.95173  1.0000
  H   H810      1.0  0.80725  0.11071  0.68896  1.0000
  H   H811      1.0  0.83389  0.23387  0.68450  1.0000
  H   H812      1.0  0.92736  0.10578  0.72723  1.0000
  S   S139      1.0  0.98237  0.04795  0.74246  1.0000
  C   C1015     1.0  0.94679  0.14756  0.70994  1.0000
  C   C1016     1.0  0.92145  0.15167  0.76787  1.0000
  H   H813      1.0  0.92501  0.23681  0.71748  1.0000
  S   S140      1.0  0.52743  0.05269  0.68682  1.0000
  H   H814      1.0  0.54507  0.22435  0.73047  1.0000
  C   C1017     1.0  0.88532  0.14288  0.80560  1.0000
  H   H815      1.0  0.58044  0.24263  0.90466  1.0000
  C   C1018     1.0  0.98137  0.24182  0.77481  1.0000
  C   C1019     1.0  0.56200  0.07307  0.67963  1.0000
  C   C1020     1.0  0.61819  0.10477  0.67108  1.0000
  C   C1021     1.0  0.60780  0.30994  0.95136  1.0000
  H   H816      1.0  0.96285  0.12443  0.77010  1.0000
  H   H817      1.0  0.64903  0.22481  0.95396  1.0000
  H   H818      1.0  0.91300  0.36808  0.86614  1.0000
  C   C1022     1.0  0.61251  0.27978  0.90921  1.0000
  H   H819      1.0  0.93997  0.37970  0.92783  1.0000
  C   C1023     1.0  0.83186  0.25299  0.89684  1.0000
  C   C1024     1.0  0.82051  0.20651  0.79923  1.0000
  H   H820      1.0  0.65819  0.05870  0.69729  1.0000
  S   S141      1.0  0.94565  0.47407  0.86194  1.0000
  H   H821      1.0  0.60523  0.19794  0.97639  1.0000
  Fe  Fe71      1.0  0.98520  0.04013  0.78870  1.0000
  H   H822      1.0  0.93409  0.22990  0.76914  1.0000
  C   C1025     1.0  0.77796  0.25141  0.88540  1.0000
  P   P36       1.0  0.93327  0.17258  0.73720  1.0000
  C   C1026     1.0  0.98065  0.31787  0.88248  1.0000
  C   C1027     1.0  0.53348  0.23564  0.71332  1.0000
  H   H823      1.0  0.81803  0.18187  0.80181  1.0000
  H   H824      1.0  0.77108  0.48834  0.97557  1.0000
  H   H825      1.0  0.70819  0.35553  0.82740  1.0000
  C   C1028     1.0  0.68012  0.21472  0.98742  1.0000
  C   C1029     1.0  0.96671  0.10964  0.66633  1.0000
  C   C1030     1.0  0.66995  0.47578  0.95077  1.0000
  H   H826      1.0  0.96693  0.18462  0.68599  1.0000
  C   C1031     1.0  0.53973  0.26645  0.70736  1.0000
  H   H827      1.0  0.62198  0.02030  0.67942  1.0000
  C   C1032     1.0  0.94101  0.12967  0.77965  1.0000
  H   H828      1.0  0.83237  0.32246  0.89570  1.0000
  H   H829      1.0  0.97645  0.26210  0.78704  1.0000
  C   C1033     1.0  0.77135  0.46990  0.90680  1.0000
  C   C1034     1.0  0.58797  0.26143  0.91776  1.0000
  C   C1035     1.0  0.82348  0.27014  0.79174  1.0000
  H   H830      1.0  0.76380  0.27796  0.80761  1.0000
  Fe  Fe72      1.0  0.94785  0.47231  0.90856  1.0000
  H   H831      1.0  0.76394  0.45170  0.89293  1.0000
  C   C1036     1.0  0.58345  0.29132  0.96034  1.0000
  C   C1037     1.0  0.94633  0.25819  0.85062  1.0000
  H   H832      1.0  0.84460  0.22997  0.93493  1.0000
  C   C1038     1.0  0.95886  0.30905  0.90248  1.0000
  C   C1039     1.0  0.96390  0.19729  0.74870  1.0000
  H   H833      1.0  0.74314  0.36923  0.86630  1.0000
  C   C1040     1.0  0.89402  0.33400  0.83849  1.0000
  C   C1041     1.0  0.57335  0.26721  0.94317  1.0000
  C   C1042     1.0  0.79628  0.22637  0.92725  1.0000
  H   H834      1.0  0.91127  0.33757  0.82260  1.0000
  H   H835      1.0  0.79163  0.21358  0.94619  1.0000
  C   C1043     1.0  0.95749  0.22367  0.76448  1.0000
  C   C1044     1.0  0.76515  0.46763  0.93527  1.0000
  C   C1045     1.0  0.94402  0.20528  0.83491  1.0000
  C   C1046     1.0  0.94412  0.33130  0.91867  1.0000
  H   H836      1.0  0.93460  0.27942  0.85536  1.0000
  H   H837      1.0  0.92717  0.32453  0.93399  1.0000
  H   H838      1.0  0.82324  0.20359  0.75456  1.0000
  H   H839      1.0  0.87334  0.15223  0.71913  1.0000
  H   H840      1.0  0.86364  0.14771  0.81554  1.0000
  S   S142      1.0  0.73494  0.35285  0.98694  1.0000
  C   C1047     1.0  0.97265  0.14119  0.66545  1.0000
  H   H841      1.0  0.81620  0.21589  0.84280  1.0000
  H   H842      1.0  0.82317  0.29477  0.78835  1.0000
  C   C1048     1.0  0.76054  0.29845  0.81998  1.0000
  C   C1049     1.0  0.90450  0.12038  0.81671  1.0000
  C   C1050     1.0  0.84726  0.30893  0.85427  1.0000
  C   C1051     1.0  0.82333  0.21877  0.77246  1.0000
  C   C1052     1.0  0.78102  0.30657  0.84135  1.0000
  C   C1053     1.0  0.87518  0.17655  0.71449  1.0000
  H   H843      1.0  0.85508  0.25996  0.89221  1.0000
  H   H844      1.0  0.89775  0.10774  0.83521  1.0000
  H   H845      1.0  0.58936  0.24101  0.67301  1.0000
  C   C1054     1.0  0.89374  0.15854  0.78127  1.0000
  H   H846      1.0  0.61593  0.32867  0.96425  1.0000
  H   H847      1.0  0.83023  0.17854  0.69629  1.0000
  C   C1055     1.0  0.90419  0.22402  0.71384  1.0000
  C   C1056     1.0  0.85081  0.19135  0.70133  1.0000
  C   C1057     1.0  0.89512  0.35111  0.86306  1.0000
  H   H848      1.0  0.71943  0.31021  0.79787  1.0000
  H   H849      1.0  0.52971  0.30491  0.68065  1.0000
  C   C1058     1.0  0.61857  0.39743  0.98478  1.0000
  C   C1059     1.0  0.72855  0.34206  0.83117  1.0000
  H   H850      1.0  0.95353  0.28502  0.90583  1.0000
  H   H851      1.0  0.74911  0.22690  0.91424  1.0000
  C   C1060     1.0  0.73487  0.31653  0.81457  1.0000
  H   H852      1.0  0.93091  0.18552  0.82813  1.0000
  C   C1061     1.0  0.90181  0.19289  0.72135  1.0000
  C   C1062     1.0  0.87297  0.34658  0.88362  1.0000
  C   C1063     1.0  0.82072  0.25807  0.81883  1.0000
  C   C1064     1.0  0.74817  0.34976  0.85300  1.0000
  C   C1065     1.0  0.93235  0.11391  0.80381  1.0000
  H   H853      1.0  0.82626  0.25995  0.74782  1.0000
  C   C1066     1.0  0.82499  0.25055  0.76870  1.0000
  C   C1067     1.0  0.95138  0.36240  0.91531  1.0000
  C   C1068     1.0  0.80770  0.26138  0.87915  1.0000
  H   H854      1.0  0.87378  0.35992  0.90270  1.0000
  C   C1069     1.0  0.82608  0.23577  0.92094  1.0000
  C   C1070     1.0  0.77427  0.33217  0.85805  1.0000
  H   H855      1.0  0.55609  0.27903  0.71995  1.0000
  H   H856      1.0  0.87000  0.30018  0.81486  1.0000
  H   H857      1.0  0.64122  0.31840  0.91919  1.0000
  P   P37       1.0  0.81483  0.28371  0.84808  1.0000
  H   H858      1.0  0.78868  0.33854  0.87530  1.0000
  C   C1071     1.0  0.94042  0.11597  0.71041  1.0000
  C   C1072     1.0  0.84930  0.32546  0.87939  1.0000
  H   H859      1.0  0.84861  0.07205  0.68302  1.0000
  C   C1073     1.0  0.66484  0.04390  0.68017  1.0000
  H   H860      1.0  0.50774  0.19548  0.70218  1.0000
  C   C1074     1.0  0.97828  0.25621  0.85281  1.0000
  C   C1075     1.0  0.52147  0.37565  0.97062  1.0000
  Fe  Fe73      1.0  0.73521  0.30098  0.98430  1.0000
  C   C1076     1.0  0.52492  0.28097  0.68518  1.0000
  S   S143      1.0  0.73114  0.16396  0.66932  1.0000
  H   H861      1.0  0.51940  0.38978  0.95209  1.0000
  H   H862      1.0  0.60199  0.18553  0.67631  1.0000
  C   C1077     1.0  0.49734  0.23374  0.67481  1.0000
  C   C1078     1.0  0.54094  0.35024  0.97059  1.0000
  H   H863      1.0  0.94545  0.07270  0.68918  1.0000
  H   H864      1.0  0.97297  0.33289  0.82376  1.0000
  H   H865      1.0  0.70885  0.06542  0.67532  1.0000
  C   C1079     1.0  0.97586  0.20342  0.83629  1.0000
  C   C1080     1.0  0.69344  0.04775  0.66770  1.0000
  H   H866      1.0  0.68660  0.43084  0.96221  1.0000
  S   S144      1.0  0.65421  0.12272  0.66492  1.0000
  C   C1081     1.0  0.64433  0.02200  0.66989  1.0000
  C   C1082     1.0  0.97354  0.37126  0.89589  1.0000
  C   C1083     1.0  0.96254  0.16014  0.68708  1.0000
  C   C1084     1.0  0.67698  0.45230  0.96957  1.0000
  C   C1085     1.0  0.50382  0.26473  0.66893  1.0000
  H   H867      1.0  0.49989  0.28931  0.99253  1.0000
  C   C1086     1.0  0.60169  0.91233  0.15595  1.0000
  C   C1087     1.0  0.87232  0.85335  0.30249  1.0000
  Fe  Fe74      1.0  0.62269  0.70994  0.06658  1.0000
  S   S145      1.0  0.61314  0.75662  0.04787  1.0000
  S   S146      1.0  0.59956  0.67108  0.04210  1.0000
  Fe  Fe75      1.0  0.67021  0.73669  0.10821  1.0000
  S   S147      1.0  0.66356  0.78439  0.09122  1.0000
  S   S148      1.0  0.71000  0.73030  0.13929  1.0000
  Fe  Fe76      1.0  0.61315  0.77393  0.09206  1.0000
  S   S149      1.0  0.57697  0.80320  0.11434  1.0000
  Fe  Fe77      1.0  0.66434  0.76285  0.04829  1.0000
  S   S150      1.0  0.61954  0.72669  0.11104  1.0000
  S   S151      1.0  0.67399  0.71580  0.06508  1.0000
  H   H868      1.0  0.49421  0.69500  0.01033  1.0000
  C   C1088     1.0  0.67049  0.57909  0.29404  1.0000
  S   S152      1.0  0.82671  0.73558  0.29909  1.0000
  C   C1089     1.0  0.52697  0.70041  0.08236  1.0000
  Fe  Fe78      1.0  0.77527  0.73761  0.30174  1.0000
  S   S153      1.0  0.73665  0.72627  0.27068  1.0000
  H   H869      1.0  0.62150  0.92925  0.08882  1.0000
  C   C1090     1.0  0.71879  0.91788  0.11673  1.0000
  H   H870      1.0  0.53325  0.58361  0.01905  1.0000
  Fe  Fe79      1.0  0.94737  0.97832  0.28730  1.0000
  C   C1091     1.0  0.58836  0.51642  0.03751  1.0000
  H   H871      1.0  0.49297  0.82062  0.17779  1.0000
  C   C1092     1.0  0.90280  0.89641  0.28426  1.0000
  H   H872      1.0  0.70975  0.79700  0.13861  1.0000
  S   S154      1.0  0.52139  0.93585  0.08741  1.0000
  Fe  Fe80      1.0  0.49236  0.52369  0.04052  1.0000
  P   P38       1.0  0.63113  0.54133  0.00068  1.0000
  C   C1093     1.0  0.59044  0.52188  0.08769  1.0000
  C   C1094     1.0  0.51518  0.72474  0.09792  1.0000
  H   H873      1.0  0.62917  0.84154  0.12742  1.0000
  H   H874      1.0  0.68344  0.94371  0.17556  1.0000
  H   H875      1.0  0.89664  0.60368  0.29614  1.0000
  C   C1095     1.0  0.79796  0.98317  0.28293  1.0000
  H   H876      1.0  0.49822  0.83209  0.08978  1.0000
  C   C1096     1.0  0.98401  0.75092  0.28860  1.0000
  C   C1097     1.0  0.71617  0.65045  0.24430  1.0000
  H   H877      1.0  0.59900  0.88763  0.15708  1.0000
  H   H878      1.0  0.55702  0.92076  0.17330  1.0000
  C   C1098     1.0  0.95416  0.75066  0.29907  1.0000
  S   S155      1.0  0.85790  0.81549  0.29735  1.0000
  C   C1099     1.0  0.71671  0.73240  0.17599  1.0000
  C   C1100     1.0  0.69298  0.73260  0.19556  1.0000
  C   C1101     1.0  0.69960  0.73164  0.22440  1.0000
  C   C1102     1.0  0.72998  0.73090  0.23416  1.0000
  C   C1103     1.0  0.75373  0.73179  0.21461  1.0000
  C   C1104     1.0  0.74710  0.73241  0.18578  1.0000
  H   H879      1.0  0.66952  0.73232  0.18847  1.0000
  H   H880      1.0  0.68100  0.73065  0.23924  1.0000
  H   H881      1.0  0.77721  0.73110  0.22163  1.0000
  H   H882      1.0  0.76569  0.73228  0.17089  1.0000
  C   C1105     1.0  0.56346  0.84095  0.10713  1.0000
  C   C1106     1.0  0.56929  0.85577  0.08181  1.0000
  C   C1107     1.0  0.55623  0.88475  0.07625  1.0000
  C   C1108     1.0  0.53775  0.89963  0.09606  1.0000
  C   C1109     1.0  0.53217  0.88495  0.12153  1.0000
  C   C1110     1.0  0.54493  0.85578  0.12697  1.0000
  H   H883      1.0  0.58334  0.84464  0.06627  1.0000
  H   H884      1.0  0.56035  0.89570  0.05635  1.0000
  H   H885      1.0  0.51770  0.89588  0.13687  1.0000
  H   H886      1.0  0.54024  0.84451  0.14660  1.0000
  C   C1111     1.0  0.53938  0.58699  0.06341  1.0000
  C   C1112     1.0  0.55345  0.60387  0.08488  1.0000
  C   C1113     1.0  0.57204  0.62962  0.07888  1.0000
  C   C1114     1.0  0.57665  0.63881  0.05125  1.0000
  C   C1115     1.0  0.56247  0.62199  0.02980  1.0000
  C   C1116     1.0  0.54400  0.59622  0.03579  1.0000
  H   H887      1.0  0.55001  0.59692  0.10630  1.0000
  H   H888      1.0  0.58279  0.64229  0.09559  1.0000
  H   H889      1.0  0.65031  0.96850  0.13327  1.0000
  H   H890      1.0  0.96743  0.89917  0.29103  1.0000
  C   C1117     1.0  0.85304  0.98454  0.27865  1.0000
  C   C1118     1.0  0.95148  0.80585  0.29326  1.0000
  C   C1119     1.0  0.74010  0.82713  0.11607  1.0000
  C   C1120     1.0  0.85461  0.90570  0.21787  1.0000
  C   C1121     1.0  0.64290  0.84108  0.14616  1.0000
  C   C1122     1.0  0.72846  0.86845  0.26243  1.0000
  H   H891      1.0  0.86499  0.73719  0.21123  1.0000
  H   H892      1.0  0.73949  0.65291  0.25136  1.0000
  H   H893      1.0  0.87640  0.90623  0.22858  1.0000
  C   C1123     1.0  0.93745  0.88744  0.20264  1.0000
  C   C1124     1.0  0.61501  0.53421  0.03477  1.0000
  C   C1125     1.0  0.97276  0.86021  0.24481  1.0000
  C   C1126     1.0  0.75042  0.81344  0.24025  1.0000
  H   H894      1.0  0.53460  0.79980  0.06387  1.0000
  C   C1127     1.0  0.69257  0.64235  0.26281  1.0000
  H   H895      1.0  0.80469  0.95334  0.18531  1.0000
  H   H896      1.0  0.77637  0.97164  0.27930  1.0000
  C   C1128     1.0  0.66767  0.86631  0.08521  1.0000
  C   C1129     1.0  0.76764  0.83839  0.16793  1.0000
  C   C1130     1.0  0.67684  0.86578  0.17913  1.0000
  C   C1131     1.0  0.79778  0.90463  0.19130  1.0000
  H   H897      1.0  0.56556  0.62913  0.00840  1.0000
  H   H898      1.0  0.66069  0.79241  0.19926  1.0000
  H   H899      1.0  0.94341  0.82049  0.23840  1.0000
  H   H900      1.0  0.71568  0.90292  0.09900  1.0000
  H   H901      1.0  0.84800  0.85771  0.22511  1.0000
  C   C1132     1.0  0.66236  0.64112  0.25291  1.0000
  C   C1133     1.0  0.62917  0.90226  0.05224  1.0000
  S   S156      1.0  0.77437  0.78451  0.32115  1.0000
  H   H902      1.0  0.94360  0.72919  0.30546  1.0000
  H   H903      1.0  0.63268  0.64651  0.21735  1.0000
  C   C1134     1.0  0.66322  0.85891  0.05716  1.0000
  H   H904      1.0  0.91205  0.84499  0.20230  1.0000
  C   C1135     1.0  0.66033  0.81324  0.18686  1.0000
  H   H905      1.0  0.82478  0.94767  0.26347  1.0000
  C   C1136     1.0  0.89563  0.61079  0.31771  1.0000
  C   C1137     1.0  0.64327  0.81431  0.16229  1.0000
  P   P39       1.0  0.65946  0.90146  0.13319  1.0000
  S   S157      1.0  0.49619  0.52922  0.99430  1.0000
  H   H906      1.0  0.55539  0.49703  0.06591  1.0000
  H   H907      1.0  0.53058  0.73982  0.10925  1.0000
  C   C1138     1.0  0.72960  0.81292  0.26235  1.0000
  H   H908      1.0  0.56182  0.97746  0.17055  1.0000
  S   S158      1.0  0.49424  0.96848  0.16209  1.0000
  H   H909      1.0  0.80978  0.79556  0.16009  1.0000
  C   C1139     1.0  0.62849  0.92556  0.14509  1.0000
  C   C1140     1.0  0.74923  0.86906  0.24022  1.0000
  H   H910      1.0  0.72795  0.66330  0.20222  1.0000
  C   C1141     1.0  0.76054  0.84150  0.22905  1.0000
  C   C1142     1.0  0.74630  0.93409  0.11921  1.0000
  C   C1143     1.0  0.71875  0.84039  0.27355  1.0000
  H   H911      1.0  0.58026  0.51792  0.10796  1.0000
  H   H912      1.0  0.72016  0.88975  0.27127  1.0000
  C   C1144     1.0  0.67687  0.83906  0.19540  1.0000
  C   C1145     1.0  0.51022  0.79666  0.06085  1.0000
  C   C1146     1.0  0.82518  0.96976  0.27383  1.0000
  H   H913      1.0  0.61391  0.91598  0.03956  1.0000
  C   C1147     1.0  0.70974  0.65641  0.21627  1.0000
  H   H914      1.0  0.92392  0.89804  0.18637  1.0000
  H   H915      1.0  0.64024  0.87078  0.01905  1.0000
  H   H916      1.0  0.75877  0.79187  0.23213  1.0000
  H   H917      1.0  0.77427  0.85749  0.09912  1.0000
  C   C1148     1.0  0.66929  0.62570  0.01647  1.0000
  C   C1149     1.0  0.48948  0.81460  0.07586  1.0000
  Fe  Fe81      1.0  0.82591  0.78201  0.32046  1.0000
  H   H918      1.0  0.76388  0.93158  0.10345  1.0000
  C   C1150     1.0  0.67971  0.65486  0.20655  1.0000
  C   C1151     1.0  0.69360  0.66997  0.31940  1.0000
  C   C1152     1.0  0.83833  0.87808  0.21576  1.0000
  C   C1153     1.0  0.84407  0.77541  0.23223  1.0000
  H   H919      1.0  0.85393  0.76983  0.25229  1.0000
  C   C1154     1.0  0.73990  0.62478  0.30387  1.0000
  H   H920      1.0  0.68257  0.85213  0.09772  1.0000
  C   C1155     1.0  0.65601  0.64725  0.22487  1.0000
  H   H921      1.0  0.68995  0.88536  0.18610  1.0000
  C   C1156     1.0  0.67609  0.60441  0.31146  1.0000
  C   C1157     1.0  0.98101  0.80620  0.28175  1.0000
  H   H922      1.0  0.84260  0.75029  0.16522  1.0000
  H   H923      1.0  0.71300  0.64365  0.00370  1.0000
  C   C1158     1.0  0.69562  0.92142  0.13676  1.0000
  C   C1159     1.0  0.84262  0.93271  0.20663  1.0000
  C   C1160     1.0  0.80992  0.87719  0.20209  1.0000
  C   C1161     1.0  0.64390  0.87682  0.04070  1.0000
  C   C1162     1.0  0.83792  0.76462  0.18317  1.0000
  H   H924      1.0  0.64805  0.53519  0.28972  1.0000
  H   H925      1.0  0.67483  0.66028  0.18493  1.0000
  C   C1163     1.0  0.50731  0.68118  0.06739  1.0000
  H   H926      1.0  0.72225  0.79112  0.27110  1.0000
  C   C1164     1.0  0.65276  0.89164  0.09708  1.0000
  C   C1165     1.0  0.81917  0.79042  0.18040  1.0000
  C   C1166     1.0  0.85046  0.75717  0.20906  1.0000
  C   C1167     1.0  0.70082  0.94083  0.15967  1.0000
  C   C1168     1.0  0.77898  0.85255  0.14366  1.0000
  H   H927      1.0  0.91486  0.77811  0.30980  1.0000
  C   C1169     1.0  0.93799  0.77816  0.30158  1.0000
  H   H928      1.0  0.75654  0.89106  0.23215  1.0000
  C   C1170     1.0  0.76262  0.64759  0.30356  1.0000
  H   H929      1.0  0.67457  0.83910  0.04819  1.0000
  C   C1171     1.0  0.96194  0.90348  0.21435  1.0000
  C   C1172     1.0  0.75093  0.95396  0.14166  1.0000
  H   H930      1.0  0.64367  0.63577  0.26692  1.0000
  P   P40       1.0  0.78777  0.84194  0.20064  1.0000
  H   H931      1.0  0.91626  0.90642  0.26764  1.0000
  C   C1173     1.0  0.63355  0.90970  0.08031  1.0000
  C   C1174     1.0  0.89870  0.91266  0.30910  1.0000
  C   C1175     1.0  0.81249  0.80882  0.20370  1.0000
  H   H932      1.0  0.75654  0.67139  0.30007  1.0000
  C   C1176     1.0  0.65231  0.55463  0.30330  1.0000
  C   C1177     1.0  0.81414  0.93221  0.19351  1.0000
  H   H933      1.0  0.55145  0.69647  0.08176  1.0000
  H   H934      1.0  0.79922  0.86687  0.14438  1.0000
  P   P41       1.0  0.70029  0.63549  0.29935  1.0000
  C   C1178     1.0  0.72873  0.81299  0.14007  1.0000
  H   H935      1.0  0.81972  0.81440  0.24804  1.0000
  H   H936      1.0  0.73181  0.97269  0.17936  1.0000
  S   S159      1.0  0.51597  0.55493  0.07216  1.0000
  H   H937      1.0  0.77551  0.90473  0.18146  1.0000
  C   C1179     1.0  0.74258  0.81830  0.16584  1.0000
  C   C1180     1.0  0.82485  0.80087  0.22969  1.0000
  H   H938      1.0  0.68034  0.57817  0.27332  1.0000
  C   C1181     1.0  0.65997  0.86693  0.15424  1.0000
  H   H939      1.0  0.77196  0.96709  0.14314  1.0000
  S   S160      1.0  0.69357  0.78551  0.01400  1.0000
  C   C1182     1.0  0.88963  0.86700  0.28103  1.0000
  C   C1183     1.0  0.94860  0.84386  0.23235  1.0000
  H   H940      1.0  0.63021  0.79439  0.15568  1.0000
  H   H941      1.0  0.73428  0.80579  0.18384  1.0000
  H   H942      1.0  0.85524  0.95412  0.20849  1.0000
  C   C1184     1.0  0.63045  0.95772  0.14258  1.0000
  C   C1185     1.0  0.76510  0.84707  0.11788  1.0000
  H   H943      1.0  0.73003  0.82190  0.09597  1.0000
  H   H944      1.0  0.68994  0.83819  0.21452  1.0000
  C   C1186     1.0  0.57774  0.93102  0.16509  1.0000
  C   C1187     1.0  0.93082  0.85761  0.21159  1.0000
  H   H945      1.0  0.87421  0.97402  0.27188  1.0000
  H   H946      1.0  0.93864  0.82699  0.29544  1.0000
  H   H947      1.0  0.62744  0.60238  0.02625  1.0000
  S   S161      1.0  0.94691  0.98220  0.24054  1.0000
  H   H948      1.0  0.89305  0.85453  0.26185  1.0000
  H   H949      1.0  0.66908  0.69410  0.28679  1.0000
  H   H950      1.0  0.96762  0.92632  0.20693  1.0000
  H   H951      1.0  0.51582  0.76069  0.03057  1.0000
  C   C1188     1.0  0.58028  0.96297  0.16332  1.0000
  H   H952      1.0  0.97339  0.60695  0.30599  1.0000
  S   S162      1.0  0.91519  0.94960  0.31468  1.0000
  C   C1189     1.0  0.64942  0.60052  0.01593  1.0000
  H   H953      1.0  0.66250  0.64664  0.02706  1.0000
  C   C1190     1.0  0.98349  0.89104  0.30643  1.0000
  C   C1191     1.0  0.65764  0.57339  0.00193  1.0000
  C   C1192     1.0  0.67752  0.69485  0.30795  1.0000
  H   H954      1.0  0.86761  0.65066  0.30907  1.0000
  C   C1193     1.0  0.72829  0.95716  0.16199  1.0000
  H   H955      1.0  0.62821  0.54824  0.10367  1.0000
  C   C1194     1.0  0.69770  0.62400  0.00328  1.0000
  H   H956      1.0  0.70303  0.83985  0.29103  1.0000
  C   C1195     1.0  0.57634  0.51012  0.06390  1.0000
  H   H957      1.0  0.78582  0.56258  0.31390  1.0000
  H   H958      1.0  0.73163  0.57577  0.30785  1.0000
  C   C1196     1.0  0.49005  0.67250  0.00150  1.0000
  C   C1197     1.0  0.60653  0.97632  0.15195  1.0000
  C   C1198     1.0  0.67354  0.72182  0.32333  1.0000
  H   H959      1.0  0.51686  0.66228  0.05564  1.0000
  Fe  Fe82      1.0  0.49615  0.97004  0.11539  1.0000
  C   C1199     1.0  0.62979  0.54490  0.05890  1.0000
  C   C1200     1.0  0.61726  0.53914  0.08521  1.0000
  C   C1201     1.0  0.79334  0.63987  0.30731  1.0000
  H   H960      1.0  0.81067  0.65773  0.30724  1.0000
  H   H961      1.0  0.65093  0.55775  0.05758  1.0000
  C   C1202     1.0  0.97961  0.88992  0.23526  1.0000
  H   H962      1.0  0.85060  0.49486  0.30653  1.0000
  H   H963      1.0  0.66216  0.74135  0.31400  1.0000
  C   C1203     1.0  0.80167  0.60920  0.31116  1.0000
  H   H964      1.0  0.57667  0.50739  0.01943  1.0000
  C   C1204     1.0  0.74846  0.59397  0.30773  1.0000
  C   C1205     1.0  0.49962  0.77471  0.04196  1.0000
  C   C1206     1.0  0.87910  0.63743  0.32498  1.0000
  C   C1207     1.0  0.77925  0.58630  0.31128  1.0000
  H   H965      1.0  0.82549  0.60316  0.31398  1.0000
  H   H966      1.0  0.79668  0.50410  0.32022  1.0000
  C   C1208     1.0  0.76435  0.70549  0.62986  1.0000
  S   S163      1.0  0.71994  0.77341  0.52810  1.0000
  Fe  Fe83      1.0  0.77659  0.76039  0.36305  1.0000
  S   S164      1.0  0.73796  0.76653  0.39535  1.0000
  S   S165      1.0  0.82832  0.76199  0.36395  1.0000
  Fe  Fe84      1.0  0.95845  0.52836  0.35672  1.0000
  H   H967      1.0  0.53518  0.60630  0.50756  1.0000
  S   S166      1.0  0.85546  0.67877  0.36388  1.0000
  C   C1209     1.0  0.70417  0.54721  0.41631  1.0000
  C   C1210     1.0  0.90960  0.60288  0.36587  1.0000
  H   H968      1.0  0.76814  0.56896  0.44288  1.0000
  H   H969      1.0  0.88129  0.52876  0.38540  1.0000
  H   H970      1.0  0.92130  0.58979  0.38176  1.0000
  C   C1211     1.0  0.73376  0.76651  0.43244  1.0000
  C   C1212     1.0  0.70409  0.76699  0.44392  1.0000
  C   C1213     1.0  0.69938  0.76832  0.47305  1.0000
  C   C1214     1.0  0.72437  0.76947  0.49122  1.0000
  C   C1215     1.0  0.75404  0.76841  0.47978  1.0000
  C   C1216     1.0  0.75875  0.76675  0.45064  1.0000
  H   H971      1.0  0.68454  0.76694  0.43014  1.0000
  H   H972      1.0  0.67643  0.76930  0.48141  1.0000
  H   H973      1.0  0.77358  0.76933  0.49355  1.0000
  H   H974      1.0  0.78171  0.76647  0.44227  1.0000
  C   C1217     1.0  0.74591  0.68448  0.58600  1.0000
  S   S167      1.0  0.51779  0.57483  0.55949  1.0000
  Fe  Fe85      1.0  0.61827  0.73127  0.56441  1.0000
  S   S168      1.0  0.62871  0.77860  0.54699  1.0000
  S   S169      1.0  0.58988  0.70008  0.53585  1.0000
  Fe  Fe86      1.0  0.66197  0.74059  0.61477  1.0000
  S   S170      1.0  0.67585  0.78739  0.59968  1.0000
  H   H975      1.0  0.51738  0.53193  0.40497  1.0000
  Fe  Fe87      1.0  0.62548  0.79497  0.59158  1.0000
  S   S171      1.0  0.60558  0.83763  0.61294  1.0000
  Fe  Fe88      1.0  0.67777  0.76703  0.55626  1.0000
  S   S172      1.0  0.61143  0.74852  0.60826  1.0000
  S   S173      1.0  0.66747  0.71952  0.57213  1.0000
  H   H976      1.0  0.78479  0.52670  0.36624  1.0000
  H   H977      1.0  0.70559  0.89675  0.63140  1.0000
  H   H978      1.0  0.80843  0.54929  0.58775  1.0000
  C   C1218     1.0  0.69061  0.50205  0.44306  1.0000
  H   H979      1.0  0.52929  0.71872  0.57840  1.0000
  C   C1219     1.0  0.57544  0.86393  0.60583  1.0000
  C   C1220     1.0  0.56108  0.86582  0.57986  1.0000
  C   C1221     1.0  0.53828  0.88816  0.57513  1.0000
  C   C1222     1.0  0.52950  0.90882  0.59623  1.0000
  C   C1223     1.0  0.54365  0.90667  0.62229  1.0000
  C   C1224     1.0  0.56647  0.88439  0.62696  1.0000
  H   H980      1.0  0.56779  0.85034  0.56335  1.0000
  H   H981      1.0  0.52753  0.88958  0.55488  1.0000
  H   H982      1.0  0.53708  0.92220  0.63881  1.0000
  C   C1225     1.0  0.76560  0.73480  0.61799  1.0000
  C   C1226     1.0  0.53820  0.60928  0.55222  1.0000
  C   C1227     1.0  0.54923  0.62689  0.57463  1.0000
  C   C1228     1.0  0.56547  0.65447  0.57001  1.0000
  C   C1229     1.0  0.57081  0.66480  0.54286  1.0000
  C   C1230     1.0  0.55977  0.64719  0.52040  1.0000
  C   C1231     1.0  0.54362  0.61952  0.52501  1.0000
  H   H983      1.0  0.54502  0.61925  0.59575  1.0000
  H   H984      1.0  0.57351  0.66796  0.58746  1.0000
  H   H985      1.0  0.56356  0.65513  0.49930  1.0000
  C   C1232     1.0  0.79903  0.57779  0.40835  1.0000
  H   H986      1.0  0.74082  0.71798  0.55285  1.0000
  C   C1233     1.0  0.80633  0.59868  0.38695  1.0000
  C   C1234     1.0  0.79006  0.62612  0.38413  1.0000
  C   C1235     1.0  0.90116  0.54176  0.45976  1.0000
  H   H987      1.0  0.61058  0.62170  0.60052  1.0000
  C   C1236     1.0  0.77457  0.58452  0.42634  1.0000
  C   C1237     1.0  0.68251  0.65122  0.60332  1.0000
  H   H988      1.0  0.80336  0.54083  0.47179  1.0000
  H   H989      1.0  0.97278  0.92778  0.33480  1.0000
  H   H990      1.0  0.82547  0.59443  0.37309  1.0000
  H   H991      1.0  0.79668  0.64266  0.36827  1.0000
  H   H992      1.0  0.91448  0.52449  0.47054  1.0000
  H   H993      1.0  0.90206  0.61803  0.44452  1.0000
  C   C1238     1.0  0.68536  0.72410  0.35028  1.0000
  S   S174      1.0  0.50101  0.93686  0.58881  1.0000
  H   H994      1.0  0.71900  0.55852  0.40137  1.0000
  H   H995      1.0  0.75289  0.54150  0.58005  1.0000
  H   H996      1.0  0.56985  0.60064  0.44747  1.0000
  C   C1239     1.0  0.66547  0.51759  0.45414  1.0000
  H   H997      1.0  0.65057  0.50553  0.46850  1.0000
  C   C1240     1.0  0.50816  0.70835  0.57116  1.0000
  H   H998      1.0  0.74068  0.81513  0.61454  1.0000
  H   H999      1.0  0.97523  0.64628  0.34239  1.0000
  S   S175      1.0  0.50438  0.49010  0.53467  1.0000
  H   H1000     1.0  0.49200  0.69728  0.61230  1.0000
  C   C1241     1.0  0.63463  0.67343  0.45710  1.0000
  C   C1242     1.0  0.94254  0.70986  0.37802  1.0000
  C   C1243     1.0  0.74913  0.82681  0.63295  1.0000
  H   H1001     1.0  0.64497  0.65052  0.63226  1.0000
  H   H1002     1.0  0.55925  0.49438  0.41153  1.0000
  C   C1244     1.0  0.91081  0.59324  0.33810  1.0000
  H   H1003     1.0  0.93559  0.75696  0.36587  1.0000
  C   C1245     1.0  0.87435  0.53329  0.44586  1.0000
  H   H1004     1.0  0.69667  0.66393  0.61771  1.0000
  C   C1246     1.0  0.76612  0.63285  0.40236  1.0000
  H   H1005     1.0  0.62800  0.60775  0.55333  1.0000
  C   C1247     1.0  0.67320  0.62730  0.55857  1.0000
  C   C1248     1.0  0.86245  0.52372  0.37150  1.0000
  H   H1006     1.0  0.85462  0.60380  0.42059  1.0000
  C   C1249     1.0  0.64355  0.61960  0.56721  1.0000
  C   C1250     1.0  0.69292  0.64341  0.57653  1.0000
  S   S176      1.0  0.50312  0.54026  0.48223  1.0000
  P   P42       1.0  0.73176  0.65223  0.56592  1.0000
  C   C1251     1.0  0.53855  0.53907  0.41479  1.0000
  C   C1252     1.0  0.75593  0.61946  0.57268  1.0000
  H   H1007     1.0  0.75339  0.65795  0.62364  1.0000
  H   H1008     1.0  0.75411  0.65452  0.40046  1.0000
  C   C1253     1.0  0.80626  0.59840  0.58235  1.0000
  C   C1254     1.0  0.78743  0.62364  0.57701  1.0000
  C   C1255     1.0  0.91120  0.57223  0.45923  1.0000
  C   C1256     1.0  0.56849  0.57777  0.43870  1.0000
  H   H1009     1.0  0.89229  0.63679  0.39458  1.0000
  C   C1257     1.0  0.75822  0.61195  0.42333  1.0000
  C   C1258     1.0  0.73351  0.66226  0.52927  1.0000
  C   C1259     1.0  0.70908  0.67776  0.51658  1.0000
  C   C1260     1.0  0.71169  0.68862  0.48925  1.0000
  C   C1261     1.0  0.73861  0.68396  0.47421  1.0000
  C   C1262     1.0  0.76284  0.66801  0.48641  1.0000
  C   C1263     1.0  0.76039  0.65729  0.51386  1.0000
  C   C1264     1.0  0.68504  0.90520  0.62146  1.0000
  C   C1265     1.0  0.67132  0.93230  0.63080  1.0000
  C   C1266     1.0  0.63556  0.65840  0.48280  1.0000
  Fe  Fe89      1.0  0.49649  0.54105  0.52869  1.0000
  C   C1267     1.0  0.87734  0.64663  0.35283  1.0000
  C   C1268     1.0  0.75477  0.68038  0.61391  1.0000
  H   H1010     1.0  0.79744  0.64644  0.57632  1.0000
  H   H1011     1.0  0.63043  0.66820  0.41270  1.0000
  H   H1012     1.0  0.67047  0.55652  0.50594  1.0000
  H   H1013     1.0  0.68839  0.68259  0.52805  1.0000
  H   H1014     1.0  0.69327  0.70184  0.48013  1.0000
  H   H1015     1.0  0.74096  0.69357  0.45344  1.0000
  H   H1016     1.0  0.78392  0.66494  0.47488  1.0000
  H   H1017     1.0  0.77987  0.64606  0.52319  1.0000
  C   C1269     1.0  0.64443  0.94323  0.61828  1.0000
  C   C1270     1.0  0.74755  0.71397  0.57421  1.0000
  C   C1271     1.0  0.63136  0.92634  0.59638  1.0000
  H   H1018     1.0  0.71104  0.70176  0.38252  1.0000
  H   H1019     1.0  0.83050  0.60182  0.58588  1.0000
  H   H1020     1.0  0.86748  0.50933  0.44591  1.0000
  C   C1272     1.0  0.83205  0.52943  0.37929  1.0000
  C   C1273     1.0  0.63369  0.62636  0.48407  1.0000
  C   C1274     1.0  0.70542  0.67246  0.34653  1.0000
  H   H1021     1.0  0.56710  0.53538  0.54415  1.0000
  H   H1022     1.0  0.52292  0.58502  0.42292  1.0000
  C   C1275     1.0  0.62948  0.62433  0.43380  1.0000
  C   C1276     1.0  0.66314  0.60483  0.33828  1.0000
  C   C1277     1.0  0.80838  0.52263  0.36050  1.0000
  C   C1278     1.0  0.63088  0.60898  0.45957  1.0000
  C   C1279     1.0  0.64451  0.54230  0.54172  1.0000
  S   S177      1.0  0.93080  0.55955  0.32787  1.0000
  C   C1280     1.0  0.48717  0.69618  0.59020  1.0000
  S   S178      1.0  0.77522  0.71362  0.34359  1.0000
  C   C1281     1.0  0.85705  0.55543  0.43163  1.0000
  C   C1282     1.0  0.63353  0.62758  0.59386  1.0000
  H   H1023     1.0  0.73977  0.61731  0.43760  1.0000
  C   C1283     1.0  0.58966  0.53994  0.53572  1.0000
  H   H1024     1.0  0.63496  0.58069  0.36813  1.0000
  C   C1284     1.0  0.59283  0.54954  0.50806  1.0000
  C   C1285     1.0  0.65292  0.64355  0.61181  1.0000
  H   H1025     1.0  0.68070  0.62083  0.53791  1.0000
  H   H1026     1.0  0.75777  0.76175  0.58090  1.0000
  H   H1027     1.0  0.91830  0.70513  0.38061  1.0000
  P   P43       1.0  0.62527  0.97665  0.63240  1.0000
  H   H1028     1.0  0.63357  0.61549  0.50428  1.0000
  H   H1029     1.0  0.68196  0.86721  0.59274  1.0000
  H   H1030     1.0  0.57245  0.55237  0.49556  1.0000
  C   C1286     1.0  0.75728  0.73900  0.59015  1.0000
  H   H1031     1.0  0.62545  0.53623  0.33713  1.0000
  C   C1287     1.0  0.80402  0.51422  0.43373  1.0000
  C   C1288     1.0  0.64518  0.89932  0.58702  1.0000
  C   C1289     1.0  0.64781  0.55186  0.51403  1.0000
  C   C1290     1.0  0.70110  0.69936  0.36195  1.0000
  H   H1032     1.0  0.63696  0.67171  0.50186  1.0000
  H   H1033     1.0  0.61270  0.52912  0.57404  1.0000
  C   C1291     1.0  0.89417  0.59441  0.44513  1.0000
  C   C1292     1.0  0.86785  0.86975  0.32718  1.0000
  C   C1293     1.0  0.74362  0.58963  0.57365  1.0000
  C   C1294     1.0  0.86892  0.51138  0.34527  1.0000
  H   H1034     1.0  0.56672  0.96326  0.60539  1.0000
  Fe  Fe90      1.0  0.82652  0.71585  0.34251  1.0000
  S   S179      1.0  0.96798  0.53802  0.40173  1.0000
  H   H1035     1.0  0.71945  0.58572  0.57053  1.0000
  C   C1295     1.0  0.95227  0.73903  0.36964  1.0000
  P   P44       1.0  0.82265  0.54407  0.41341  1.0000
  C   C1296     1.0  0.89303  0.62945  0.37310  1.0000
  C   C1297     1.0  0.76254  0.56443  0.57902  1.0000
  C   C1298     1.0  0.96395  0.68667  0.38286  1.0000
  H   H1036     1.0  0.63446  0.88589  0.57069  1.0000
  H   H1037     1.0  0.51907  0.71539  0.52795  1.0000
  H   H1038     1.0  0.79606  0.82625  0.61936  1.0000
  H   H1039     1.0  0.85458  0.85962  0.34388  1.0000
  H   H1040     1.0  0.67545  0.58645  0.42133  1.0000
  C   C1299     1.0  0.63165  0.65640  0.43258  1.0000
  C   C1300     1.0  0.61542  0.53636  0.55255  1.0000
  C   C1301     1.0  0.56221  0.51795  0.41836  1.0000
  C   C1302     1.0  0.79383  0.56881  0.58339  1.0000
  C   C1303     1.0  0.54171  0.56898  0.42492  1.0000
  H   H1041     1.0  0.63565  0.69834  0.45632  1.0000
  C   C1304     1.0  0.67190  0.88865  0.59961  1.0000
  H   H1042     1.0  0.95591  0.66414  0.38927  1.0000
  H   H1043     1.0  0.62615  0.61153  0.41472  1.0000
  H   H1044     1.0  0.71859  0.65390  0.35548  1.0000
  C   C1305     1.0  0.58912  0.52669  0.43193  1.0000
  C   C1306     1.0  0.59272  0.55685  0.44180  1.0000
  P   P45       1.0  0.62650  0.56761  0.46118  1.0000
  C   C1307     1.0  0.62198  0.55535  0.49694  1.0000
  C   C1308     1.0  0.65946  0.54819  0.44655  1.0000
  H   H1045     1.0  0.70480  0.83000  0.65143  1.0000
  H   H1046     1.0  0.93230  0.57854  0.46954  1.0000
  H   H1047     1.0  0.77257  0.75428  0.63052  1.0000
  C   C1309     1.0  0.67916  0.56295  0.42758  1.0000
  H   H1048     1.0  0.61005  0.93322  0.58691  1.0000
  H   H1049     1.0  0.53915  0.98758  0.56663  1.0000
  C   C1310     1.0  0.86716  0.58613  0.43146  1.0000
  H   H1050     1.0  0.66444  0.53962  0.55485  1.0000
  C   C1311     1.0  0.78271  0.49646  0.47780  1.0000
  H   H1051     1.0  0.68314  0.74536  0.36188  1.0000
  C   C1312     1.0  0.59901  0.96352  0.65901  1.0000
  C   C1313     1.0  0.64500  0.58028  0.34749  1.0000
  C   C1314     1.0  0.57622  0.98370  0.59586  1.0000
  C   C1315     1.0  0.79721  0.51929  0.46196  1.0000
  C   C1316     1.0  0.70997  0.51684  0.42415  1.0000
  C   C1317     1.0  0.72880  0.83537  0.65404  1.0000
  H   H1052     1.0  0.66682  0.62403  0.35213  1.0000
  C   C1318     1.0  0.81499  0.50984  0.33447  1.0000
  H   H1053     1.0  0.89238  0.50740  0.33913  1.0000
  H   H1054     1.0  0.68132  0.94433  0.64819  1.0000
  H   H1055     1.0  0.87752  0.91162  0.34968  1.0000
  C   C1319     1.0  0.98344  0.74497  0.36592  1.0000
  C   C1320     1.0  0.50235  0.70649  0.54262  1.0000
  H   H1056     1.0  0.60655  0.50950  0.43527  1.0000
  H   H1057     1.0  0.57720  0.88279  0.64714  1.0000
  H   H1058     1.0  0.77740  0.50052  0.49953  1.0000
  H   H1059     1.0  0.72931  0.50459  0.41547  1.0000
  C   C1321     1.0  0.79121  0.84798  0.65944  1.0000
  C   C1322     1.0  0.88095  0.89923  0.33041  1.0000
  C   C1323     1.0  0.78032  0.83305  0.63567  1.0000
  H   H1060     1.0  0.77007  0.70242  0.65167  1.0000
  S   S180      1.0  0.67711  0.71632  0.65515  1.0000
  H   H1061     1.0  0.82000  0.98942  0.40355  1.0000
  C   C1324     1.0  0.98639  0.90735  0.33138  1.0000
  C   C1325     1.0  0.63959  0.55520  0.33001  1.0000
  C   C1326     1.0  0.84529  0.50441  0.32679  1.0000
  H   H1062     1.0  0.54372  0.93679  0.71791  1.0000
  H   H1063     1.0  0.75755  0.78595  0.92918  1.0000
  Fe  Fe91      1.0  0.77288  0.74662  0.86198  1.0000
  S   S181      1.0  0.78545  0.70869  0.83179  1.0000
  S   S182      1.0  0.73513  0.73489  0.89398  1.0000
  Fe  Fe92      1.0  0.82168  0.79095  0.83639  1.0000
  S   S183      1.0  0.83821  0.75512  0.80635  1.0000
  S   S184      1.0  0.83281  0.84260  0.83562  1.0000
  Fe  Fe93      1.0  0.78804  0.74532  0.79802  1.0000
  S   S185      1.0  0.77260  0.75150  0.75202  1.0000
  Fe  Fe94      1.0  0.83417  0.72134  0.84223  1.0000
  S   S186      1.0  0.86976  0.68928  0.86215  1.0000
  S   S187      1.0  0.77186  0.78190  0.82761  1.0000
  S   S188      1.0  0.82123  0.75841  0.87308  1.0000
  Fe  Fe95      1.0  0.95412  0.97596  0.78478  1.0000
  S   S189      1.0  0.94727  0.92887  0.80575  1.0000
  H   H1064     1.0  0.74067  0.80475  0.97562  1.0000
  Fe  Fe96      1.0  0.95673  0.52463  0.86644  1.0000
  S   S190      1.0  0.93176  0.55878  0.83817  1.0000
  S   S191      1.0  0.95621  0.52337  0.91327  1.0000
  C   C1327     1.0  0.86477  0.86520  0.82458  1.0000
  C   C1328     1.0  0.86013  0.89645  0.81816  1.0000
  C   C1329     1.0  0.88487  0.91598  0.81121  1.0000
  C   C1330     1.0  0.91478  0.90467  0.81126  1.0000
  C   C1331     1.0  0.91943  0.87337  0.81755  1.0000
  C   C1332     1.0  0.89460  0.85366  0.82384  1.0000
  H   H1065     1.0  0.83724  0.90573  0.81880  1.0000
  H   H1066     1.0  0.88088  0.93998  0.80666  1.0000
  H   H1067     1.0  0.94245  0.86442  0.81783  1.0000
  H   H1068     1.0  0.89865  0.82981  0.82897  1.0000
  C   C1333     1.0  0.88538  0.65220  0.85549  1.0000
  C   C1334     1.0  0.90434  0.63860  0.87577  1.0000
  C   C1335     1.0  0.91797  0.60964  0.87126  1.0000
  C   C1336     1.0  0.91311  0.59405  0.84617  1.0000
  C   C1337     1.0  0.89396  0.60750  0.82601  1.0000
  C   C1338     1.0  0.88000  0.63628  0.83068  1.0000
  H   H1069     1.0  0.90868  0.65069  0.89504  1.0000
  H   H1070     1.0  0.93268  0.59968  0.88694  1.0000
  H   H1071     1.0  0.89004  0.59566  0.80654  1.0000
  H   H1072     1.0  0.86551  0.64636  0.81489  1.0000
  H   H1073     1.0  0.71448  0.77978  0.77332  1.0000
  C   C1339     1.0  0.74524  0.75822  0.70032  1.0000
  C   C1340     1.0  0.74566  0.74129  0.72544  1.0000
  C   C1341     1.0  0.72489  0.71698  0.72847  1.0000
  C   C1342     1.0  0.97819  0.80515  0.83462  1.0000
  C   C1343     1.0  0.87048  0.51299  0.83526  1.0000
  H   H1074     1.0  0.76153  0.77661  0.69724  1.0000
  H   H1075     1.0  0.72525  0.70318  0.74719  1.0000
  C   C1344     1.0  0.72542  0.74847  0.92807  1.0000
  C   C1345     1.0  0.70212  0.73331  0.94310  1.0000
  C   C1346     1.0  0.69295  0.74352  0.96979  1.0000
  H   H1076     1.0  0.62702  0.78672  0.96497  1.0000
  C   C1347     1.0  0.72996  0.78460  0.96674  1.0000
  C   C1348     1.0  0.73950  0.77407  0.94025  1.0000
  H   H1077     1.0  0.69096  0.71355  0.93397  1.0000
  C   C1349     1.0  0.72455  0.92251  0.69363  1.0000
  C   C1350     1.0  0.50471  0.66448  0.97665  1.0000
  C   C1351     1.0  0.87219  0.57722  0.93017  1.0000
  H   H1078     1.0  0.74711  0.91544  0.68706  1.0000
  H   H1079     1.0  0.90055  0.50223  0.96545  1.0000
  H   H1080     1.0  0.58867  0.50211  0.96921  1.0000
  H   H1081     1.0  0.62193  0.92009  0.66635  1.0000
  H   H1082     1.0  0.92653  0.55175  0.97535  1.0000
  C   C1352     1.0  0.73955  0.85026  0.67813  1.0000
  C   C1353     1.0  0.82831  0.54264  0.81703  1.0000
  C   C1354     1.0  0.78826  0.49475  0.89642  1.0000
  H   H1083     1.0  0.69925  0.82288  0.80368  1.0000
  H   H1084     1.0  0.69350  0.55123  0.97811  1.0000
  C   C1355     1.0  0.80310  0.63818  0.88670  1.0000
  C   C1356     1.0  0.77613  0.64262  0.90173  1.0000
  H   H1085     1.0  0.51031  0.62963  0.94523  1.0000
  C   C1357     1.0  0.81736  0.60947  0.88674  1.0000
  C   C1358     1.0  0.61331  0.86603  0.81033  1.0000
  H   H1086     1.0  0.61202  0.91778  0.86338  1.0000
  H   H1087     1.0  0.60247  0.86136  0.79049  1.0000
  C   C1359     1.0  0.63237  0.82022  0.68352  1.0000
  C   C1360     1.0  0.72397  0.75155  0.67898  1.0000
  H   H1088     1.0  0.86516  0.59834  0.92024  1.0000
  H   H1089     1.0  0.81310  0.65712  0.87512  1.0000
  H   H1090     1.0  0.76522  0.66503  0.90169  1.0000
  H   H1091     1.0  0.83836  0.60658  0.87501  1.0000
  C   C1361     1.0  0.56847  0.58680  0.95219  1.0000
  C   C1362     1.0  0.79253  0.51528  0.94318  1.0000
  C   C1363     1.0  0.55498  0.97266  0.68874  1.0000
  C   C1364     1.0  0.61863  0.89777  0.85141  1.0000
  C   C1365     1.0  0.85406  0.52439  0.81257  1.0000
  H   H1092     1.0  0.72840  0.59572  0.97950  1.0000
  C   C1366     1.0  0.79917  0.51758  0.91459  1.0000
  C   C1367     1.0  0.71806  0.95393  0.69495  1.0000
  C   C1368     1.0  0.65650  0.50297  0.96028  1.0000
  C   C1369     1.0  0.90700  0.55118  0.96148  1.0000
  C   C1370     1.0  0.55932  0.94426  0.70169  1.0000
  H   H1093     1.0  0.95112  0.70537  0.79670  1.0000
  C   C1371     1.0  0.89711  0.57807  0.94839  1.0000
  H   H1094     1.0  0.65714  0.89477  0.71923  1.0000
  H   H1095     1.0  0.65070  0.52076  0.94541  1.0000
  P   P46       1.0  0.71343  0.86085  0.70575  1.0000
  C   C1372     1.0  0.49941  0.63572  0.96469  1.0000
  C   C1373     1.0  0.68248  0.80630  0.71721  1.0000
  C   C1374     1.0  0.65896  0.78484  0.71381  1.0000
  C   C1375     1.0  0.58357  0.92550  0.69353  1.0000
  C   C1376     1.0  0.65603  0.84164  0.68660  1.0000
  H   H1096     1.0  0.76724  0.57098  0.92874  1.0000
  C   C1377     1.0  0.73179  0.85730  0.73940  1.0000
  C   C1378     1.0  0.72505  0.87816  0.76089  1.0000
  C   C1379     1.0  0.74040  0.87643  0.78637  1.0000
  C   C1380     1.0  0.76234  0.85372  0.79078  1.0000
  C   C1381     1.0  0.76889  0.83266  0.76971  1.0000
  C   C1382     1.0  0.75359  0.83429  0.74421  1.0000
  C   C1383     1.0  0.86761  0.52229  0.93759  1.0000
  C   C1384     1.0  0.59264  0.58043  0.97028  1.0000
  C   C1385     1.0  0.89234  0.52330  0.95597  1.0000
  C   C1386     1.0  0.77759  0.58945  0.91697  1.0000
  H   H1097     1.0  0.77988  0.86810  0.69887  1.0000
  H   H1098     1.0  0.56271  0.61042  0.94758  1.0000
  C   C1387     1.0  0.63395  0.79176  0.69692  1.0000
  H   H1099     1.0  0.70223  0.79989  0.72936  1.0000
  H   H1100     1.0  0.66072  0.76236  0.72344  1.0000
  C   C1388     1.0  0.70255  0.90070  0.70183  1.0000
  H   H1101     1.0  0.73533  0.97065  0.68905  1.0000
  H   H1102     1.0  0.53272  0.56769  0.92658  1.0000
  H   H1103     1.0  0.70834  0.89611  0.75805  1.0000
  H   H1104     1.0  0.73570  0.89299  0.80257  1.0000
  H   H1105     1.0  0.77441  0.85246  0.81046  1.0000
  H   H1106     1.0  0.78608  0.81511  0.77311  1.0000
  C   C1389     1.0  0.77094  0.85664  0.68056  1.0000
  H   H1107     1.0  0.80122  0.53229  0.95763  1.0000
  H   H1108     1.0  0.67479  0.73173  0.98081  1.0000
  H   H1109     1.0  0.85706  0.50025  0.93322  1.0000
  H   H1110     1.0  0.68859  0.69066  0.70934  1.0000
  C   C1390     1.0  0.70416  0.70981  0.70681  1.0000
  C   C1391     1.0  0.80475  0.58481  0.90188  1.0000
  H   H1111     1.0  0.52019  0.68058  0.96669  1.0000
  C   C1392     1.0  0.76335  0.61825  0.91681  1.0000
  C   C1393     1.0  0.85696  0.54936  0.92488  1.0000
  C   C1394     1.0  0.66751  0.94239  0.71260  1.0000
  H   H1112     1.0  0.91747  0.72766  0.83295  1.0000
  C   C1395     1.0  0.62319  0.78450  0.92016  1.0000
  C   C1396     1.0  0.63613  0.79454  0.94516  1.0000
  C   C1397     1.0  0.66126  0.81437  0.94469  1.0000
  C   C1398     1.0  0.67415  0.82343  0.91931  1.0000
  C   C1399     1.0  0.66172  0.81290  0.89407  1.0000
  C   C1400     1.0  0.63565  0.79400  0.89468  1.0000
  P   P47       1.0  0.67716  0.82548  0.86103  1.0000
  C   C1401     1.0  0.71365  0.84395  0.86650  1.0000
  C   C1402     1.0  0.68540  0.79369  0.83808  1.0000
  C   C1403     1.0  0.68396  0.76323  0.84768  1.0000
  C   C1404     1.0  0.69271  0.73902  0.83034  1.0000
  C   C1405     1.0  0.70312  0.74500  0.80336  1.0000
  C   C1406     1.0  0.70487  0.77522  0.79370  1.0000
  C   C1407     1.0  0.69634  0.79953  0.81104  1.0000
  C   C1408     1.0  0.71868  0.87486  0.85930  1.0000
  C   C1409     1.0  0.74754  0.88816  0.86314  1.0000
  C   C1410     1.0  0.77154  0.87066  0.87387  1.0000
  C   C1411     1.0  0.76668  0.83992  0.88102  1.0000
  C   C1412     1.0  0.73786  0.82662  0.87738  1.0000
  C   C1413     1.0  0.64935  0.85159  0.84657  1.0000
  C   C1414     1.0  0.63519  0.84570  0.82085  1.0000
  H   H1113     1.0  0.97662  0.69338  0.89685  1.0000
  C   C1415     1.0  0.64051  0.87749  0.86198  1.0000
  H   H1114     1.0  0.60371  0.76911  0.92056  1.0000
  H   H1115     1.0  0.58805  0.90776  0.81743  1.0000
  H   H1116     1.0  0.67134  0.82200  0.96412  1.0000
  H   H1117     1.0  0.69394  0.83836  0.91965  1.0000
  H   H1118     1.0  0.62533  0.78619  0.87545  1.0000
  H   H1119     1.0  0.67765  0.75798  0.86896  1.0000
  H   H1120     1.0  0.69274  0.71572  0.83835  1.0000
  H   H1121     1.0  0.71102  0.72634  0.79035  1.0000
  P   P48       1.0  0.82402  0.54799  0.90213  1.0000
  C   C1416     1.0  0.58353  0.52592  0.96449  1.0000
  H   H1122     1.0  0.70072  0.88863  0.85028  1.0000
  H   H1123     1.0  0.75160  0.91188  0.85731  1.0000
  H   H1124     1.0  0.79419  0.88061  0.87603  1.0000
  H   H1125     1.0  0.78554  0.82617  0.88868  1.0000
  H   H1126     1.0  0.73460  0.80258  0.88259  1.0000
  H   H1127     1.0  0.64052  0.82530  0.80900  1.0000
  H   H1128     1.0  0.75913  0.81769  0.72827  1.0000
  H   H1129     1.0  0.65059  0.88196  0.88221  1.0000
  C   C1417     1.0  0.86167  0.52035  0.86245  1.0000
  H   H1130     1.0  0.79897  0.56365  0.84721  1.0000
  H   H1131     1.0  0.74240  0.62183  0.92839  1.0000
  C   C1418     1.0  0.60512  0.89211  0.82554  1.0000
  H   H1132     1.0  0.96060  0.79011  0.84295  1.0000
  C   C1419     1.0  0.55174  0.56281  0.94030  1.0000
  C   C1420     1.0  0.68635  0.57180  0.98886  1.0000
  H   H1133     1.0  0.60488  0.59953  0.97927  1.0000
  H   H1134     1.0  0.64558  0.95022  0.72033  1.0000
  C   C1421     1.0  0.93831  0.71588  0.83887  1.0000
  H   H1135     1.0  0.98106  0.61927  0.83928  1.0000
  H   H1136     1.0  0.54627  0.51375  0.93735  1.0000
  H   H1137     1.0  0.58670  0.90326  0.70326  1.0000
  S   S192      1.0  0.94947  0.98056  0.73839  1.0000
  C   C1422     1.0  0.68116  0.83494  0.70378  1.0000
  H   H1138     1.0  0.65511  0.86278  0.67469  1.0000
  C   C1423     1.0  0.94559  0.71241  0.86704  1.0000
  C   C1424     1.0  0.97172  0.69613  0.87491  1.0000
  H   H1139     1.0  0.81563  0.55157  0.79944  1.0000
  C   C1425     1.0  0.98335  0.68686  0.82625  1.0000
  C   C1426     1.0  0.70341  0.72707  0.68196  1.0000
  C   C1427     1.0  0.81914  0.54970  0.84418  1.0000
  C   C1428     1.0  0.67400  0.91094  0.71151  1.0000
  C   C1429     1.0  0.55938  0.53241  0.94636  1.0000
  C   C1430     1.0  0.83605  0.53899  0.86710  1.0000
  H   H1140     1.0  0.53634  0.98736  0.69526  1.0000
  H   H1141     1.0  0.93022  0.72146  0.88274  1.0000
  C   C1431     1.0  0.95718  0.70313  0.81849  1.0000
  C   C1432     1.0  0.98202  0.80786  0.80582  1.0000
  H   H1142     1.0  0.87515  0.51173  0.87966  1.0000
  H   H1143     1.0  0.61622  0.77472  0.69355  1.0000
  C   C1433     1.0  0.68962  0.96385  0.70456  1.0000
  C   C1434     1.0  0.60051  0.54991  0.97656  1.0000
  H   H1144     1.0  0.90890  0.59958  0.95215  1.0000
  C   C1435     1.0  0.70660  0.76947  0.98175  1.0000
  H   H1145     1.0  0.79341  0.49548  0.87439  1.0000
  H   H1146     1.0  0.89078  0.49934  0.83175  1.0000
  H   H1147     1.0  0.86159  0.51936  0.79157  1.0000
  H   H1148     1.0  0.61323  0.82522  0.66995  1.0000
  C   C1436     1.0  0.65007  0.50687  0.98875  1.0000
  C   C1437     1.0  0.60349  0.93516  0.67242  1.0000
  C   C1438     1.0  0.57453  0.98217  0.66733  1.0000
  H   H1149     1.0  0.96734  0.79497  0.79187  1.0000
  C   C1439     1.0  0.77553  0.49043  0.95344  1.0000
  H   H1150     1.0  0.68491  0.98821  0.70614  1.0000
  C   C1440     1.0  0.70628  0.59703  0.98958  1.0000
  H   H1151     1.0  0.81543  0.85271  0.66163  1.0000
  H   H1152     1.0  0.72376  0.76502  0.66005  1.0000
