data_image0
_chemical_formula_structural       HCHCHS2HCHCH2C2HC5FePC9SC3SC2HCH10CFeHFeHCH2CH2CH2CH2SC3H3SHSFeC2SHC3HCH4C2HC3HCHFeS2FeS2FeSFeS3C2HPH2C2H3C3H3CHC3HC9H3C5H6C2H3C2H3C4H2PC2PC2HC4H2C2HC5H5C3HCH2C3H2CH2C2HC4H3FeS2FeS2FeSFeS3C3H2C2HCH2CHC5H4CHCHPHC2H2PH2C3HCHC5H2C4HCH2CHC3H8C4H2PC2H4CH3C3HC2HC10HC6HCH3C4HCHC4HCHC2HC2HCH3CHCH2C4H2CHCH2C3HS2FeS2FeSHFeSFeS3FeS2C6H4CH2C3H3C6H5FeC2H2C3H2CH5SH4C4H3PH2C4H2C6FeC2SHCH2CPC2H2CSC2HC2HCHCHC5HSC2FeHC2HCHPC2HFeH2C3HCHC3HCH2CH2CH2C5H2CH2CHC3HC3HCH2CHCH2CHC2HC3HC2HCSHC3HCHCS2HFeS2FeS2FeSFeCS2CHFeSCHC6H4CHCHCHC6H3FeC3HC2PC2HCSHC2H4C5HC2H2C3HCHCHCH3CHCHCHPC4H3C4H3CH2C2H2CH2C4H2SHC2H2CHC2HC6HC2HC2H2C3H2CPC2H2SHCHCH3CHCHC4H8CFeC3H5C5H3C2H2C6HPHC4HSCH2SH2C2HCH6C2HC5HC2H2CH2C5H3PCHCHC2HC2HCHCH2C3H4CH2C4H2FeHSCH2SCS2FeSC3HSHC6H4CHC6HC2H2C3HSC2HCHCH2SH2CHC2H3CHPCSH3CH4CHCHC5HFeHC3HCHCHFeHPC4HFeCH2CHC7FeCSCH2SH2SHSHCSH2FeCHC6H5C3HC2PCHC7SH2CHCHSFeC3H3CH4C2HC2SC2HCHC3
_chemical_formula_sum              "H432 C540 S72 Fe36 P18"
_cell_length_a       38.5931
_cell_length_b       40.0004
_cell_length_c       33.8173
_cell_angle_alpha    93.7979
_cell_angle_beta     85.8534
_cell_angle_gamma    116.554

_space_group_name_H-M_alt    "P 1"
_space_group_IT_number       1

loop_
  _space_group_symop_operation_xyz
  'x, y, z'

loop_
  _atom_site_type_symbol
  _atom_site_label
  _atom_site_symmetry_multiplicity
  _atom_site_fract_x
  _atom_site_fract_y
  _atom_site_fract_z
  _atom_site_occupancy
  H   H1        1.0  0.13798  0.26831  0.16272  1.0000
  C   C1        1.0  0.99555  0.21202  0.14890  1.0000
  H   H2        1.0  0.08647  0.08696  0.06672  1.0000
  C   C2        1.0  0.99883  0.18177  0.12908  1.0000
  H   H3        1.0  0.07384  0.13471  0.03519  1.0000
  S   S1        1.0  0.10959  0.03101  0.03465  1.0000
  S   S2        1.0  0.12611  0.30064  0.08779  1.0000
  H   H4        1.0  0.10921  0.22501  0.09517  1.0000
  C   C3        1.0  0.07996  0.11458  0.01694  1.0000
  H   H5        1.0  0.14082  0.22148  0.03012  1.0000
  C   C4        1.0  0.14948  0.26118  0.18747  1.0000
  H   H6        1.0  0.20658  0.28960  0.04242  1.0000
  H   H7        1.0  0.03861  0.10406  0.28152  1.0000
  C   C5        1.0  0.14357  0.16369  0.11650  1.0000
  C   C6        1.0  0.12335  0.20695  0.09096  1.0000
  H   H8        1.0  0.00176  0.02347  0.06635  1.0000
  C   C7        1.0  0.12272  0.18496  0.12181  1.0000
  C   C8        1.0  0.14193  0.20555  0.05428  1.0000
  C   C9        1.0  0.19391  0.28131  0.24079  1.0000
  C   C10       1.0  0.16205  0.16218  0.07972  1.0000
  C   C11       1.0  0.09544  0.06124  0.01145  1.0000
  Fe  Fe1       1.0  0.06442  0.19883  0.97973  1.0000
  P   P1        1.0  0.09868  0.18719  0.16901  1.0000
  C   C12       1.0  0.05842  0.19731  0.16186  1.0000
  C   C13       1.0  0.07604  0.14232  0.19178  1.0000
  C   C14       1.0  0.06532  0.14022  0.23244  1.0000
  C   C15       1.0  0.04647  0.10547  0.25004  1.0000
  C   C16       1.0  0.03766  0.07257  0.22703  1.0000
  C   C17       1.0  0.04708  0.07440  0.18630  1.0000
  C   C18       1.0  0.06558  0.10905  0.16859  1.0000
  C   C19       1.0  0.05411  0.22683  0.18295  1.0000
  C   C20       1.0  0.16092  0.18285  0.04850  1.0000
  S   S3        1.0  0.03232  0.27321  0.02269  1.0000
  C   C21       1.0  0.02291  0.23426  0.17621  1.0000
  C   C22       1.0  0.02997  0.17425  0.13567  1.0000
  C   C23       1.0  0.13558  0.22375  0.19771  1.0000
  S   S4        1.0  0.04576  0.20103  0.04356  1.0000
  C   C24       1.0  0.18141  0.24401  0.25015  1.0000
  C   C25       1.0  0.15255  0.21526  0.22850  1.0000
  H   H9        1.0  0.07129  0.16547  0.25046  1.0000
  C   C26       1.0  0.37950  0.01192  0.12283  1.0000
  H   H10       1.0  0.02317  0.04564  0.24063  1.0000
  H   H11       1.0  0.03979  0.04896  0.16825  1.0000
  H   H12       1.0  0.07126  0.10963  0.13674  1.0000
  H   H13       1.0  0.07475  0.24449  0.20431  1.0000
  H   H14       1.0  0.14505  0.14779  0.14045  1.0000
  H   H15       1.0  0.20333  0.25663  0.97681  1.0000
  H   H16       1.0  0.17655  0.14435  0.07505  1.0000
  H   H17       1.0  0.03238  0.15107  0.11939  1.0000
  H   H18       1.0  0.19424  0.23743  0.27410  1.0000
  H   H19       1.0  0.14396  0.18657  0.23559  1.0000
  C   C27       1.0  0.08693  0.08736  0.03476  1.0000
  Fe  Fe2       1.0  0.08147  0.26380  0.04214  1.0000
  H   H20       1.0  0.36728  0.05174  0.15976  1.0000
  Fe  Fe3       1.0  0.99799  0.21032  0.02007  1.0000
  H   H21       1.0  0.31023  0.00355  0.19485  1.0000
  C   C28       1.0  0.99477  0.00792  0.09319  1.0000
  H   H22       1.0  0.18801  0.31872  0.20179  1.0000
  H   H23       1.0  0.02045  0.25782  0.19159  1.0000
  C   C29       1.0  0.35845  0.02240  0.15219  1.0000
  H   H24       1.0  0.17412  0.18074  0.01963  1.0000
  H   H25       1.0  0.21608  0.30365  0.25766  1.0000
  C   C30       1.0  0.32603  0.99504  0.17186  1.0000
  H   H26       1.0  0.40458  0.03315  0.10755  1.0000
  H   H27       1.0  0.04339  0.99533  0.08283  1.0000
  C   C31       1.0  0.20304  0.28365  0.97878  1.0000
  H   H28       1.0  0.06083  0.30627  0.13359  1.0000
  H   H29       1.0  0.99942  0.11013  0.00095  1.0000
  S   S5        1.0  0.10452  0.26077  0.97918  1.0000
  C   C32       1.0  0.17811  0.28984  0.20931  1.0000
  C   C33       1.0  0.20507  0.30226  0.01565  1.0000
  C   C34       1.0  0.08744  0.32492  0.14749  1.0000
  H   H30       1.0  0.12644  0.30874  0.87874  1.0000
  H   H31       1.0  0.19550  0.28391  0.91633  1.0000
  H   H32       1.0  0.14513  0.20066  0.61816  1.0000
  S   S6        1.0  0.01470  0.20527  0.95582  1.0000
  H   H33       1.0  0.10136  0.28168  0.61192  1.0000
  S   S7        1.0  0.07852  0.15272  0.95136  1.0000
  Fe  Fe4       1.0  0.05369  0.26754  0.95971  1.0000
  C   C35       1.0  0.16383  0.30421  0.61220  1.0000
  C   C36       1.0  0.11912  0.23814  0.61515  1.0000
  S   S8        1.0  0.05505  0.30957  0.91539  1.0000
  H   H34       1.0  0.13424  0.32134  0.68593  1.0000
  C   C37       1.0  0.19510  0.29529  0.61256  1.0000
  C   C38       1.0  0.18831  0.25804  0.61481  1.0000
  C   C39       1.0  0.09011  0.08988  0.95236  1.0000
  H   H35       1.0  0.21252  0.25131  0.61547  1.0000
  C   C40       1.0  0.19880  0.29912  0.94465  1.0000
  H   H36       1.0  0.08969  0.21601  0.61611  1.0000
  H   H37       1.0  0.22471  0.31698  0.61110  1.0000
  H   H38       1.0  0.09234  0.09124  0.92038  1.0000
  H   H39       1.0  0.10331  0.04265  0.95186  1.0000
  C   C41       1.0  0.15035  0.22949  0.61626  1.0000
  C   C42       1.0  0.12581  0.27536  0.61291  1.0000
  H   H40       1.0  0.01902  0.05139  0.90284  1.0000
  C   C43       1.0  0.09618  0.06217  0.97014  1.0000
  C   C44       1.0  0.00395  0.02268  0.89166  1.0000
  C   C45       1.0  0.08260  0.11661  0.97558  1.0000
  H   H41       1.0  0.03294  0.00252  0.92889  1.0000
  C   C46       1.0  0.01197  0.99518  0.90625  1.0000
  H   H42       1.0  0.41076  0.56508  0.39528  1.0000
  Fe  Fe5       1.0  0.25142  0.48807  0.29150  1.0000
  S   S9        1.0  0.24348  0.51947  0.34476  1.0000
  S   S10       1.0  0.31156  0.50034  0.26700  1.0000
  Fe  Fe6       1.0  0.16473  0.44103  0.28353  1.0000
  S   S11       1.0  0.15001  0.47016  0.33804  1.0000
  S   S12       1.0  0.11729  0.39557  0.24601  1.0000
  Fe  Fe7       1.0  0.19683  0.52309  0.31241  1.0000
  S   S13       1.0  0.21196  0.58453  0.31496  1.0000
  Fe  Fe8       1.0  0.19820  0.46506  0.36721  1.0000
  S   S14       1.0  0.20693  0.45335  0.43055  1.0000
  S   S15       1.0  0.20794  0.49487  0.25671  1.0000
  S   S16       1.0  0.20943  0.43221  0.31493  1.0000
  C   C47       1.0  0.12065  0.37050  0.20115  1.0000
  C   C48       1.0  0.15616  0.37393  0.18394  1.0000
  H   H43       1.0  0.10867  0.39255  0.10246  1.0000
  P   P2        1.0  0.19838  0.39722  0.98823  1.0000
  H   H44       1.0  0.20410  0.35020  0.04724  1.0000
  H   H45       1.0  0.18279  0.39263  0.19776  1.0000
  C   C49       1.0  0.28855  0.57601  0.18820  1.0000
  C   C50       1.0  0.18256  0.60756  0.31400  1.0000
  H   H46       1.0  0.31728  0.50442  0.08320  1.0000
  H   H47       1.0  0.32171  0.64633  0.03388  1.0000
  H   H48       1.0  0.35941  0.65634  0.18796  1.0000
  C   C51       1.0  0.12060  0.60943  0.31196  1.0000
  C   C52       1.0  0.14207  0.58877  0.31334  1.0000
  C   C53       1.0  0.23667  0.43126  0.01765  1.0000
  H   H49       1.0  0.08932  0.59504  0.31129  1.0000
  H   H50       1.0  0.12748  0.55856  0.31368  1.0000
  H   H51       1.0  0.05874  0.34309  0.19534  1.0000
  C   C54       1.0  0.08220  0.36558  0.00744  1.0000
  H   H52       1.0  0.20202  0.59410  0.21330  1.0000
  C   C55       1.0  0.11194  0.61239  0.43247  1.0000
  C   C56       1.0  0.20367  0.33668  0.01829  1.0000
  C   C57       1.0  0.31268  0.56040  0.44931  1.0000
  H   H53       1.0  0.14565  0.47525  0.45873  1.0000
  C   C58       1.0  0.32621  0.53252  0.38760  1.0000
  C   C59       1.0  0.29502  0.48425  0.06458  1.0000
  C   C60       1.0  0.26922  0.42610  0.02529  1.0000
  C   C61       1.0  0.41329  0.61792  0.26072  1.0000
  C   C62       1.0  0.41492  0.58678  0.24101  1.0000
  C   C63       1.0  0.38349  0.55134  0.24352  1.0000
  C   C64       1.0  0.34944  0.54637  0.26520  1.0000
  C   C65       1.0  0.34712  0.57754  0.28472  1.0000
  C   C66       1.0  0.37933  0.61335  0.28290  1.0000
  H   H54       1.0  0.44094  0.58998  0.22384  1.0000
  H   H55       1.0  0.38559  0.52755  0.22843  1.0000
  H   H56       1.0  0.32077  0.57402  0.30136  1.0000
  C   C67       1.0  0.29811  0.45240  0.04895  1.0000
  C   C68       1.0  0.11019  0.61765  0.47378  1.0000
  C   C69       1.0  0.37513  0.64536  0.44194  1.0000
  C   C70       1.0  0.34018  0.64214  0.46090  1.0000
  C   C71       1.0  0.32616  0.50351  0.40840  1.0000
  H   H57       1.0  0.14789  0.56832  0.44734  1.0000
  H   H58       1.0  0.15784  0.37168  0.44673  1.0000
  H   H59       1.0  0.24317  0.54255  0.42286  1.0000
  H   H60       1.0  0.05055  0.36729  0.06204  1.0000
  H   H61       1.0  0.19953  0.50992  0.12836  1.0000
  H   H62       1.0  0.31258  0.59320  0.20639  1.0000
  C   C72       1.0  0.23453  0.56671  0.14911  1.0000
  C   C73       1.0  0.14778  0.39463  0.05280  1.0000
  H   H63       1.0  0.08942  0.57369  0.38278  1.0000
  H   H64       1.0  0.38012  0.62113  0.43514  1.0000
  H   H65       1.0  0.24288  0.62808  0.38735  1.0000
  C   C74       1.0  0.43238  0.59041  0.40896  1.0000
  C   C75       1.0  0.27919  0.53803  0.18271  1.0000
  H   H66       1.0  0.18479  0.35532  0.13644  1.0000
  H   H67       1.0  0.37773  0.63722  0.29829  1.0000
  H   H68       1.0  0.04465  0.52154  0.42423  1.0000
  C   C76       1.0  0.31988  0.50303  0.44961  1.0000
  C   C77       1.0  0.23433  0.46384  0.03252  1.0000
  C   C78       1.0  0.24729  0.51428  0.16098  1.0000
  C   C79       1.0  0.11832  0.37200  0.98956  1.0000
  H   H69       1.0  0.41273  0.57228  0.46805  1.0000
  H   H70       1.0  0.21725  0.37063  0.46810  1.0000
  P   P3        1.0  0.30256  0.59668  0.47479  1.0000
  C   C80       1.0  0.08796  0.57788  0.41469  1.0000
  C   C81       1.0  0.15161  0.38784  0.01178  1.0000
  P   P4        1.0  0.27889  0.64022  0.17625  1.0000
  C   C82       1.0  0.12287  0.32788  0.13072  1.0000
  C   C83       1.0  0.25455  0.58973  0.46386  1.0000
  H   H71       1.0  0.14524  0.60573  0.22998  1.0000
  C   C84       1.0  0.17766  0.57473  0.45176  1.0000
  C   C85       1.0  0.48687  0.65144  0.40254  1.0000
  C   C86       1.0  0.08637  0.34593  0.18251  1.0000
  C   C87       1.0  0.26650  0.59082  0.17109  1.0000
  H   H72       1.0  0.31912  0.48011  0.46559  1.0000
  H   H73       1.0  0.05667  0.35345  0.98992  1.0000
  C   C88       1.0  0.22483  0.52858  0.14436  1.0000
  C   C89       1.0  0.26331  0.49012  0.05608  1.0000
  H   H74       1.0  0.20983  0.46866  0.02619  1.0000
  C   C90       1.0  0.20264  0.61997  0.20456  1.0000
  C   C91       1.0  0.06262  0.54849  0.43812  1.0000
  C   C92       1.0  0.43366  0.59469  0.45036  1.0000
  C   C93       1.0  0.17049  0.62669  0.21472  1.0000
  C   C94       1.0  0.31932  0.56075  0.40786  1.0000
  H   H75       1.0  0.21682  0.57734  0.13600  1.0000
  H   H76       1.0  0.32288  0.44801  0.05528  1.0000
  H   H77       1.0  0.17244  0.40430  0.07128  1.0000
  H   H78       1.0  0.13206  0.63483  0.41406  1.0000
  H   H79       1.0  0.29603  0.52672  0.19641  1.0000
  C   C95       1.0  0.20125  0.64658  0.31334  1.0000
  C   C96       1.0  0.07877  0.37340  0.04802  1.0000
  C   C97       1.0  0.11153  0.38775  0.07072  1.0000
  H   H80       1.0  0.33022  0.48105  0.39236  1.0000
  C   C98       1.0  0.23219  0.56090  0.43732  1.0000
  H   H81       1.0  0.23942  0.48461  0.15805  1.0000
  H   H82       1.0  0.26112  0.51498  0.06789  1.0000
  C   C99       1.0  0.45870  0.61892  0.38507  1.0000
  C   C100      1.0  0.19425  0.55394  0.43071  1.0000
  C   C101      1.0  0.15718  0.35268  0.14911  1.0000
  H   H83       1.0  0.33040  0.53243  0.35551  1.0000
  H   H84       1.0  0.31831  0.58243  0.39103  1.0000
  C   C102      1.0  0.31330  0.53137  0.47006  1.0000
  H   H85       1.0  0.45732  0.61585  0.35298  1.0000
  H   H86       1.0  0.17746  0.53170  0.40986  1.0000
  C   C103      1.0  0.26236  0.65734  0.39302  1.0000
  C   C104      1.0  0.20068  0.35299  0.98401  1.0000
  H   H87       1.0  0.28359  0.61395  0.09301  1.0000
  C   C105      1.0  0.13965  0.64865  0.31083  1.0000
  C   C106      1.0  0.46142  0.62770  0.46822  1.0000
  C   C107      1.0  0.23576  0.64718  0.18525  1.0000
  C   C108      1.0  0.30243  0.64362  0.09554  1.0000
  H   H88       1.0  0.27240  0.40186  0.01314  1.0000
  H   H89       1.0  0.30805  0.65587  0.35367  1.0000
  H   H90       1.0  0.22304  0.36082  0.53833  1.0000
  Fe  Fe9       1.0  0.25375  0.51612  0.69939  1.0000
  S   S17       1.0  0.22930  0.50815  0.76204  1.0000
  S   S18       1.0  0.31620  0.53013  0.68142  1.0000
  Fe  Fe10      1.0  0.17455  0.48767  0.66368  1.0000
  S   S19       1.0  0.14279  0.47741  0.72426  1.0000
  S   S20       1.0  0.14573  0.48159  0.60481  1.0000
  Fe  Fe11      1.0  0.19155  0.53271  0.74215  1.0000
  S   S21       1.0  0.18784  0.58015  0.77876  1.0000
  Fe  Fe12      1.0  0.18251  0.45304  0.74048  1.0000
  S   S22       1.0  0.17226  0.40044  0.77317  1.0000
  S   S23       1.0  0.21966  0.54498  0.68121  1.0000
  S   S24       1.0  0.21019  0.45921  0.67846  1.0000
  C   C109      1.0  0.14064  0.37717  0.81427  1.0000
  C   C110      1.0  0.08369  0.36340  0.85881  1.0000
  C   C111      1.0  0.10914  0.38402  0.82760  1.0000
  H   H91       1.0  0.05902  0.36847  0.86829  1.0000
  H   H92       1.0  0.10390  0.40464  0.81335  1.0000
  C   C112      1.0  0.17120  0.60540  0.75138  1.0000
  C   C113      1.0  0.14640  0.58766  0.72046  1.0000
  H   H93       1.0  0.07654  0.54489  0.61253  1.0000
  C   C114      1.0  0.10753  0.61058  0.91828  1.0000
  H   H94       1.0  0.13814  0.55849  0.71268  1.0000
  H   H95       1.0  0.09191  0.33671  0.73380  1.0000
  C   C115      1.0  0.12486  0.34178  0.67834  1.0000
  H   H96       1.0  0.09729  0.58293  0.92982  1.0000
  C   C116      1.0  0.35700  0.60842  0.68900  1.0000
  C   C117      1.0  0.35788  0.57375  0.68193  1.0000
  C   C118      1.0  0.39354  0.57297  0.67404  1.0000
  C   C119      1.0  0.42801  0.60605  0.67279  1.0000
  C   C120      1.0  0.18022  0.63581  0.61186  1.0000
  H   H97       1.0  0.32971  0.60941  0.69619  1.0000
  H   H98       1.0  0.39463  0.54646  0.66926  1.0000
  H   H99       1.0  0.45532  0.60475  0.66681  1.0000
  H   H100      1.0  0.02188  0.49180  0.64303  1.0000
  C   C121      1.0  0.18171  0.43203  0.92774  1.0000
  H   H101      1.0  0.12271  0.55091  0.54179  1.0000
  C   C122      1.0  0.15983  0.47303  0.48417  1.0000
  H   H102      1.0  0.25676  0.40868  0.92403  1.0000
  P   P5        1.0  0.08070  0.59633  0.55059  1.0000
  H   H103      1.0  0.25260  0.63032  0.50853  1.0000
  C   C123      1.0  0.26793  0.56136  0.54456  1.0000
  C   C124      1.0  0.06386  0.65582  0.53547  1.0000
  H   H104      1.0  0.12241  0.48550  0.52691  1.0000
  H   H105      1.0  0.06479  0.64856  0.50423  1.0000
  P   P6        1.0  0.17207  0.35204  0.60924  1.0000
  H   H106      1.0  0.04100  0.53039  0.49684  1.0000
  H   H107      1.0  0.24137  0.53234  0.59813  1.0000
  C   C125      1.0  0.14674  0.35004  0.83327  1.0000
  C   C126      1.0  0.12958  0.61941  0.88251  1.0000
  C   C127      1.0  0.22969  0.37862  0.66394  1.0000
  H   H108      1.0  0.11115  0.59317  0.67719  1.0000
  C   C128      1.0  0.21926  0.38366  0.62663  1.0000
  H   H109      1.0  0.99743  0.56167  0.54127  1.0000
  C   C129      1.0  0.19910  0.60274  0.47927  1.0000
  C   C130      1.0  0.29945  0.59198  0.52758  1.0000
  C   C131      1.0  0.32745  0.61855  0.55206  1.0000
  C   C132      1.0  0.32463  0.61348  0.59288  1.0000
  C   C133      1.0  0.29393  0.58228  0.60927  1.0000
  H   H110      1.0  0.09534  0.41931  0.65668  1.0000
  H   H111      1.0  0.29801  0.46572  0.60496  1.0000
  C   C134      1.0  0.23729  0.61003  0.48556  1.0000
  C   C135      1.0  0.00309  0.54629  0.56309  1.0000
  C   C136      1.0  0.38742  0.52540  0.58643  1.0000
  C   C137      1.0  0.27957  0.44069  0.62069  1.0000
  H   H112      1.0  0.17098  0.34447  0.82332  1.0000
  C   C138      1.0  0.13244  0.35618  0.54476  1.0000
  H   H113      1.0  0.39838  0.58450  0.76920  1.0000
  H   H114      1.0  0.36980  0.50084  0.60329  1.0000
  C   C139      1.0  0.19506  0.46588  0.55083  1.0000
  H   H115      1.0  0.44132  0.52545  0.59912  1.0000
  C   C140      1.0  0.42758  0.64068  0.67956  1.0000
  C   C141      1.0  0.04773  0.53698  0.60275  1.0000
  C   C142      1.0  0.17183  0.57765  0.57814  1.0000
  H   H116      1.0  0.30383  0.60904  0.80728  1.0000
  H   H117      1.0  0.31657  0.45580  0.67016  1.0000
  H   H118      1.0  0.13955  0.40592  0.60956  1.0000
  H   H119      1.0  0.21380  0.63739  0.92684  1.0000
  H   H120      1.0  0.27224  0.40079  0.70857  1.0000
  H   H121      1.0  0.21003  0.35558  0.68184  1.0000
  H   H122      1.0  0.32864  0.56334  0.78761  1.0000
  H   H123      1.0  0.33868  0.53347  0.57066  1.0000
  C   C143      1.0  0.01659  0.50684  0.62051  1.0000
  C   C144      1.0  0.18727  0.44609  0.88980  1.0000
  C   C145      1.0  0.21756  0.44646  0.86432  1.0000
  C   C146      1.0  0.24271  0.43325  0.87691  1.0000
  H   H124      1.0  0.15824  0.43241  0.94693  1.0000
  H   H125      1.0  0.07171  0.38511  0.71924  1.0000
  P   P7        1.0  0.46252  0.63447  0.52176  1.0000
  C   C147      1.0  0.06960  0.63512  0.56413  1.0000
  C   C148      1.0  0.13785  0.36055  0.64255  1.0000
  H   H126      1.0  0.19174  0.34383  0.92077  1.0000
  H   H127      1.0  0.24556  0.54100  0.52619  1.0000
  H   H128      1.0  0.22114  0.45644  0.83454  1.0000
  H   H129      1.0  0.26603  0.43343  0.85695  1.0000
  C   C149      1.0  0.20594  0.41732  0.94011  1.0000
  H   H130      1.0  0.48200  0.58301  0.56362  1.0000
  H   H131      1.0  0.44318  0.65222  0.76871  1.0000
  H   H132      1.0  0.35174  0.64267  0.53976  1.0000
  C   C150      1.0  0.08946  0.33591  0.87747  1.0000
  C   C151      1.0  0.39281  0.57620  0.54739  1.0000
  C   C152      1.0  0.19353  0.36626  0.48958  1.0000
  H   H133      1.0  0.13925  0.65592  0.60066  1.0000
  C   C153      1.0  0.08359  0.58871  0.49743  1.0000
  C   C154      1.0  0.23717  0.41906  0.91479  1.0000
  H   H134      1.0  0.18097  0.55575  0.57229  1.0000
  C   C155      1.0  0.04125  0.55663  0.57342  1.0000
  C   C156      1.0  0.14660  0.47868  0.52293  1.0000
  C   C157      1.0  0.26540  0.55639  0.58524  1.0000
  C   C158      1.0  0.20813  0.45998  0.51212  1.0000
  C   C159      1.0  0.14777  0.63376  0.59394  1.0000
  C   C160      1.0  0.28993  0.43520  0.65759  1.0000
  C   C161      1.0  0.43340  0.59101  0.54595  1.0000
  C   C162      1.0  0.34846  0.59293  0.78909  1.0000
  C   C163      1.0  0.13889  0.57510  0.56078  1.0000
  C   C164      1.0  0.19696  0.33335  0.94728  1.0000
  H   H135      1.0  0.29237  0.57810  0.64067  1.0000
  C   C165      1.0  0.14244  0.65490  0.86739  1.0000
  C   C166      1.0  0.08962  0.37788  0.69760  1.0000
  C   C167      1.0  0.12774  0.38918  0.63548  1.0000
  C   C168      1.0  0.09829  0.63725  0.93887  1.0000
  C   C169      1.0  0.06052  0.55375  0.47936  1.0000
  C   C170      1.0  0.18185  0.64323  0.76125  1.0000
  H   H136      1.0  0.37902  0.59017  0.53312  1.0000
  C   C171      1.0  0.19202  0.60756  0.60433  1.0000
  H   H137      1.0  0.23629  0.42085  0.57749  1.0000
  H   H138      1.0  0.13616  0.59856  0.86601  1.0000
  H   H139      1.0  0.16756  0.45595  0.87968  1.0000
  C   C172      1.0  0.12610  0.60276  0.56923  1.0000
  C   C173      1.0  0.36991  0.54381  0.56804  1.0000
  C   C174      1.0  0.13109  0.60728  0.70047  1.0000
  C   C175      1.0  0.16407  0.47508  0.55650  1.0000
  H   H140      1.0  0.20867  0.46303  0.57636  1.0000
  C   C176      1.0  0.26496  0.40421  0.67923  1.0000
  H   H141      1.0  0.21647  0.60857  0.61916  1.0000
  C   C177      1.0  0.24435  0.41510  0.60524  1.0000
  C   C178      1.0  0.16685  0.35742  0.55762  1.0000
  C   C179      1.0  0.10073  0.35035  0.70563  1.0000
  C   C180      1.0  0.19684  0.36120  0.52943  1.0000
  H   H142      1.0  0.34635  0.63330  0.61206  1.0000
  C   C181      1.0  0.42778  0.53944  0.58429  1.0000
  H   H143      1.0  0.10802  0.35143  0.56528  1.0000
  C   C182      1.0  0.38776  0.60480  0.77869  1.0000
  C   C183      1.0  0.41300  0.64296  0.77850  1.0000
  H   H144      1.0  0.20135  0.65706  0.78488  1.0000
  C   C184      1.0  0.10300  0.39717  0.66245  1.0000
  C   C185      1.0  0.33444  0.61916  0.80001  1.0000
  H   H145      1.0  0.12925  0.64437  0.48730  1.0000
  C   C186      1.0  0.39195  0.64200  0.68730  1.0000
  H   H146      1.0  0.18593  0.61837  0.49618  1.0000
  H   H147      1.0  0.23179  0.45238  0.50815  1.0000
  H   H148      1.0  0.06403  0.65814  0.75475  1.0000
  C   C187      1.0  0.14156  0.64503  0.71034  1.0000
  H   H149      1.0  0.20579  0.61249  0.85722  1.0000
  C   C188      1.0  0.12155  0.32975  0.86483  1.0000
  H   H150      1.0  0.26071  0.63590  0.80836  1.0000
  H   H151      1.0  0.06795  0.62743  0.62701  1.0000
  C   C189      1.0  0.12929  0.36137  0.50492  1.0000
  C   C190      1.0  0.23372  0.63369  0.86640  1.0000
  C   C191      1.0  0.45078  0.57218  0.56417  1.0000
  C   C192      1.0  0.06532  0.64403  0.60442  1.0000
  H   H152      1.0  0.42440  0.64420  0.59691  1.0000
  H   H153      1.0  0.30799  0.52988  0.50181  1.0000
  C   C193      1.0  0.26513  0.64685  0.83874  1.0000
  H   H154      1.0  0.10333  0.36187  0.49538  1.0000
  C   C194      1.0  0.23833  0.64767  0.90558  1.0000
  H   H155      1.0  0.08102  0.63032  0.96651  1.0000
  H   H156      1.0  0.12022  0.36449  0.95839  1.0000
  C   C195      1.0  0.19058  0.46341  0.47849  1.0000
  C   C196      1.0  0.15991  0.36667  0.47742  1.0000
  C   C197      1.0  0.35972  0.65764  0.80060  1.0000
  H   H157      1.0  0.19544  0.65886  0.63262  1.0000
  S   S25       1.0  0.45071  0.72850  0.34603  1.0000
  S   S26       1.0  0.40934  0.80041  0.34384  1.0000
  Fe  Fe13      1.0  0.19149  0.81220  0.34768  1.0000
  S   S27       1.0  0.21559  0.84241  0.29075  1.0000
  S   S28       1.0  0.21193  0.84424  0.40606  1.0000
  Fe  Fe14      1.0  0.15010  0.73700  0.30352  1.0000
  S   S29       1.0  0.16963  0.76139  0.24333  1.0000
  H   H158      1.0  0.04953  0.79619  0.14595  1.0000
  Fe  Fe15      1.0  0.22741  0.79365  0.27052  1.0000
  S   S30       1.0  0.28033  0.79563  0.23480  1.0000
  Fe  Fe16      1.0  0.15590  0.80787  0.26817  1.0000
  S   S31       1.0  0.12409  0.83591  0.24005  1.0000
  S   S32       1.0  0.20863  0.76664  0.32930  1.0000
  S   S33       1.0  0.13097  0.78052  0.32668  1.0000
  Fe  Fe17      1.0  0.09567  0.89788  0.03062  1.0000
  S   S34       1.0  0.12656  0.86788  0.05715  1.0000
  S   S35       1.0  0.06350  0.92835  0.06038  1.0000
  C   C198      1.0  0.12568  0.84468  0.18901  1.0000
  C   C199      1.0  0.13903  0.82665  0.15936  1.0000
  C   C200      1.0  0.13882  0.83388  0.11913  1.0000
  C   C201      1.0  0.12568  0.85941  0.10815  1.0000
  C   C202      1.0  0.11219  0.87732  0.13779  1.0000
  C   C203      1.0  0.11210  0.86985  0.17792  1.0000
  H   H159      1.0  0.14898  0.80680  0.16739  1.0000
  H   H160      1.0  0.14854  0.81936  0.09631  1.0000
  H   H161      1.0  0.10194  0.89698  0.12978  1.0000
  H   H162      1.0  0.10202  0.88417  0.20056  1.0000
  C   C204      1.0  0.18733  0.82770  0.45227  1.0000
  H   H163      1.0  0.34361  0.87652  0.26849  1.0000
  H   H164      1.0  0.38388  0.84461  0.41963  1.0000
  C   C205      1.0  0.27542  0.71732  0.42609  1.0000
  C   C206      1.0  0.14723  0.80535  0.45547  1.0000
  C   C207      1.0  0.43614  0.82123  0.08663  1.0000
  H   H165      1.0  0.15629  0.92304  0.25766  1.0000
  H   H166      1.0  0.13068  0.79673  0.42905  1.0000
  H   H167      1.0  0.19524  0.69662  0.30864  1.0000
  C   C208      1.0  0.37472  0.79929  0.31197  1.0000
  C   C209      1.0  0.37706  0.79245  0.27095  1.0000
  C   C210      1.0  0.34800  0.79124  0.24711  1.0000
  C   C211      1.0  0.31657  0.79662  0.26433  1.0000
  C   C212      1.0  0.31475  0.80389  0.30514  1.0000
  C   C213      1.0  0.34386  0.80548  0.32874  1.0000
  H   H168      1.0  0.40088  0.78772  0.25768  1.0000
  H   H169      1.0  0.34964  0.78573  0.21546  1.0000
  H   H170      1.0  0.29108  0.80879  0.31831  1.0000
  H   H171      1.0  0.34251  0.81134  0.36022  1.0000
  H   H172      1.0  0.38969  0.83298  0.07083  1.0000
  Fe  Fe18      1.0  0.45339  0.78033  0.32124  1.0000
  C   C214      1.0  0.29914  0.67304  0.37401  1.0000
  C   C215      1.0  0.32188  0.91046  0.30395  1.0000
  H   H173      1.0  0.40433  0.69235  0.23980  1.0000
  H   H174      1.0  0.41482  0.66997  0.11349  1.0000
  C   C216      1.0  0.04308  0.86588  0.26955  1.0000
  C   C217      1.0  0.02838  0.83780  0.23982  1.0000
  C   C218      1.0  0.00891  0.80011  0.24969  1.0000
  H   H175      1.0  0.25166  0.90616  0.10514  1.0000
  H   H176      1.0  0.33262  0.90688  0.33128  1.0000
  C   C219      1.0  0.43859  0.69436  0.12598  1.0000
  H   H177      1.0  0.04740  0.68612  0.13758  1.0000
  H   H178      1.0  0.32808  0.91744  0.12570  1.0000
  H   H179      1.0  0.04713  0.82322  0.08329  1.0000
  H   H180      1.0  0.26917  0.67647  0.25225  1.0000
  H   H181      1.0  0.43584  0.73152  0.08509  1.0000
  S   S36       1.0  0.04690  0.86313  0.99072  1.0000
  H   H182      1.0  0.01519  0.81179  0.35026  1.0000
  H   H183      1.0  0.10371  0.71202  0.46780  1.0000
  H   H184      1.0  0.22219  0.66644  0.43402  1.0000
  H   H185      1.0  0.08346  0.71968  0.25689  1.0000
  C   C220      1.0  0.43332  0.79081  0.00929  1.0000
  C   C221      1.0  0.19122  0.72003  0.43104  1.0000
  C   C222      1.0  0.40626  0.81629  0.45458  1.0000
  C   C223      1.0  0.30929  0.86770  0.43438  1.0000
  H   H186      1.0  0.46117  0.84630  0.23796  1.0000
  H   H187      1.0  0.05898  0.89483  0.26160  1.0000
  H   H188      1.0  0.03291  0.84560  0.20918  1.0000
  P   P8        1.0  0.27270  0.92190  0.18780  1.0000
  H   H189      1.0  0.40375  0.79540  0.43135  1.0000
  H   H190      1.0  0.29707  0.94546  0.33136  1.0000
  C   C224      1.0  0.40451  0.68023  0.43158  1.0000
  C   C225      1.0  0.31229  0.73301  0.40674  1.0000
  C   C226      1.0  0.20728  0.92309  0.22747  1.0000
  C   C227      1.0  0.04545  0.74046  0.23638  1.0000
  H   H191      1.0  0.15035  0.96500  0.21040  1.0000
  H   H192      1.0  0.35278  0.72308  0.36638  1.0000
  C   C228      1.0  0.18002  0.66689  0.31105  1.0000
  C   C229      1.0  0.03833  0.85652  0.30932  1.0000
  C   C230      1.0  0.15238  0.71317  0.43171  1.0000
  C   C231      1.0  0.29613  0.83973  0.40457  1.0000
  C   C232      1.0  0.28290  0.80228  0.41365  1.0000
  C   C233      1.0  0.39992  0.71251  0.44098  1.0000
  Fe  Fe19      1.0  0.47121  0.71804  0.28519  1.0000
  C   C234      1.0  0.32408  0.66194  0.06183  1.0000
  C   C235      1.0  0.30182  0.93214  0.30395  1.0000
  S   S37       1.0  0.12783  0.94241  0.98584  1.0000
  H   H193      1.0  0.27244  0.95358  0.26937  1.0000
  C   C236      1.0  0.02296  0.79704  0.13903  1.0000
  H   H194      1.0  0.29414  0.84694  0.37482  1.0000
  H   H195      1.0  0.27145  0.78084  0.39036  1.0000
  C   C237      1.0  0.06722  0.72026  0.23230  1.0000
  P   P9        1.0  0.99196  0.76345  0.21143  1.0000
  C   C238      1.0  0.22776  0.81144  0.15082  1.0000
  C   C239      1.0  0.36592  0.70983  0.46100  1.0000
  H   H196      1.0  0.47992  0.77928  0.02447  1.0000
  H   H197      1.0  0.31788  0.89648  0.42751  1.0000
  C   C240      1.0  0.17413  0.95749  0.20656  1.0000
  S   S38       1.0  0.46820  0.76693  0.25882  1.0000
  C   C241      1.0  0.28311  0.79257  0.45268  1.0000
  C   C242      1.0  0.29162  0.91739  0.23350  1.0000
  H   H198      1.0  0.31786  0.88295  0.20655  1.0000
  C   C243      1.0  0.35196  0.72030  0.10027  1.0000
  C   C244      1.0  0.24243  0.84431  0.17455  1.0000
  H   H199      1.0  0.22048  0.78494  0.16383  1.0000
  C   C245      1.0  0.22194  0.81275  0.11075  1.0000
  H   H200      1.0  0.42298  0.73956  0.43312  1.0000
  C   C246      1.0  0.17765  0.93418  0.23336  1.0000
  H   H201      1.0  0.26241  0.70394  0.16482  1.0000
  C   C247      1.0  0.32438  0.70045  0.27790  1.0000
  C   C248      1.0  0.32411  0.71088  0.38091  1.0000
  C   C249      1.0  0.24575  0.87995  0.11804  1.0000
  C   C250      1.0  0.06806  0.70080  0.19671  1.0000
  C   C251      1.0  0.25254  0.87894  0.15808  1.0000
  H   H202      1.0  0.20974  0.78716  0.09263  1.0000
  S   S39       1.0  0.11305  0.67465  0.30872  1.0000
  C   C252      1.0  0.34889  0.70025  0.06421  1.0000
  C   C253      1.0  0.28728  0.93613  0.26875  1.0000
  Fe  Fe20      1.0  0.01755  0.89783  0.01640  1.0000
  H   H203      1.0  0.24553  0.84241  0.20571  1.0000
  C   C254      1.0  0.45060  0.72944  0.11004  1.0000
  C   C255      1.0  0.01870  0.99197  0.10242  1.0000
  H   H204      1.0  0.31506  0.71429  0.30190  1.0000
  C   C256      1.0  0.32796  0.89326  0.26863  1.0000
  H   H205      1.0  0.38490  0.96595  0.09086  1.0000
  P   P10       1.0  0.26260  0.74395  0.46432  1.0000
  C   C257      1.0  0.40927  0.82106  0.06086  1.0000
  C   C258      1.0  0.23075  0.84700  0.09442  1.0000
  H   H206      1.0  0.46485  0.89543  0.34156  1.0000
  Fe  Fe21      1.0  0.09156  0.97052  0.01268  1.0000
  H   H207      1.0  0.20588  0.71912  0.40273  1.0000
  H   H208      1.0  0.22492  0.84796  0.06374  1.0000
  C   C259      1.0  0.29836  0.67916  0.24918  1.0000
  C   C260      1.0  0.33593  0.94664  0.13297  1.0000
  C   C261      1.0  0.36835  0.97406  0.11336  1.0000
  H   H209      1.0  0.33221  0.76211  0.41207  1.0000
  C   C262      1.0  0.46185  0.80614  0.07385  1.0000
  H   H210      1.0  0.05049  0.87822  0.33224  1.0000
  C   C263      1.0  0.45751  0.69061  0.15786  1.0000
  C   C264      1.0  0.23477  0.93667  0.19576  1.0000
  C   C265      1.0  0.23025  0.95903  0.16817  1.0000
  H   H211      1.0  0.04622  0.75590  0.26399  1.0000
  C   C266      1.0  0.00367  0.79096  0.28981  1.0000
  H   H212      1.0  0.20813  0.90331  0.24728  1.0000
  H   H213      1.0  0.43120  0.68228  0.41673  1.0000
  C   C267      1.0  0.13333  0.71590  0.46758  1.0000
  H   H214      1.0  0.37114  0.74995  0.10229  1.0000
  H   H215      1.0  0.38260  0.72150  0.29718  1.0000
  C   C268      1.0  0.25061  0.67927  0.41918  1.0000
  H   H216      1.0  0.33335  0.71819  0.16173  1.0000
  H   H217      1.0  0.43683  0.83335  0.11630  1.0000
  C   C269      1.0  0.31310  0.89684  0.23351  1.0000
  C   C270      1.0  0.31413  0.95700  0.16184  1.0000
  C   C271      1.0  0.36246  0.70487  0.27488  1.0000
  C   C272      1.0  0.23665  0.68171  0.17772  1.0000
  C   C273      1.0  0.20483  0.68870  0.18901  1.0000
  H   H218      1.0  0.44847  0.66340  0.17012  1.0000
  H   H219      1.0  0.45339  0.80125  0.18186  1.0000
  C   C274      1.0  0.01845  0.81908  0.31946  1.0000
  H   H220      1.0  0.39228  0.89409  0.47121  1.0000
  H   H221      1.0  0.13743  0.70682  0.40419  1.0000
  C   C275      1.0  0.21122  0.72961  0.46634  1.0000
  H   H222      1.0  0.36579  0.71439  0.03816  1.0000
  C   C276      1.0  0.46016  0.79084  0.03499  1.0000
  C   C277      1.0  0.40789  0.80592  0.02221  1.0000
  C   C278      1.0  0.37476  0.68870  0.24249  1.0000
  H   H223      1.0  0.14745  0.66690  0.21728  1.0000
  C   C279      1.0  0.04672  0.70118  0.16521  1.0000
  C   C280      1.0  0.02336  0.74054  0.20515  1.0000
  C   C281      1.0  0.39530  0.84420  0.44790  1.0000
  H   H224      1.0  0.36249  0.73484  0.46847  1.0000
  C   C282      1.0  0.33043  0.70211  0.13399  1.0000
  H   H225      1.0  0.23250  0.66126  0.31398  1.0000
  H   H226      1.0  0.20635  0.71594  0.18472  1.0000
  C   C283      1.0  0.99019  0.78310  0.16532  1.0000
  H   H227      1.0  0.08523  0.68542  0.19374  1.0000
  C   C284      1.0  0.02191  0.81273  0.10364  1.0000
  H   H228      1.0  0.24949  0.96787  0.14200  1.0000
  H   H229      1.0  0.38738  0.80626  0.00214  1.0000
  C   C285      1.0  0.02421  0.72070  0.16948  1.0000
  H   H230      1.0  0.46542  0.86532  0.40274  1.0000
  C   C286      1.0  0.33602  0.67487  0.47067  1.0000
  C   C287      1.0  0.20015  0.96955  0.17371  1.0000
  H   H231      1.0  0.02836  0.95757  0.14223  1.0000
  C   C288      1.0  0.01017  0.97065  0.13600  1.0000
  C   C289      1.0  0.48128  0.76116  0.12639  1.0000
  C   C290      1.0  0.47674  0.82934  0.18027  1.0000
  H   H232      1.0  0.00722  0.72004  0.14505  1.0000
  C   C291      1.0  0.34905  0.66796  0.21327  1.0000
  C   C292      1.0  0.30887  0.85819  0.47341  1.0000
  H   H233      1.0  0.98894  0.76201  0.29809  1.0000
  C   C293      1.0  0.48083  0.85487  0.21201  1.0000
  S   S40       1.0  0.45470  0.66132  0.25490  1.0000
  H   H234      1.0  0.19644  0.98633  0.15202  1.0000
  C   C294      1.0  0.17170  0.66116  0.20740  1.0000
  C   C295      1.0  0.30569  0.66351  0.13202  1.0000
  C   C296      1.0  0.31051  0.66280  0.21654  1.0000
  H   H235      1.0  0.43266  0.77951  0.97916  1.0000
  C   C297      1.0  0.98857  0.81542  0.09458  1.0000
  H   H236      1.0  0.98805  0.82809  0.06737  1.0000
  C   C298      1.0  0.42067  0.81552  0.49106  1.0000
  S   S41       1.0  0.45428  0.76783  0.65934  1.0000
  S   S42       1.0  0.41872  0.81859  0.74262  1.0000
  H   H237      1.0  0.41811  0.81494  0.65671  1.0000
  Fe  Fe22      1.0  0.23200  0.79127  0.65143  1.0000
  S   S43       1.0  0.20652  0.76855  0.71097  1.0000
  S   S44       1.0  0.29048  0.79955  0.62490  1.0000
  Fe  Fe23      1.0  0.15774  0.79067  0.62637  1.0000
  S   S45       1.0  0.12573  0.76840  0.68461  1.0000
  S   S46       1.0  0.12491  0.79349  0.57459  1.0000
  Fe  Fe24      1.0  0.18041  0.80929  0.71336  1.0000
  S   S47       1.0  0.18693  0.83984  0.77408  1.0000
  Fe  Fe25      1.0  0.15407  0.72996  0.67871  1.0000
  C   C299      1.0  0.29525  0.82074  0.48280  1.0000
  S   S48       1.0  0.21049  0.83525  0.65531  1.0000
  S   S49       1.0  0.18153  0.74886  0.61869  1.0000
  C   C300      1.0  0.05700  0.68670  0.54712  1.0000
  H   H238      1.0  0.28006  0.91891  0.57372  1.0000
  Fe  Fe26      1.0  0.07735  0.90878  0.94740  1.0000
  S   S50       1.0  0.07609  0.89345  0.88097  1.0000
  C   C301      1.0  0.30165  0.67418  0.84999  1.0000
  H   H239      1.0  0.42186  0.82841  0.83249  1.0000
  C   C302      1.0  0.15458  0.85300  0.80354  1.0000
  C   C303      1.0  0.12236  0.85383  0.78800  1.0000
  C   C304      1.0  0.09845  0.86588  0.81227  1.0000
  C   C305      1.0  0.10621  0.87692  0.85235  1.0000
  C   C306      1.0  0.13789  0.87522  0.86812  1.0000
  C   C307      1.0  0.16201  0.86352  0.84377  1.0000
  H   H240      1.0  0.11636  0.84596  0.75712  1.0000
  H   H241      1.0  0.07403  0.86710  0.79982  1.0000
  H   H242      1.0  0.14423  0.88359  0.89886  1.0000
  H   H243      1.0  0.18677  0.86287  0.85614  1.0000
  C   C308      1.0  0.40643  0.72991  0.85983  1.0000
  H   H244      1.0  0.20626  0.83678  0.55081  1.0000
  C   C309      1.0  0.05538  0.69679  0.58730  1.0000
  H   H245      1.0  0.32412  0.71446  0.59845  1.0000
  C   C310      1.0  0.43834  0.72454  0.53003  1.0000
  H   H246      1.0  0.19598  0.83952  0.95634  1.0000
  C   C311      1.0  0.38392  0.81528  0.70975  1.0000
  C   C312      1.0  0.34904  0.81513  0.72479  1.0000
  C   C313      1.0  0.32024  0.81088  0.69901  1.0000
  C   C314      1.0  0.32660  0.80740  0.65805  1.0000
  C   C315      1.0  0.36217  0.80934  0.64297  1.0000
  C   C316      1.0  0.39059  0.81287  0.66871  1.0000
  H   H247      1.0  0.34414  0.81786  0.75641  1.0000
  H   H248      1.0  0.29315  0.81015  0.71078  1.0000
  H   H249      1.0  0.36791  0.80836  0.61136  1.0000
  Fe  Fe27      1.0  0.46524  0.80378  0.71498  1.0000
  C   C317      1.0  0.08884  0.74866  0.78365  1.0000
  C   C318      1.0  0.07099  0.71460  0.76240  1.0000
  C   C319      1.0  0.48279  0.95246  0.49476  1.0000
  H   H250      1.0  0.10288  0.69268  0.93976  1.0000
  C   C320      1.0  0.11774  0.72158  0.82535  1.0000
  C   C321      1.0  0.11230  0.75223  0.81478  1.0000
  P   P11       1.0  0.14793  0.72670  0.86606  1.0000
  C   C322      1.0  0.14256  0.75986  0.90210  1.0000
  C   C323      1.0  0.37517  0.94532  0.54583  1.0000
  H   H251      1.0  0.44423  0.74800  0.51218  1.0000
  C   C324      1.0  0.33981  0.94726  0.55203  1.0000
  S   S51       1.0  0.12031  0.66795  0.68573  1.0000
  H   H252      1.0  0.40282  0.70257  0.86725  1.0000
  C   C325      1.0  0.99390  0.85422  0.76004  1.0000
  C   C326      1.0  0.10555  0.75740  0.91231  1.0000
  H   H253      1.0  0.20745  0.74225  0.52935  1.0000
  H   H254      1.0  0.40491  0.69256  0.62233  1.0000
  H   H255      1.0  0.15925  0.66119  0.83948  1.0000
  H   H256      1.0  0.25607  0.67405  0.58227  1.0000
  C   C327      1.0  0.19800  0.74431  0.84828  1.0000
  C   C328      1.0  0.22377  0.73512  0.86704  1.0000
  C   C329      1.0  0.26291  0.75014  0.85427  1.0000
  C   C330      1.0  0.25126  0.78415  0.80449  1.0000
  C   C331      1.0  0.21209  0.76904  0.81704  1.0000
  H   H257      1.0  0.08524  0.77263  0.77551  1.0000
  C   C332      1.0  0.47500  0.90206  0.59708  1.0000
  C   C333      1.0  0.28045  0.73653  0.50916  1.0000
  H   H258      1.0  0.41753  0.90229  0.69598  1.0000
  H   H259      1.0  0.12647  0.77912  0.83031  1.0000
  C   C334      1.0  0.44424  0.66762  0.53887  1.0000
  C   C335      1.0  0.13388  0.81361  0.95430  1.0000
  C   C336      1.0  0.44317  0.79733  0.86489  1.0000
  H   H260      1.0  0.27820  0.68543  0.94769  1.0000
  C   C337      1.0  0.47395  0.98576  0.55416  1.0000
  H   H261      1.0  0.08003  0.73522  0.89951  1.0000
  C   C338      1.0  0.27663  0.77462  0.82298  1.0000
  H   H262      1.0  0.20413  0.79272  0.91042  1.0000
  C   C339      1.0  0.42749  0.66590  0.57744  1.0000
  H   H263      1.0  0.21381  0.71672  0.89177  1.0000
  H   H264      1.0  0.28270  0.74303  0.86872  1.0000
  H   H265      1.0  0.19303  0.77711  0.80257  1.0000
  C   C340      1.0  0.25773  0.70550  0.53218  1.0000
  H   H266      1.0  0.04637  0.88142  0.72367  1.0000
  C   C341      1.0  0.42490  0.84301  0.52071  1.0000
  H   H267      1.0  0.05162  0.72157  0.59620  1.0000
  C   C342      1.0  0.10130  0.78421  0.93825  1.0000
  H   H268      1.0  0.39262  0.90743  0.63321  1.0000
  P   P12       1.0  0.42346  0.90993  0.54952  1.0000
  C   C343      1.0  0.17077  0.81625  0.94438  1.0000
  C   C344      1.0  0.33488  0.75096  0.55028  1.0000
  C   C345      1.0  0.43972  0.90419  0.59628  1.0000
  C   C346      1.0  0.43385  0.90284  0.66834  1.0000
  H   H269      1.0  0.31727  0.87977  0.49657  1.0000
  H   H270      1.0  0.33738  0.97185  0.54389  1.0000
  H   H271      1.0  0.46806  0.82206  0.87521  1.0000
  C   C347      1.0  0.34551  0.88344  0.57254  1.0000
  C   C348      1.0  0.46232  0.95246  0.53091  1.0000
  C   C349      1.0  0.30747  0.91748  0.56882  1.0000
  C   C350      1.0  0.41948  0.90508  0.63234  1.0000
  H   H272      1.0  0.28521  0.86236  0.59178  1.0000
  H   H273      1.0  0.43618  0.84167  0.54866  1.0000
  H   H274      1.0  0.22804  0.68718  0.52514  1.0000
  C   C351      1.0  0.37838  0.91354  0.55668  1.0000
  H   H275      1.0  0.23891  0.85752  0.48489  1.0000
  H   H276      1.0  0.30694  0.78635  0.81317  1.0000
  C   C352      1.0  0.46853  0.89992  0.66876  1.0000
  C   C353      1.0  0.15306  0.72540  0.50283  1.0000
  H   H277      1.0  0.29897  0.72790  0.67003  1.0000
  H   H278      1.0  0.05787  0.94532  0.74752  1.0000
  C   C354      1.0  0.43767  0.76182  0.87460  1.0000
  H   H279      1.0  0.41428  0.74464  0.58003  1.0000
  H   H280      1.0  0.26188  0.80359  0.78059  1.0000
  C   C355      1.0  0.14951  0.80635  0.52772  1.0000
  C   C356      1.0  0.27353  0.69770  0.56432  1.0000
  C   C357      1.0  0.27458  0.67467  0.91725  1.0000
  C   C358      1.0  0.41638  0.69337  0.59204  1.0000
  H   H281      1.0  0.05784  0.68289  0.64719  1.0000
  H   H282      1.0  0.36479  0.76844  0.55711  1.0000
  S   S52       1.0  0.04419  0.94106  0.97041  1.0000
  H   H283      1.0  0.39965  0.96858  0.53255  1.0000
  C   C359      1.0  0.41711  0.80093  0.84093  1.0000
  C   C360      1.0  0.31034  0.88558  0.57899  1.0000
  H   H284      1.0  0.41888  0.69867  0.78660  1.0000
  H   H285      1.0  0.29300  0.81385  0.51364  1.0000
  C   C361      1.0  0.18969  0.82788  0.52440  1.0000
  H   H286      1.0  0.45922  0.98608  0.58264  1.0000
  C   C362      1.0  0.29249  0.70543  0.76643  1.0000
  C   C363      1.0  0.41516  0.87189  0.51367  1.0000
  H   H287      1.0  0.34726  0.85843  0.58037  1.0000
  C   C364      1.0  0.16736  0.66320  0.74046  1.0000
  C   C365      1.0  0.20826  0.83928  0.48694  1.0000
  C   C366      1.0  0.34276  0.72034  0.69915  1.0000
  C   C367      1.0  0.11073  0.67267  0.92351  1.0000
  C   C368      1.0  0.31910  0.75915  0.51853  1.0000
  C   C369      1.0  0.44970  0.69731  0.51540  1.0000
  H   H288      1.0  0.47895  0.89713  0.69670  1.0000
  C   C370      1.0  0.31204  0.72039  0.57338  1.0000
  C   C371      1.0  0.13271  0.68168  0.88744  1.0000
  H   H289      1.0  0.45827  0.75904  0.89263  1.0000
  C   C372      1.0  0.35338  0.71216  0.73463  1.0000
  C   C373      1.0  0.39991  0.87201  0.47722  1.0000
  H   H290      1.0  0.27286  0.70076  0.79212  1.0000
  H   H291      1.0  0.13879  0.72901  0.53048  1.0000
  C   C374      1.0  0.19202  0.73269  0.50218  1.0000
  C   C375      1.0  0.12830  0.79542  0.49317  1.0000
  C   C376      1.0  0.42166  0.72265  0.56828  1.0000
  H   H292      1.0  0.17521  0.69224  0.74846  1.0000
  H   H293      1.0  0.36285  0.72746  0.67352  1.0000
  C   C377      1.0  0.28199  0.71371  0.73095  1.0000
  P   P13       1.0  0.34190  0.69209  0.81357  1.0000
  C   C378      1.0  0.30694  0.72079  0.69723  1.0000
  C   C379      1.0  0.38598  0.76908  0.82593  1.0000
  H   H294      1.0  0.09717  0.77898  0.49555  1.0000
  H   H295      1.0  0.33384  0.70881  0.89945  1.0000
  S   S53       1.0  0.47287  0.68061  0.67826  1.0000
  H   H296      1.0  0.25465  0.71505  0.72966  1.0000
  C   C380      1.0  0.99337  0.95827  0.89139  1.0000
  H   H297      1.0  0.42901  0.79385  0.49630  1.0000
  C   C381      1.0  0.38083  0.73334  0.83465  1.0000
  H   H298      1.0  0.05382  0.70349  0.52510  1.0000
  H   H299      1.0  0.36686  0.77255  0.80642  1.0000
  H   H300      1.0  0.33727  0.78278  0.50084  1.0000
  C   C382      1.0  0.17520  0.78955  0.91836  1.0000
  H   H301      1.0  0.05347  0.71205  0.73771  1.0000
  C   C383      1.0  0.32794  0.70371  0.76834  1.0000
  H   H302      1.0  0.31002  0.67376  0.48586  1.0000
  C   C384      1.0  0.30617  0.68781  0.88966  1.0000
  C   C385      1.0  0.10028  0.68764  0.80325  1.0000
  C   C386      1.0  0.07684  0.68419  0.77212  1.0000
  C   C387      1.0  0.39898  0.66927  0.78866  1.0000
  H   H303      1.0  0.39149  0.66866  0.69280  1.0000
  H   H304      1.0  0.99136  0.83517  0.92469  1.0000
  H   H305      1.0  0.38177  0.71319  0.73593  1.0000
  H   H306      1.0  0.10473  0.66377  0.80940  1.0000
  H   H307      1.0  0.46396  0.70052  0.48630  1.0000
  H   H308      1.0  0.07281  0.78273  0.94539  1.0000
  H   H309      1.0  0.13055  0.83465  0.97403  1.0000
  H   H310      1.0  0.99675  0.87591  0.87117  1.0000
  C   C388      1.0  0.05902  0.67515  0.61596  1.0000
  Fe  Fe28      1.0  0.48627  0.74154  0.68725  1.0000
  C   C389      1.0  0.00692  0.92635  0.78700  1.0000
  C   C390      1.0  0.02605  0.88528  0.74511  1.0000
  C   C391      1.0  0.03250  0.92130  0.75853  1.0000
  H   H311      1.0  0.00073  0.93766  0.90245  1.0000
  H   H312      1.0  0.01305  0.95447  0.79760  1.0000
  H   H313      1.0  0.98932  0.82629  0.75014  1.0000
  H   H314      1.0  0.47555  0.92706  0.47675  1.0000
  H   H315      1.0  0.89621  0.12371  0.13892  1.0000
  C   C392      1.0  0.92978  0.05774  0.13461  1.0000
  C   C393      1.0  0.70674  0.03363  0.38512  1.0000
  C   C394      1.0  0.92465  0.00766  0.02099  1.0000
  C   C395      1.0  0.89690  0.10883  0.02666  1.0000
  C   C396      1.0  0.82669  0.10533  0.05908  1.0000
  H   H316      1.0  0.93268  0.14230  0.20067  1.0000
  H   H317      1.0  0.66243  0.05225  0.39680  1.0000
  H   H318      1.0  0.96580  0.05348  0.17832  1.0000
  C   C397      1.0  0.96174  0.00239  0.11759  1.0000
  C   C398      1.0  0.82692  0.07304  0.04075  1.0000
  H   H319      1.0  0.85076  0.01092  0.13638  1.0000
  H   H320      1.0  0.86334  0.04969  0.01171  1.0000
  C   C399      1.0  0.93163  0.11855  0.18249  1.0000
  C   C400      1.0  0.86085  0.13873  0.06166  1.0000
  C   C401      1.0  0.66863  0.02831  0.39338  1.0000
  C   C402      1.0  0.91111  0.10813  0.14778  1.0000
  C   C403      1.0  0.89609  0.14104  0.04516  1.0000
  C   C404      1.0  0.91035  0.07799  0.12386  1.0000
  H   H321      1.0  0.92396  0.11029  0.01386  1.0000
  P   P14       1.0  0.92742  0.01831  0.10356  1.0000
  H   H322      1.0  0.70517  0.01866  0.99485  1.0000
  C   C405      1.0  0.97841  0.08157  0.00662  1.0000
  C   C406      1.0  0.93960  0.03321  0.05306  1.0000
  C   C407      1.0  0.95044  0.06842  0.16945  1.0000
  C   C408      1.0  0.93665  0.01911  0.98208  1.0000
  H   H323      1.0  0.85976  0.16326  0.07602  1.0000
  S   S54       1.0  0.93732  0.18519  0.04964  1.0000
  C   C409      1.0  0.86240  0.07461  0.02501  1.0000
  H   H324      1.0  0.73001  0.06164  0.38201  1.0000
  H   H325      1.0  0.79970  0.10456  0.07147  1.0000
  S   S55       1.0  0.78138  0.03268  0.03873  1.0000
  H   H326      1.0  0.89430  0.07025  0.09704  1.0000
  H   H327      1.0  0.88477  0.20236  0.98652  1.0000
  C   C410      1.0  0.96686  0.07021  0.04556  1.0000
  C   C411      1.0  0.95153  0.09888  0.19316  1.0000
  H   H328      1.0  0.74445  0.00693  0.37501  1.0000
  C   C412      1.0  0.71487  0.00281  0.38112  1.0000
  H   H329      1.0  0.96791  0.10736  0.21974  1.0000
  H   H330      1.0  0.97962  0.09029  0.06969  1.0000
  H   H331      1.0  0.97776  0.16477  0.10761  1.0000
  H   H332      1.0  0.97199  0.21836  0.14263  1.0000
  H   H333      1.0  0.76851  0.06420  0.96841  1.0000
  H   H334      1.0  0.74927  0.09287  0.77622  1.0000
  C   C413      1.0  0.83291  0.11171  0.92106  1.0000
  C   C414      1.0  0.81142  0.11593  0.76766  1.0000
  H   H335      1.0  0.81574  0.18012  0.97119  1.0000
  C   C415      1.0  0.52454  0.01870  0.50467  1.0000
  C   C416      1.0  0.76093  0.03940  0.90868  1.0000
  C   C417      1.0  0.74930  0.04265  0.94847  1.0000
  C   C418      1.0  0.77496  0.08250  0.82560  1.0000
  C   C419      1.0  0.81292  0.13228  0.93553  1.0000
  H   H336      1.0  0.74731  0.06857  0.84171  1.0000
  C   C420      1.0  0.83150  0.16483  0.95917  1.0000
  C   C421      1.0  0.89079  0.15790  0.95221  1.0000
  H   H337      1.0  0.87196  0.11206  0.83348  1.0000
  H   H338      1.0  0.81217  0.12702  0.73905  1.0000
  C   C422      1.0  0.87219  0.12505  0.92913  1.0000
  H   H339      1.0  0.82993  0.03880  0.95281  1.0000
  H   H340      1.0  0.92089  0.16776  0.95909  1.0000
  C   C423      1.0  0.84496  0.10716  0.82090  1.0000
  C   C424      1.0  0.83516  0.04236  0.88910  1.0000
  C   C425      1.0  0.77599  0.09664  0.78856  1.0000
  C   C426      1.0  0.80942  0.08700  0.84166  1.0000
  C   C427      1.0  0.71330  0.01663  0.96374  1.0000
  H   H341      1.0  0.78288  0.12294  0.92891  1.0000
  H   H342      1.0  0.88862  0.11023  0.91786  1.0000
  H   H343      1.0  0.97200  0.06516  0.94482  1.0000
  P   P15       1.0  0.80908  0.07016  0.88992  1.0000
  C   C428      1.0  0.84591  0.12137  0.78393  1.0000
  H   H344      1.0  0.51354  0.04437  0.55907  1.0000
  C   C429      1.0  0.84084  0.03080  0.92524  1.0000
  H   H345      1.0  0.87346  0.13686  0.76807  1.0000
  C   C430      1.0  0.87039  0.17754  0.96762  1.0000
  C   C431      1.0  0.50479  0.01877  0.54096  1.0000
  H   H346      1.0  0.54851  0.04431  0.49455  1.0000
  C   C432      1.0  0.73652  0.00897  0.88482  1.0000
  C   C433      1.0  0.85877  0.00735  0.92599  1.0000
  H   H347      1.0  0.74576  0.00461  0.85473  1.0000
  C   C434      1.0  0.96310  0.05611  0.97490  1.0000
  H   H348      1.0  0.84115  0.03644  0.82509  1.0000
  C   C435      1.0  0.84685  0.02941  0.85344  1.0000
  H   H349      1.0  0.97096  0.03466  0.85098  1.0000
  H   H350      1.0  0.86143  0.99732  0.95407  1.0000
  C   C436      1.0  0.97697  0.01321  0.86240  1.0000
  C   C437      1.0  0.86524  0.00619  0.85428  1.0000
  C   C438      1.0  0.87126  0.99526  0.89059  1.0000
  H   H351      1.0  0.92552  0.99916  0.95748  1.0000
  H   H352      1.0  0.87395  0.99588  0.82684  1.0000
  H   H353      1.0  0.88358  0.63611  0.22239  1.0000
  H   H354      1.0  0.83894  0.65796  0.25895  1.0000
  C   C439      1.0  0.48842  0.65575  0.44386  1.0000
  H   H355      1.0  0.95470  0.47308  0.62357  1.0000
  H   H356      1.0  0.94265  0.50829  0.57284  1.0000
  C   C440      1.0  0.51182  0.65374  0.53727  1.0000
  C   C441      1.0  0.97202  0.51615  0.58098  1.0000
  C   C442      1.0  0.53993  0.64683  0.51433  1.0000
  C   C443      1.0  0.97877  0.49635  0.60959  1.0000
  H   H357      1.0  0.53249  0.62985  0.48711  1.0000
  H   H358      1.0  0.59972  0.65674  0.50849  1.0000
  Fe  Fe29      1.0  0.53039  0.79980  0.27503  1.0000
  H   H359      1.0  0.57009  0.93318  0.46878  1.0000
  S   S56       1.0  0.57003  0.84683  0.23452  1.0000
  C   C444      1.0  0.53317  0.87641  0.14614  1.0000
  H   H360      1.0  0.62052  0.80068  0.06433  1.0000
  H   H361      1.0  0.60929  0.98851  0.40418  1.0000
  S   S57       1.0  0.53474  0.75410  0.41425  1.0000
  C   C445      1.0  0.51552  0.80331  0.46064  1.0000
  S   S58       1.0  0.53466  0.74995  0.29702  1.0000
  S   S59       1.0  0.78400  0.93586  0.04146  1.0000
  Fe  Fe30      1.0  0.72164  0.89238  0.04761  1.0000
  S   S60       1.0  0.69749  0.85314  0.09960  1.0000
  C   C446      1.0  0.61132  0.83930  0.03032  1.0000
  C   C447      1.0  0.94350  0.72983  0.22646  1.0000
  C   C448      1.0  0.88332  0.87279  0.02828  1.0000
  H   H362      1.0  0.78099  0.89235  0.13052  1.0000
  S   S61       1.0  0.72274  0.86657  0.98636  1.0000
  H   H363      1.0  0.87300  0.85406  0.05269  1.0000
  C   C449      1.0  0.66054  0.85094  0.13550  1.0000
  C   C450      1.0  0.64292  0.81993  0.15993  1.0000
  C   C451      1.0  0.61441  0.81766  0.18969  1.0000
  C   C452      1.0  0.60373  0.84679  0.19579  1.0000
  C   C453      1.0  0.62124  0.87770  0.17127  1.0000
  C   C454      1.0  0.64912  0.87961  0.14100  1.0000
  H   H364      1.0  0.65153  0.79758  0.15589  1.0000
  H   H365      1.0  0.60133  0.79375  0.20836  1.0000
  H   H366      1.0  0.61353  0.90056  0.17594  1.0000
  H   H367      1.0  0.66241  0.90361  0.12248  1.0000
  C   C455      1.0  0.52906  0.77620  0.45954  1.0000
  H   H368      1.0  0.92790  0.97615  0.17045  1.0000
  C   C456      1.0  0.97779  0.96557  0.16083  1.0000
  C   C457      1.0  0.60135  0.81310  0.05960  1.0000
  C   C458      1.0  0.81309  0.95237  0.13584  1.0000
  C   C459      1.0  0.92249  0.88733  0.01504  1.0000
  C   C460      1.0  0.83974  0.91159  0.10649  1.0000
  C   C461      1.0  0.56295  0.91178  0.38302  1.0000
  H   H369      1.0  0.52707  0.87459  0.42884  1.0000
  C   C462      1.0  0.87514  0.94265  0.09844  1.0000
  C   C463      1.0  0.95603  0.80216  0.12075  1.0000
  H   H370      1.0  0.63774  0.84665  0.01201  1.0000
  H   H371      1.0  0.89882  0.93824  0.08388  1.0000
  C   C464      1.0  0.52724  0.92323  0.33347  1.0000
  C   C465      1.0  0.62755  0.88831  0.46383  1.0000
  C   C466      1.0  0.64040  0.86607  0.30143  1.0000
  H   H372      1.0  0.58914  0.94432  0.33090  1.0000
  S   S62       1.0  0.69846  0.93045  0.02766  1.0000
  C   C467      1.0  0.55330  0.84680  0.04838  1.0000
  C   C468      1.0  0.62932  0.82973  0.31316  1.0000
  H   H373      1.0  0.83607  0.88372  0.09767  1.0000
  C   C469      1.0  0.63436  0.89181  0.32747  1.0000
  H   H374      1.0  0.52358  0.78126  0.17188  1.0000
  C   C470      1.0  0.85722  0.88177  0.00955  1.0000
  H   H375      1.0  0.52705  0.93562  0.30604  1.0000
  H   H376      1.0  0.92709  0.77142  0.25417  1.0000
  S   S63       1.0  0.95406  0.87378  0.03769  1.0000
  H   H377      1.0  0.56071  0.78358  0.10601  1.0000
  H   H378      1.0  0.59022  0.83510  0.40513  1.0000
  C   C471      1.0  0.95671  0.78597  0.15597  1.0000
  H   H379      1.0  0.63318  0.80959  0.29255  1.0000
  C   C472      1.0  0.52767  0.88928  0.40295  1.0000
  C   C473      1.0  0.53708  0.90189  0.17789  1.0000
  H   H380      1.0  0.50801  0.81059  0.43340  1.0000
  H   H381      1.0  0.60254  0.79058  0.35966  1.0000
  H   H382      1.0  0.55428  0.88511  0.12142  1.0000
  C   C474      1.0  0.88047  0.71610  0.25886  1.0000
  H   H383      1.0  0.69174  0.94307  0.38238  1.0000
  P   P16       1.0  0.60801  0.91444  0.39827  1.0000
  C   C475      1.0  0.60543  0.84458  0.37683  1.0000
  S   S64       1.0  0.51499  0.81643  0.33642  1.0000
  H   H384      1.0  0.65242  0.87384  0.27156  1.0000
  H   H385      1.0  0.64527  0.87979  0.44339  1.0000
  H   H386      1.0  0.86093  0.72564  0.27475  1.0000
  C   C476      1.0  0.61746  0.88147  0.36569  1.0000
  H   H387      1.0  0.90420  0.97882  0.02582  1.0000
  H   H388      1.0  0.50738  0.67361  0.38405  1.0000
  H   H389      1.0  0.51477  0.91052  0.23581  1.0000
  H   H390      1.0  0.94966  0.68126  0.20162  1.0000
  C   C477      1.0  0.56728  0.80357  0.08330  1.0000
  H   H391      1.0  0.56107  0.92967  0.17742  1.0000
  C   C478      1.0  0.61197  0.81905  0.35089  1.0000
  H   H392      1.0  0.82695  0.86991  0.01948  1.0000
  C   C479      1.0  0.64646  0.96105  0.39255  1.0000
  C   C480      1.0  0.80877  0.91640  0.12532  1.0000
  C   C481      1.0  0.93077  0.69146  0.21756  1.0000
  C   C482      1.0  0.58744  0.85630  0.02488  1.0000
  C   C483      1.0  0.51102  0.89110  0.21083  1.0000
  H   H393      1.0  0.53526  0.86040  0.04371  1.0000
  Fe  Fe31      1.0  0.76112  0.97212  0.01676  1.0000
  H   H394      1.0  0.64212  0.91946  0.31729  1.0000
  C   C484      1.0  0.54267  0.82001  0.07752  1.0000
  C   C485      1.0  0.56244  0.92836  0.34787  1.0000
  C   C486      1.0  0.50300  0.83990  0.14714  1.0000
  H   H395      1.0  0.93038  0.80473  0.11363  1.0000
  C   C487      1.0  0.49227  0.90084  0.35355  1.0000
  H   H396      1.0  0.93119  0.77608  0.17577  1.0000
  C   C488      1.0  0.60630  0.90575  0.45034  1.0000
  H   H397      1.0  0.78861  0.95606  0.14929  1.0000
  Fe  Fe32      1.0  0.51358  0.76366  0.35697  1.0000
  H   H398      1.0  0.51051  0.68129  0.45672  1.0000
  P   P17       1.0  0.49742  0.80675  0.10628  1.0000
  C   C489      1.0  0.91802  0.74195  0.24721  1.0000
  C   C490      1.0  0.63858  0.99215  0.39732  1.0000
  C   C491      1.0  0.95363  0.98135  0.15168  1.0000
  C   C492      1.0  0.49255  0.88399  0.38830  1.0000
  H   H399      1.0  0.59558  0.87688  0.00231  1.0000
  Fe  Fe33      1.0  0.78304  0.91359  0.97896  1.0000
  C   C493      1.0  0.87997  0.97894  0.10942  1.0000
  H   H400      1.0  0.50296  0.71900  0.19874  1.0000
  H   H401      1.0  0.97077  0.94845  0.18646  1.0000
  C   C494      1.0  0.87004  0.90480  0.97696  1.0000
  H   H402      1.0  0.52918  0.98537  0.45370  1.0000
  C   C495      1.0  0.68490  0.96664  0.38510  1.0000
  C   C496      1.0  0.89320  0.66568  0.22931  1.0000
  C   C497      1.0  0.86806  0.67798  0.24994  1.0000
  C   C498      1.0  0.93539  0.91128  0.98326  1.0000
  C   C499      1.0  0.49988  0.75716  0.15867  1.0000
  C   C500      1.0  0.84846  0.98354  0.12793  1.0000
  C   C501      1.0  0.48824  0.72196  0.17403  1.0000
  Fe  Fe34      1.0  0.54869  0.81592  0.71916  1.0000
  C   C502      1.0  0.90923  0.91962  0.96408  1.0000
  S   S65       1.0  0.60720  0.84375  0.74871  1.0000
  C   C503      1.0  0.82298  0.87680  0.79952  1.0000
  H   H403      1.0  0.96520  0.92244  0.97253  1.0000
  H   H404      1.0  0.54067  0.77558  0.55889  1.0000
  S   S66       1.0  0.54467  0.78193  0.66191  1.0000
  H   H405      1.0  0.50123  0.68031  0.59192  1.0000
  H   H406      1.0  0.88020  0.91494  0.87779  1.0000
  S   S67       1.0  0.64653  0.88744  0.93157  1.0000
  H   H407      1.0  0.93801  0.96956  0.82430  1.0000
  S   S68       1.0  0.83773  0.91346  0.94962  1.0000
  H   H408      1.0  0.87778  0.85547  0.89753  1.0000
  C   C504      1.0  0.96936  0.86238  0.88788  1.0000
  S   S69       1.0  0.76256  0.95203  0.95334  1.0000
  H   H409      1.0  0.93002  0.80553  0.96588  1.0000
  H   H410      1.0  0.56795  0.70644  0.61268  1.0000
  Fe  Fe35      1.0  0.51272  0.81069  0.63796  1.0000
  C   C505      1.0  0.96583  0.94832  0.86243  1.0000
  H   H411      1.0  0.91937  0.93713  0.93872  1.0000
  C   C506      1.0  0.61729  0.85485  0.79991  1.0000
  C   C507      1.0  0.58821  0.85031  0.82928  1.0000
  C   C508      1.0  0.59776  0.86025  0.86932  1.0000
  C   C509      1.0  0.63636  0.87454  0.88067  1.0000
  C   C510      1.0  0.66543  0.87893  0.85136  1.0000
  C   C511      1.0  0.65592  0.86927  0.81126  1.0000
  H   H412      1.0  0.55844  0.83939  0.82108  1.0000
  H   H413      1.0  0.57506  0.85686  0.89168  1.0000
  H   H414      1.0  0.69523  0.88995  0.85953  1.0000
  H   H415      1.0  0.67865  0.87293  0.78884  1.0000
  H   H416      1.0  0.66134  0.96623  0.95166  1.0000
  C   C512      1.0  0.53850  0.76657  0.49508  1.0000
  C   C513      1.0  0.52225  0.67507  0.57300  1.0000
  C   C514      1.0  0.53385  0.78356  0.53160  1.0000
  H   H417      1.0  0.50292  0.84306  0.49745  1.0000
  C   C515      1.0  0.70040  0.98316  0.90010  1.0000
  C   C516      1.0  0.88439  0.87398  0.78726  1.0000
  P   P18       1.0  0.94335  0.90095  0.84179  1.0000
  C   C517      1.0  0.84775  0.86673  0.77483  1.0000
  H   H418      1.0  0.61779  0.69518  0.57118  1.0000
  C   C518      1.0  0.60395  0.89282  0.53132  1.0000
  C   C519      1.0  0.68878  0.98701  0.93953  1.0000
  C   C520      1.0  0.58404  0.91158  0.51843  1.0000
  C   C521      1.0  0.93773  0.86889  0.87985  1.0000
  C   C522      1.0  0.90269  0.85096  0.90233  1.0000
  C   C523      1.0  0.89642  0.89139  0.82458  1.0000
  C   C524      1.0  0.51362  0.98554  0.48165  1.0000
  S   S70       1.0  0.52196  0.84860  0.69257  1.0000
  H   H419      1.0  0.64115  0.86673  0.51422  1.0000
  H   H420      1.0  0.90301  0.86587  0.76775  1.0000
  C   C525      1.0  0.96830  0.85914  0.78857  1.0000
  H   H421      1.0  0.49153  0.90187  0.56985  1.0000
  C   C526      1.0  0.96641  0.83922  0.91837  1.0000
  H   H422      1.0  0.79440  0.87074  0.79016  1.0000
  S   S71       1.0  0.51526  0.83391  0.57748  1.0000
  Fe  Fe36      1.0  0.70211  0.90679  0.96573  1.0000
  C   C527      1.0  0.51225  0.82127  0.49692  1.0000
  C   C528      1.0  0.87152  0.90177  0.84885  1.0000
  C   C529      1.0  0.83492  0.89438  0.83654  1.0000
  H   H423      1.0  0.81566  0.90177  0.85616  1.0000
  H   H424      1.0  0.54905  0.74561  0.49451  1.0000
  H   H425      1.0  0.68187  0.95933  0.88187  1.0000
  C   C530      1.0  0.97465  0.89525  0.80232  1.0000
  H   H426      1.0  0.56683  0.92002  0.53974  1.0000
  H   H427      1.0  0.83839  0.85300  0.74618  1.0000
  H   H428      1.0  0.51601  0.89727  0.63336  1.0000
  H   H429      1.0  0.60184  0.88658  0.56241  1.0000
  C   C531      1.0  0.52082  0.81110  0.53261  1.0000
  C   C532      1.0  0.48919  0.89975  0.63314  1.0000
  H   H430      1.0  0.94404  0.83477  0.80064  1.0000
  C   C533      1.0  0.89987  0.82785  0.93292  1.0000
  C   C534      1.0  0.95819  0.97623  0.84756  1.0000
  S   S72       1.0  0.49209  0.77336  0.74583  1.0000
  C   C535      1.0  0.93181  0.82226  0.94119  1.0000
  C   C536      1.0  0.56032  0.68995  0.58507  1.0000
  H   H431      1.0  0.88452  0.97654  0.89149  1.0000
  C   C537      1.0  0.58550  0.91840  0.47815  1.0000
  H   H432      1.0  0.87333  0.81544  0.95126  1.0000
  C   C538      1.0  0.62586  0.88139  0.50409  1.0000
  C   C539      1.0  0.58827  0.68350  0.56175  1.0000
  C   C540      1.0  0.57806  0.66186  0.52646  1.0000
