data_image0
_chemical_formula_structural       FeHSFeHSC2HCSHFeH2C2SC2H2CFeHC2H2C2H2CHSC2H2C2HCHCHCH2CSCHCHFeHCH4C2SC2S3CHCHCHC2HCFeHC2H4CHSC5H2C2H2C3PH2SC7PC4H3C3HC2H3CHCHCSCHCHC2H2C2SC2HC2H3FeCHCH3CHC2H2CFeC3HC3H4CH5C3HSHC2HCPH3CHSFeSHSHSHC5HC2HSH3FeCH3C5HC2FeHC5HCH3CH3CHC2HFeCSHCFeSCHCSH6C7PCHSCHC3SCHSCH4CHCH3CHCPHC6HC3HC2HSC4H2CSHC2HC3H2C2H2C2PH5CHFeC2FeC2H2C5SC2H3S3C2HC2HCSFeSCSHC6HC4H2CS2C2HCHCHFeH2CHC3H4C4HC2H4CHC3HC2FeHFeC5H2CHCH6C2HCHSHC3HCHCSCFeCH2CFeSPCHC3HCSH3C2H2CSC5H2SC2HSC2HCSCHFeCHC3HSC2HCHFeH4C3HCH4CHCH2C4HC3HC2HPC3HCH3C2H2FeCH2C5HCHC3SFePSFeCSCH3S2FeS2FeS2FeSFeCS2CHSCHC2H3C8SHC2H2CHC2SH2C3H4C3HCHC2SC3HCHC2HC2HC8H4CH2C4HSHC6HCH2SC2PCHPC5HC3HCHCH2CHCH2PC2H2CHSC5H2SH3C4H4CSHCH3CH2C3FeC3H3CH3FeHCH2C4HCH2CH3C2HC3HCFeH4CH2C2H3CHC3FeCH2C6H2SHCHC3HFeC10HCH4CHFeSC2HCHSCH3SCH2CH2C3HCHC2H2CH4C3FeH2SCH4CH2C9PC11H8CH3C4SCHCH5CH3CHC4HC2FeCHCSH2C3H2C3H3SCHCH2C2SCHCH4C2PCH2SCH2SHPH2CHC3HCPCHSC11FeH4C3H2CHFe2SH2FePCHCFeHC2FeC4HCS2C2H2FeC2HC2H3SC3HC2SC2SC2H3CH2SHFeH3C3H4CHC3HCH2CHC8H4CH2SHCHCH2C2FeHC3FeC3PHCFeHC5H6C2HCHC3FeHSCH3C2H2C2H2CH2CH2CSCSC2SFeCHC7HC3HC3H3SH2CHSCHC2HSH2C3HC6FeSC3H2C2HCH5CHFeC4HCHCSPHC2HCHC3H4SC2H2FeCSCHS2HC2H2SHCSC2SCFeCFeS2H2CH2SCHSFeSHC2HSH3SC2SH2C2SHCSCHC2HC4H5C2SH2C4H2CHCHC2SHC3FeC2SHCHCPHCHCHC3SCH2CFe2H2FeC5H2CHS2C4H3CHCH2C7HC6HCSC4FeHFeCFeSHSC3HC4H2C8SC2FeH2FeHCH3C2H2CHSHC2SH2C2H3C2H2C2H2CHSC3SCFeC2FeC4HSC5HC3H2PC3H2C2H3CH2C2H2C5H2C7HC2H3C4H3CH5C3PH2C3PCSH3CHFeH2CHC3HCHSCH3SHCHCH6C2HCSCHSH2CH3C2HFeH2C2HC2H2SC2HPCHC2HSFeCHFeCH2CHCFeCSCH2CH4CHFeH3FeSHC6HCHCHPCHC2H2C2FeC2HC2HCHC3HC2HCHC2HC2H5CPCH3C2H3C3H7C2H2C8H4C3HCHC4HC3HC5H3C2HCH3C5H2CHPC4HCH4CSHC2HC2HCHC2HC2H2C2H3SH5C2HSH3C2HSCHC2HC2FeS2FeSH2CHC4HC3FeHC2FeCS2CH2CHC2HPFeC2HC2FeHC5H2C2H2C3FeHCSC4HC2H5PC6H2C2SH3FeCH2CH5PH2CH2CHCHCH2CHFeHCSC2H2FeH2C3HC2SC2H2CH2CH2CSHCH6C3HC2SCHCHC5PC12H3CHCH3PCHC2HC3HC2H2C3H2CHC3HCHS2C3HS2H5CHCHCH2C3FeCPH3SC3HC4HC4HSC2HCSH2CH2CH3C3FeCSH3CHC4H2CH4C4HSHCHC2HC2H3C2HCH2C3H4CH2C4SHCSCHCHC2PH2C3HCSHCSFeCSFeS2C2FeHS2FeS2FeS2H4SCHCFeCHFeH2C3HSC2HCH2CHCHCHCHCHCH2C2HSHC2HCSHC6H4C4HC4H3SC7H6CPC2HC3HPH3C5H3CHC3HCSH2PH5C2PHCHCHCH2PC4SC3HC2H2C7PC18H7CH14C2H2CSCHCH5CHC4H2SFeHC6H5CHC3H2C4H2C2HC4H4CHCH4FeCH3C3H3C5HCHC3H2C2H2CHCHC3HFe2C8PC18H20FeCHC5HCHCHCSCH3C9SHC3H2CSC2HC3HFeC2HCH4CHCHFeHCHSC2HCPCSC4H2CHCSC2FeC2SCSCSCHC2H2CSH2C4HCHSHCH2C2H3C2PCHC3SCFeSHSC2HFeS2FeS2FeSFeS3HCHCH2C2FeHSHC2H2SCHCH3C6H2CH2C3H2C4HCFeC2HSC3HC7HC2HC3HPH2C6H4C7H3C5H5CHC7H4CH2C2H2SFe2SC4SC2H4CHC2HCHCHC2H2CHC3PHPH3SC5H2CH2FeC3SHC2H2C4SH2C3HCH2CHCHC3SC2HC2H2C2HSCHC5PC2FeCSCSC3HSH3CPC4H2CHC2H3C4H3C2FeC2H2SH4CH2CHCH3C4H2CFeCHCHCH2CHCSHC2H2C3FeCHC2H4C2HPCHCH2CH2SC3HC2HC2H2CHC2H2SC3H2CHC3H2SHSH2CSCFeHCHC2H3C2H2CHCH2C2H3C5H4SHCHSHC2HCH2C2H3CHC2H2FeSHCH2C6HCPC4SHC2H2CH3CH8CH3CFeC3FeHPSC6PC14HC3H13CHCH4C6PC5HC9SCH8FeHSH3CHC3H2CFeHCHCHC2HC4HC3PCHCHC2HSC2HCSC2H2CSFeHC3SC2FeCSCHC2HCH3CHCHC2H4CH2PC2H4CH3CHSH2SCH2CHC2HC4H2C6SH2C5HCHFe2CH3CHCHCH6CH3C2PCH4C2HC2HSCHCHFeH2CHCHCH2CSCHFeCFeS2FeS2CHFeS3FeSCFeSCFeHFeS3FeCSFeHSH3CS2CS2H3FeSH2CHSCPCSCH2C5H2CH2C2HCH4CH3SC2H2SFeCHCFeSCHC6H4C3HC3FeC7H4SC2HC5H7C6H3C3HPH4C3H3C2SHC3HCSH3CHC2HC2H2CHSC3HC6SC3HCH4C4HC6H2C2H3CSHCHCHCH2CH2CHCH2C3HCPFeC2SCHSC5HC3H2CHCHC2HPH3C2H2C2H2CHC2HCH2CH2C2SC5H3CH2C2HCHC3PH3CHC2HC3HC4H2C3HPHC2H3CHC3H3SH2SCHC3H2C7H2FeCHC2PHC2H2SCH5C2HC3HC2HC2PH3C10HC2HC8FeHC2HSH3CH2C2H5FeC2HC2H5C4HCHCHCHC2H4CHCHCH2FeC3S2HSCHFeS2FeSHFeSFeS3C3FeS2FeCFeS2CHCHC4HSH2FeS2FeS2FeSFeS3C6H4C6H5CHC3HCHC7H4C6H2CHC6H9C2H4C4H6CH2CHC5HC5H2CFeCHC5H2CH2C3HCPH3FeCH2CH4C5PC14HCHC2H7CH3CHCH2CFeHC3HC2PCHPH2S2C11H3CHC2H14C2HC7PC4H3C6H3C2H5C2H4C2H7CH2CHFeC13H2C8HC2SHCSH4C2HC2HC2HC3H4C2HSCH2C2PC3H3CHC5FeC3HCHSH3C3H2CHCPC2H2C6HCH4CH3PHSC2HC2PC18HCH4C2H12CHCHC3H4C4HSHCHC7HC2HC2PHCHCH2C2HCH3C2HCH3CH2C3SC2HSH4SH3C3HCFeS2FeS2FeHFeS3CH2CSC2SHFeSCHCHCFeCSHCSHCHSCSCFeCH2CS2CH2C3HC2HCHCHSCHC6H2CHC3H2C2H3C6H4FeC2HSFeC3HCH2C7HCPHC9SH3CH5SC5HCHCH2FeCHFeCFeH3CHC3HCH2CH4CH7C2SCSHCH2C2SHS2PC4HC10H2CHCSH4FeC2H5C2H3CHC3HSCHC2PHC2SHCHCHC7PC18H20CSC2FeC2HC4SCHC2HC2H2C2FeH2C2H2CFeH2C7H2CHC3PC3FeCHCHCSC2H2SC4SHSCH4CPHSCH3FeH4C2HCH2FeHCH2CH5CH2FeC2H2C2H3CHCHC2HCHC2HPH3CSHCHFeS2FeHFeS3CSCHC2HFeSHCFeS2FeS2FeSFeS5CFeS2FeS2FeSFeS3HCHFeSC2FeC2FeHSH2FeS3CPSC4SC2S2H2CH4CSHC5SHC3SPHC4H2C4H2C6H4C6H5C5SH3CHC2HC6H4C4H2C6H4C6H4C5H2SC2HCH4C7H4C6H6C2HSC2HCHCHCHCHCFeC6PC12H14CHCH3CH2SHFeH2C2H2CHC6H4CH2SH4CHCH5C2HCHCHCH2CHFeHC2HCH3C2HCH5CH2C2H2CH3C4HCH4C7PC8H2C8H5C2H5C3H4C4PC2S2H3C5H4C2HC2H4CHC2H2PC2HFeC16H3FeCH9C2H2CHC6PC18H20C6PC6H3CHCH4C2HCH2C4PC7H2SCHC6H3CH2CH4C3H8C6PC3HCHC8H6C2H6CH2SH2C3HC2H2C2HCHC3H4C2HCSHC4HC2HC5FeH3C6HCH3CHSC2HCH2C4H2C4SCHCHC3H3CHC2HC2SCHC5HC3HCHFeHSC3HC4HCSCHSFeCH4CH3C3HFeC2FeC2HPSHCH3FePC2HCH2C2HC2HC2HCHCFeH2CHC3HCHCHCSCSC2HCHC3HCFeS2FeS2FeHFeS3HCH4C2H3CH2C7HC2HC6H2CH4CHC2HCHCHC5FeC5H4SHCHCH4C3H3CHSPHC2HCHC2HCHPHC2HCHCHC8H2C2H3CSCHCHC6FeHCH3C4H2C4H2CSHPCH2C5H2C3H2CH3SCH5CHCH3CH3CHFeSHFeSHFeSFeS2PCHC2SHCSHCHSHC3HCHC2SC2H2SHFeS2FeCSH2C2S2FeCSFeHSFeS3HCHC2SC3FeCHC2HS2H4C2FeCH2CH2FeC3HC4H3C2HCHC9HCH3CHCPHC2SC4H2FeH2CH3C7H3C4HCHC3SC2H4CH2CH2C6H2C7H4CHCH2CHC4HC7H4FeH2C4SH2C2HC4HCHPC6H5C4PHCH3C2H2C2H4SHPCFeCHCH2SC2H2FeCHC6HPHC6S2HC2H2C2HSHCH2CH5SHC3HCHCHC2HC2SPCHCHC2HC12HCSHCHC3H10CH2CHC2H2C6PC2H2SC13H6C2H3CH9C3HC3H7C4PC8HC9HFeC2H7CH4C3H2C2H3CHCHCHC5H2C4H4CHCSC3H2CHC2HC6HCH2CH2C3HC5HFeHC2HC2HSHCH2CHCHC2HPC2PC2H2C2H4CH3C6PH3C3HC2HC2SC5FeHC8SH2SCH3CHSH2C7SCHC6HCFe2C2FeCHCH2SH3CH2CHCHSC2HCHC2HC2HCH6C4H2CHC5SH5C2HC3HC2H3PHCHCHCPHSC2H2C2HCH2CHC3SC2Fe2H2CHCSCHCHCH3CHPHCHC4H6CSFeH2C2HC3HC5HS2HCHCHCHCHCH3C2HCH3CH2C4HCHCHC2SCFeS2CHCHC3HCSH3CH3C2HCPC2HC3H5C5H3C2H2CH3CHC4FeHCSHSCFeCHC3H4C2HCH2PHC2H3CH2CH3C3HCH2FeSCFeSCFeSFeS3H2C2H2SH4FeSHFeS2FeS2FeSFeS3C2HFeCHC2H2FeS2FeS2FeSFeS3FeCSFeCSC2FeSHSFeCHC3HC3SHC2H2SHCHCSC2H2SHCHC10HCH2CHCHC5HC3H2C2HC6HCH2C2H2CHC2H2C2HCH2CHC6H4C6H4C6H4C6H4C6H8C2HCH2PC8H4SC2HSHSH3C2H2C4HC7H4SH4CHC5FeH2CH6CHC2FePC6SC11FeH3CSH3CH5C6PCH4PC4H2SCPHC2H4C5H3C5HCH3CH2CH5CSPC3H2C6PC18H17SH2SCH5CHC6PC2FeHFeHC14H3SFeSCH3CH8C2H2CHCHC3H7FeH3C2H2C2HC2HC3HC2HCHC2H3C8PC16H17C4HCHCHCHC2H4CSCHCHC3PSC4HC4FeHCH5C2SC2H3C6PC18H8CH4SH2CH2CHSCHCH2C2HC4H5C3HPHC2H2CSHC2H2C5HC6SCSCHCHCH2CHCFeHFeHSCHC4H2C4HC2HCPH3C3H2C3H2CH7CH2C5H2C3H2CH2C4HCH3C2HCH4C2HCHCH3C2HC2S2H2C8H2CHFeC2SCH5CHCH3C3SHCHCHCSC5H4C2HC3H4CH2CHC2HCHSC2HC4PCSC2FeS2FeS2FeSFeHS3HC4SC4H2C2HC3H2CH2C8H3C6H5CFeH4CHCPC3HPC3FeC2SHCHC5HCH2CH2CH2CHC5H2CH5C3H3C2HC2HCHCHC9HC2HC2PC2HCFeHC4HC2HCH4CSHFeC3H2CH2CSHCSCHSH4CHC2H4C2H2C4H3C2H3C4H2CSCHCHPHC5HC2HCHCHCHC3H3C2HCH4CH4CHPH2SH2SC2SFeC2HFeHSFeHSFeSHS2FeS2CSFeHFeSHSCHCH2CSCHCSCH5CFeCH5C6H4C3SC3HCHCH2CH5SH2C4H3C5HCH2CHC6H4C6H2C3SC2HCSHC2HSHC2SHC2H3C5HC3HSCHCFeC2HPCH2C9PC18H20SCHCHC2SC5HCHPCHC3H4CSHC5HCPH2C2HC3FeH2CHC2PH2C5H3PH2CHCH2C2HSCHC2HC2H3C3H2CHCHC2H2C4HCHCSCHCHC4H3SFeC2FeC2SHC2HFeH2FeSH2CFeHSC2H2FeH2CHCH2CSCH2CHCHC2HFeCHCH2C2HC4HC4H2FeC3HCH2C2H2CH4C2H6C2SH2CFeS2FeS2FeSFeS3FeS2FeS2FeSFeS3C2HC2FeCSHCSH2CH2PH3C2HCHSC3H4C3PHC6H5C6H4C2H2C6H4C6H3C2HCH2C2HSC2PHCHCSCH2CHC4H4CH2C2HC2HC2HCHCH4C3H2CHCH4CHCFeC4H2C2SC2SHPHCH2C9H3C2H3C2HSCH6C2H2CHCH2CHCHCFeCHC2HCHCHC2H2C3HCHC4SHC3HC5HC3HCHC3HCHC3H3SC2FeHC2FeC2HSC3PCH4C3FeHPHC2PH2CH2CSHCHCH3CFeHCHC2HCSCH3C4HC7HCHCSHC3HSCHC2H2FeC2PHSC7H2C3HSCSHC3H2SC6HSHC2H2C2HC2PC6H5C2SH4C2FeH5CH2C8HC2HC4H3C2HC2H2C2PHCHC3HCHCHC2HCHC2H2FeC3HCHC4HCH4C2H3C4H3C2H2PCH3C3HCH3CH2SHCHCH2CHC3HC3HCHC3H2CHC2HC3H3C5HCHCH3CH2CHCH3CHCH2CSCHSC2HC3H2SC3SCHCHFeSH2SPFeSCS3C3HSCHFeS2FeS2FeSFeHS2CFeSHC3FeCSCHSHCH2S2CHCHCH3C3SC5HSCH2SCHSCHC4H2CHCHFeHCSH2C6H4CH2CHC3HC3H3C6H4CHCHC2HCH3CH2C2PH2C3HCH2CSH3CHC2HCSC4HCHSHCH2SCHC8H4C2HCHC5H3CHC4PC6HC3HCH8FeH2C2HC2H2S2H2C2HC5HSH2C5SC8PC15SCFeH9C2HFeCH5C2H2C2H2CH2C6H2Fe3H2CHCHC5H6CH2C3H3C5HCHSPH3CFeCH2FeHC2H4CHCHC5HC6H5SCH3C5HCSCFeC3H3CHCHCHC2SH4FeC2H2FeH2CHC4PCH2C2FeHCSHSH6C3H2FeH2C2H2C2HCH3C2H2CHC7HC2HCHFeHC2PHC5HCHCHCSHCHC2HSCH4CHC3FeC2HC5PC13H14C3HPCH2PSC6SC5HC2H2C6HC3H2FeHCHC6H5CHC3H2FeH4PC4HC2HSH2SCH3CHPCHCHC2H4CSCHCH2C4H3CH2CH4C2H7CSCH6CH3SCHC6H2C4H2C3H2FeS2FeCFeSHSFeS2CFeSFeSFeHCFeS2HFeSHS2CHSC4H2CHC5H2C8H4CHC9H5C2SC2SCH2CHCH2CH2C4H2CHCSH2C2HC5H2C3SH3CSH4FeC2H2CHC2FeH2C2SCPC7H2C2HC7PCSCH6CH2SH5C3PC18H17C2H2FeCFeHC2HCH2C5HCHCHCHCH2CHC2SC2H3C2H2CH2CSHCH3SC2HCH2CHC2HCH3CHSH2C6H2CH2CH3FeC3H2C2HPHC3HC3SH2CHC4SHCHCH2C4H2C3HCHC3SH2C2H3C2H2CH2C3HC2H2C4PHSHCSHC2HCH2C2H3CPCH2C3HC10HC3HC3H2CH5FeCHC3PH3CPCSHCH2C2H3C3HCH3C2HCH2C5HCH2C2H5CH3C2HCHPHSCH3CSCH2FeCS2H3SCHSC2SH2FeSC4FeS2FeS2FeSFeS3CH3CS2HC4HCHC2HFeS2FeS2FeSFeS3C3H2CHSC2HCHCH2FeS2FeSH2FeCHC3HC2H2CH3C2SHCH2C2HC2H3C4HCH2CHC6H5C2HC2HC2HFeH2C4H5C7H2CH3C2H2C4HFeCH2CHC6H4C6H5C2HC2H4C6H6CHSH2CSC6H4FeC2H4C7PC8PC6H2C3H10CSH3SCH5C2PSH2C2H3C6H5C2HC4H4C2HCSH6CSHCH3FeCH4C2HCHC2HCHCH3S2CHCFeCHC4H2CSC2HC3FeCHPH2CHCHSFeC2H2CH3PCSH3CH2C5H3CHCH2CHC7H3CFeC3HC7PHC3PC2HC6H7C6H2C3HSH2CH3CH2C5H2C3H2C3HC2HC2HCHCHCHCHPHC2H4C2HCHC2H2C3HCHCH2C3H3C3HCHC2H3PFeHC2HFeCHCHC2HPCH3C2HC5HCH2C2HCSCH6C7HC4HC4HC2H2C2HCH3CFeHCHC7HPC2HC4FeH2CHC2HC5H2C3PH2FeC2H2C3H2C2SCHFeH3C3PCHC2HC5H2C2H2C5H3CHCH2C2H6PCHCHCH2C2HCHC6HCHCHC2HC4H2CHC2SHFeHCH2C3SHSC2HC3H3C2HC3HSHC3HC4HCH2C10H4C3SC3HSPC6HC2SC2PHC2SCHC2H3CH2C3SHC3HC2H6C2H2C2PHC2H2CHC3H5CFeSCH2CSH4C3H3C2SC2H2CHCHCH2FeC2SH4S3FeS2H3FeS2FeS2FeCFeS3C2H2C3HSC3FeC2HC3HCHC7H2C3H2CHC4HCHC6H4C4HCH2CH3C5SC5PC6H2C5HC2H7CSHC4H3C2H2CHC3H2CH5C4HFeCHSHC3HFeHC2H2CHC3H3C2H4CH2C4HCFeCHCHCHCH2CH3C3SPHCHCHPHCHSC6HFeCH2CHCH4CHC2H2C4H2CH2C2H2CHCHCHC5HCH2C2H2C2PH2CHC3HSCH2CH4C3H3CHCH2C9HC3H2C2H2C3H3CHFeC2H3SCHC2HPCH2C3PH2CH3SH2CH2CHSHSHCHCSHCFeHSH2S2C2FeH2C2H2SC8FeSC2FeC2H2C6HCSHC3HC6H2SH2C2SH6C2HC7H7CHCFeC5HCHC8PH2CHCHFeHC8H2CH4C2HC2H5C5HSC2H3C2S2H2CFeH4CH2CHS2HC3H6CHSC2PH3C6HCSFeHC2HC2HC2HCHC2H7CH4CHC2H2CH2C2SC2SCHFeH2C4SH3C3PC5H5C2H2PSHC2PCH5C2HC5HCH2CH2CH2C2PCHCH2C2HC2HC2H2CFeHC2HC2HCHCHCHC2HC2HC2HSH2SH2C3HC2SHCHC4H2CH2SH2CFeHS4FeS2FeSCFeSFeS3HSCFe2SFeS2H3CSHCHFeCFe2C8S2FeS2FeS2FeSHCS2H2C2SCH2C5SHCHCH2CHSHC2SC7PH2CHCFeH2CHCHCH2C6H4CHCHC3H2C3HCHC4HSH3C6H2CH2C4H2CHC4H3SHC2H2SC6H5CPHC2SH4C2SHSH2CFeH3C4HCHC3H2C3HC2HC4H2CHC3HSCHSC6PC13H3CH13CHC2H3CHC9H2C2FeCHC2SH4CFeHCHC2H7CHSHC2HC2HCH2C6PCH3C2HCH2C3H2CH6CH3PHPC2H3CHCH2C12PC8HC3HCSC2H11FeH4C2SFeC2HC3HCH2SHC2HC2H4C2HCHC2HC5HCHC6HCH2C3HC5HC2SC2HC4SCFeCH3C2HCH2FeHFeC2H2CHCPHC5HSHC3H3PCHC3H2CHCHC6HC4H2CH3CHC2HC5H7CFeHC3H3CHC2H2C2HC2SHSC5HCFeSPC2H2SC4H2C4H2C2H2CH2C2PH3C6HCSCHC3FeHCH3CH2C4H5C2HCH2SHCHPSCFeCHC2HCSC2FePCH4C2H3SC2HCHCH3CSC2H3C4HCH3CSC4HC8HC2HCHC2HC5SH2C3HCH4CH5C5H2C3H4PHPCH2CHFeSH3CHCHS2FeSFeSH2FeHSFeS2FeH2S2C4PCHC2SC2HFeS3FeSFeSCHPC3HC6HCH2C2HCH2C2H2C6H2C8H4C6H4C3HC2H4C5H4C5HC2H3C6HSC2H4CHCHC2HC2HC2H2SCHC2HC3H4C3H6C2HCHCH2CSC2H2C2FeC2SCHC4SCHPH3CH3CSH2SH2CSCHCHSC2H2C6HCHCH3SC2SC3H2C2H2FeCHSC10PC16H15CH2CHC4H6CPC2HC2H2C2HCHC8HC3H2C2H2CH5C4H2C6PC18H20FeHCHC5FeCH2C2SFePCHCHSC3HC2H2CH5CSHC3H2C2H3CHC2H6CH2SCH4C4FeH2C3HC2H4C2FeHCH2C2H3CHCHC2HC2HCH3CHCH3C3HCHC4HC3HCH3C2HFeHC2P2CH2CH3SHCHC2SHCHPCHC4HCH2C5PC2H2C2H3CS2C5HCHC2HCSH2CPCH2CHC4H2C2SH2CHCSCFeS2FeS2FeSFeS4HCFeHC2HCHFeC6H4SC2H2CSHC5H2FeC7H3CPH2C2H2CHCH2C2HCH7C2HCHCH2SH3C3HCH2C2HC3PHCHCHCH2C3H2C2HC2H2CHC2HC4H2CH2C6H3C2HCHSHCHC4H2CH3CHC2PCHCPH2C2HC2HC2HCH2C2HC2H2CH3FeC3H3C4HCHCHCH2C3SCHCH4C2H2C2HC4HC2HCHC3H2SCHC2HC3H2CFeS2CHSHPCSH2C2H2SHC4PSH2CHPHC3HCHCHC2H2C2HCHC2SC2HC3HC2H2C2H4C2HCHC2HC2SFeHSCH3FeHCHC3HCFeC6HC2SCH2CHC2H2CH2CHCH3CHC6H2CHC3HCHFeH4C2H2CHCHC5HCFeS2C7SCHFeS2FeS2FeSFeS3CHSFeSCFeSFeSCSFeCSFeHSFeS2CFeCSFeCS2H2S2H2C2HCFeCHCHC6H4C4HCHC6H4C7SCH4C7H3CHCHC7H8SHC2H4C3HPC4H2C6HC2H2CHC2HPCH8C3H2CH3C3H3C4HCPC2HC2H2CHCH2C3H2CHC2H2CSCSH6C10HFeH2CHC3H2CSCHC2HC2H3C3HC5HC3HCH2CFeC4H2CH6CH2FePC6PC3HC5HC6FeCH6CH2C2HCH3CH4C2H2C2PC5HFeHCHC3H2CHCSC3SHC3H2CSC4H2CHC2H3C4HC5HC2HCFeC2H2CH3CSHCHFeH2C2HCH3CHCH4PC20H2CH13CHC2H3CH3C2HC2H3CH2PCH2C3HCH2SC2H2C3HCH2C4PCHS2CFeH2CHC2H2C2SFeC4H3CHC2H3C3HSH2C2HCSCHC3HC2HC3H3CH2CH2C2H3CHC5H2CH3CHCHCH6CHCHC4H2C2SC2H5SFeS2FeS2FeSFeS3H2FeS2FeSFeSHFeSCFeS2FeSFeS3FeCFeHSFeSHSHS2H2C2HCH4C2HC2H2C2H4CSH3C2H3C6H2CHC6H5C2HCFeH4CHC9H4C6H4C6H4CHC2H2C5H2PHC8H2SC2H5C4HSCSH2C3HCHCHCPC2HC2HC6HC2HCHCHCH7C6PC14HCHCH8CH7CHCH5CFeSCHCHCSH2SC4HC6PC18H20CH2CHC5HC2HCHCSH3C2H2CHC5HC4H2C2H2C4HC4H2C7PC9HC8H6C2H6CH3CHC2HCH5CH2C5PCSCHCHPSCH3C5HC3HC2HCS2HSH4CH4CH2CHC3HCH6C2HCHFeC2H2C3SCPC10HC5HCFeH3C2HC3H2C3H2FeH2PC2SH2CHFeSCHC3HCSCHFeSCHSFe2S2FeSFeS3CH2FeCSH2CHSC2HFeS2FeSCHSCHFeS2FeS2FeSFeS3H4CFeSCH2SFeS2FeS2FeSHCS2C3H2CHC4HC2HSH2C2S2CHCHC7HC6H4C6H6C2HCH5CH3C6H4CPH2CHC8H4C3HC2FeH3C6H4CH3C8H4C2HC2HCH3CHC2HCHP2C2HCH4C2H2C4HC2H4PH2C2HC3H2C5HC3H3CHC7FeCH2C3HC2HCHC4HCFeH3CH3CHCHSPCH6C3FePC2H2C3HC3H2CHCH7C7H2CH4C3H2C11H3CPHC4H3FeC3SCH3C2H2CHC8H4CHC5H3SC4H2C5HCH2CH2CHC3FeC2HC8PC18H20C2HC9H2CSHC3HCH8CH2CSHCHCSCH3C2H3PCHCHCH2C2H2CSHC3H4CH3C3HCHC7SC2HC4PSCH2CHC2SC3HCSFeC2H2PC2HC2HC3H2CPCH2C3HCHC2H3C5HCHC3H2CHC4S2C2H2C2HCHCH3CHCH3CHCS2C3SC2PHC4H3CHC6HCHCHC2H2CHCHFeC2H2C3HC2HC2HCHCHC2H2CH2CHCH4CHC4HCH2C3HCFeH3C2HCHCH3CH3CHC3HC3H3C2HC5H3C2HCHC2SFeHPH2CH2C4H4CHC3HCHPCHC2H6CH3C3H3CHSHC2HC5HC3HPCH2C3FeC3HFeSC2HC4HPH4CS2HSC2HCSC2HCH2CHC2HC2HCSHC2HFeC3H2CHSCH2CH2C3FeH5C3H2FeHSCH2C3HCSCHSHC4SFeHCPC4H3CHC2HC5H3C2PC13H2CHC2H3CHCH4C6FeCHC5H2CH3C2HC2HSCSPH3C2H4C2S2C2HC4H3CHC4HC3H4C3HC2HSH2CFeHCHC2SC2HCSHSH4CH2C2HSC4SHCHC2H2C2PC2HC3PCHC5SHC2SHCH4C2H8C2H3CPH3CHSHC5SC2SHC7HC2H3C3HCSHPC2H3CH3C3SH2C3H2C2H3CHC4HC5SCSHC4HCSPC2SHC2H2C2HC2PC3HCSHC2H2C3HC2H2C2HC3H3C3HCHCH2C2HFeH2CHFeCH2C3HSCHC2HCSC4SC2SFeC2HC2HC4FeSH2CSH2CHC2H2CFeHC2HCFeHC2SH4FeHSCHCH2C2HC3H2CH4FeHCH3C2HCSCHCFePHCHCHC2HCHC4H2PCH2C2HCHSH3C2H2C4H7CSCH2C2HFeCHC6H2SH2CH4C4HC3H2CH2C2HCHSCHC2SCFeHCHCH3C2H4C5HSHCH2CHCHC2HCH2C5H3CFeCH2CH2FeCFeHCH2FeC5HCHCHCHC2SCH5C2H2SCHC3HCH2C3HPHCHCH5SC4HC3HC4H3CH2C2HFeS2FeS2FeSFeS3C2SCH2Fe2HFeCSFeHSPFeSHSHCH2CSCHC4HPHCHCH2C4H2CHPC6H2C2SHC2FeHCH3C4H6C5H2SHC6H4C5HCHCSHSCH2CH2CHC4H2C5HFeH4CHC8HCFeHC2H2CH2CHCH4C3HCSHPCHCH2C13HCH2CHC3H8SCHC5H2C4H2C2HSFeHSC3HC4H5CHCH2CH2C2HC7PC10FeC3HSC2H12SH3CHCHC5H3C2H2CH3CSCHSH2CHC3HC6HSHCH6CHCHPSHCHC2HSH2C6HC2HCH2CFeHSH2PC6HCHC3HC4HC3HC2HCHSHSHCH2CH3FeCHC2PHSHC3HC7HCHC3H3CH2CSHCHCHCHCHC4H4CHC6HCH2CHCH2C2HCH2C
_chemical_formula_sum              "Fe576 H6912 S1152 C8640 P288"
_cell_length_a       121.757
_cell_length_b       121.746
_cell_length_c       121.682
_cell_angle_alpha    73.8051
_cell_angle_beta     73.5631
_cell_angle_gamma    73.3846

_space_group_name_H-M_alt    "P 1"
_space_group_IT_number       1

loop_
  _space_group_symop_operation_xyz
  'x, y, z'

loop_
  _atom_site_type_symbol
  _atom_site_label
  _atom_site_symmetry_multiplicity
  _atom_site_fract_x
  _atom_site_fract_y
  _atom_site_fract_z
  _atom_site_occupancy
  Fe  Fe1       1.0  0.47431  0.16931  0.02792  1.0000
  H   H1        1.0  0.47693  0.18845  0.99900  1.0000
  S   S1        1.0  0.46263  0.15855  0.02663  1.0000
  Fe  Fe2       1.0  0.47808  0.18400  0.04257  1.0000
  H   H2        1.0  0.47067  0.22745  0.01571  1.0000
  S   S2        1.0  0.47155  0.19168  0.05871  1.0000
  C   C1        1.0  0.45324  0.03726  0.23100  1.0000
  C   C2        1.0  0.48760  0.05568  0.11193  1.0000
  H   H3        1.0  0.45563  0.15005  0.05171  1.0000
  C   C3        1.0  0.43736  0.01651  0.22678  1.0000
  S   S3        1.0  0.46841  0.18859  0.02811  1.0000
  H   H4        1.0  0.46765  0.02209  0.23194  1.0000
  Fe  Fe3       1.0  0.47529  0.01913  0.18311  1.0000
  H   H5        1.0  0.46358  0.07158  0.10122  1.0000
  H   H6        1.0  0.49532  0.22652  0.02856  1.0000
  C   C4        1.0  0.44925  0.10262  0.08759  1.0000
  C   C5        1.0  0.47156  0.21395  0.04487  1.0000
  S   S4        1.0  0.45465  0.04008  0.21576  1.0000
  C   C6        1.0  0.46294  0.08605  0.08013  1.0000
  C   C7        1.0  0.42930  0.01493  0.21139  1.0000
  H   H7        1.0  0.45489  0.07486  0.07528  1.0000
  H   H8        1.0  0.46143  0.11780  0.03113  1.0000
  C   C8        1.0  0.46640  0.23503  0.01000  1.0000
  Fe  Fe4       1.0  0.48264  0.00309  0.20496  1.0000
  H   H9        1.0  0.48052  0.12769  0.00186  1.0000
  C   C9        1.0  0.47272  0.06743  0.10115  1.0000
  C   C10       1.0  0.48138  0.05447  0.05096  1.0000
  H   H10       1.0  0.46421  0.15423  0.08217  1.0000
  H   H11       1.0  0.44762  0.11035  0.09107  1.0000
  C   C11       1.0  0.48259  0.02522  0.15476  1.0000
  C   C12       1.0  0.48060  0.19665  0.08892  1.0000
  H   H12       1.0  0.47448  0.10560  0.10691  1.0000
  H   H13       1.0  0.47152  0.23150  0.03448  1.0000
  C   C13       1.0  0.48814  0.99618  0.15257  1.0000
  H   H14       1.0  0.43848  0.05191  0.23298  1.0000
  S   S5        1.0  0.47742  0.03504  0.18736  1.0000
  C   C14       1.0  0.46929  0.14366  0.02662  1.0000
  C   C15       1.0  0.49541  0.18899  0.10054  1.0000
  H   H15       1.0  0.45655  0.11455  0.12007  1.0000
  H   H16       1.0  0.48847  0.08823  0.05257  1.0000
  C   C16       1.0  0.46881  0.23543  0.99799  1.0000
  C   C17       1.0  0.46211  0.13578  0.02889  1.0000
  H   H17       1.0  0.48684  0.19925  0.07029  1.0000
  C   C18       1.0  0.49284  0.02866  0.13424  1.0000
  H   H18       1.0  0.45502  0.20736  0.07244  1.0000
  C   C19       1.0  0.46787  0.22628  0.04273  1.0000
  H   H19       1.0  0.43356  0.12598  0.06133  1.0000
  C   C20       1.0  0.45862  0.21259  0.06414  1.0000
  H   H20       1.0  0.48280  0.04922  0.04460  1.0000
  H   H21       1.0  0.47416  0.07063  0.03996  1.0000
  C   C21       1.0  0.48456  0.04923  0.06172  1.0000
  S   S6        1.0  0.48504  0.10431  0.02926  1.0000
  C   C22       1.0  0.46707  0.12381  0.02937  1.0000
  H   H22       1.0  0.44817  0.17137  0.04631  1.0000
  C   C23       1.0  0.48317  0.02561  0.14300  1.0000
  H   H23       1.0  0.47630  0.02330  0.14072  1.0000
  Fe  Fe5       1.0  0.48607  0.18971  0.01621  1.0000
  H   H24       1.0  0.48853  0.03992  0.06371  1.0000
  C   C24       1.0  0.48952  0.13367  0.07144  1.0000
  H   H25       1.0  0.43103  0.10452  0.08786  1.0000
  H   H26       1.0  0.47626  0.11443  0.06037  1.0000
  H   H27       1.0  0.44790  0.22899  0.06832  1.0000
  H   H28       1.0  0.45671  0.17568  0.07652  1.0000
  C   C25       1.0  0.43639  0.01976  0.21509  1.0000
  C   C26       1.0  0.45923  0.23175  0.05113  1.0000
  S   S7        1.0  0.48948  0.20450  0.00084  1.0000
  C   C27       1.0  0.45122  0.16757  0.05441  1.0000
  C   C28       1.0  0.46030  0.15780  0.07460  1.0000
  S   S8        1.0  0.48576  0.01760  0.21089  1.0000
  S   S9        1.0  0.49258  0.00790  0.18650  1.0000
  S   S10       1.0  0.47109  0.02038  0.16594  1.0000
  C   C29       1.0  0.43991  0.09934  0.08578  1.0000
  H   H29       1.0  0.48121  0.00332  0.13699  1.0000
  C   C30       1.0  0.48136  0.06835  0.09066  1.0000
  H   H30       1.0  0.44872  0.18428  0.05867  1.0000
  C   C31       1.0  0.46859  0.11351  0.10337  1.0000
  H   H31       1.0  0.47802  0.20975  0.03825  1.0000
  C   C32       1.0  0.47586  0.06114  0.11175  1.0000
  C   C33       1.0  0.48154  0.13953  0.02445  1.0000
  H   H32       1.0  0.46780  0.09861  0.08632  1.0000
  C   C34       1.0  0.45459  0.22484  0.06181  1.0000
  Fe  Fe6       1.0  0.46879  0.02770  0.20578  1.0000
  H   H33       1.0  0.45267  0.13894  0.03040  1.0000
  C   C35       1.0  0.45544  0.15543  0.05754  1.0000
  C   C36       1.0  0.47510  0.07335  0.05640  1.0000
  H   H34       1.0  0.44225  0.13726  0.06930  1.0000
  H   H35       1.0  0.44704  0.14144  0.09077  1.0000
  H   H36       1.0  0.42874  0.01735  0.20226  1.0000
  H   H37       1.0  0.44616  0.10898  0.05290  1.0000
  C   C37       1.0  0.45986  0.15044  0.06774  1.0000
  H   H38       1.0  0.47469  0.14898  0.00186  1.0000
  S   S11       1.0  0.46503  0.01269  0.20116  1.0000
  C   C38       1.0  0.45154  0.17482  0.06135  1.0000
  C   C39       1.0  0.47924  0.11956  0.02763  1.0000
  C   C40       1.0  0.48904  0.99938  0.14047  1.0000
  C   C41       1.0  0.45348  0.08268  0.07853  1.0000
  C   C42       1.0  0.47106  0.11863  0.09139  1.0000
  H   H39       1.0  0.43477  0.08676  0.07995  1.0000
  H   H40       1.0  0.48640  0.13406  0.08061  1.0000
  C   C43       1.0  0.46071  0.09598  0.08481  1.0000
  C   C44       1.0  0.48174  0.13378  0.06479  1.0000
  H   H41       1.0  0.49106  0.02833  0.16658  1.0000
  H   H42       1.0  0.47673  0.19297  0.10780  1.0000
  C   C45       1.0  0.48023  0.14596  0.99409  1.0000
  C   C46       1.0  0.47873  0.06823  0.06704  1.0000
  C   C47       1.0  0.44202  0.08936  0.08127  1.0000
  P   P1        1.0  0.47773  0.07726  0.07701  1.0000
  H   H43       1.0  0.44287  0.13247  0.11194  1.0000
  H   H44       1.0  0.47136  0.08267  0.05417  1.0000
  S   S12       1.0  0.48230  0.16458  0.04359  1.0000
  C   C48       1.0  0.46697  0.20710  0.05562  1.0000
  C   C49       1.0  0.44286  0.12343  0.06126  1.0000
  C   C50       1.0  0.44993  0.11383  0.05655  1.0000
  C   C51       1.0  0.46194  0.11062  0.05634  1.0000
  C   C52       1.0  0.46694  0.11705  0.06068  1.0000
  C   C53       1.0  0.45998  0.12689  0.06513  1.0000
  C   C54       1.0  0.44784  0.12985  0.06567  1.0000
  P   P2        1.0  0.46627  0.13494  0.07121  1.0000
  C   C55       1.0  0.46348  0.12888  0.08677  1.0000
  C   C56       1.0  0.43080  0.00885  0.23502  1.0000
  C   C57       1.0  0.49184  0.09110  0.07847  1.0000
  C   C58       1.0  0.45605  0.16994  0.07145  1.0000
  H   H45       1.0  0.44118  0.02604  0.20889  1.0000
  H   H46       1.0  0.46748  0.10339  0.05240  1.0000
  H   H47       1.0  0.47145  0.19951  0.08832  1.0000
  C   C59       1.0  0.45321  0.13376  0.09422  1.0000
  C   C60       1.0  0.45077  0.12863  0.10621  1.0000
  C   C61       1.0  0.45847  0.11853  0.11079  1.0000
  H   H48       1.0  0.47990  0.13476  0.04742  1.0000
  C   C62       1.0  0.48651  0.12747  0.02497  1.0000
  C   C63       1.0  0.47697  0.04952  0.23469  1.0000
  H   H49       1.0  0.48717  0.14559  0.02252  1.0000
  H   H50       1.0  0.49100  0.04957  0.21941  1.0000
  H   H51       1.0  0.47504  0.22816  0.99457  1.0000
  C   C64       1.0  0.47655  0.06652  0.04835  1.0000
  H   H52       1.0  0.48588  0.05173  0.07794  1.0000
  C   C65       1.0  0.48314  0.05604  0.06978  1.0000
  H   H53       1.0  0.44304  0.02020  0.22947  1.0000
  C   C66       1.0  0.48771  0.08712  0.07092  1.0000
  S   S13       1.0  0.49103  0.17094  0.01457  1.0000
  C   C67       1.0  0.48590  0.13409  0.05276  1.0000
  H   H54       1.0  0.47961  0.99789  0.15844  1.0000
  C   C68       1.0  0.44420  0.04455  0.23745  1.0000
  H   H55       1.0  0.47880  0.11453  0.08570  1.0000
  C   C69       1.0  0.49135  0.02854  0.15761  1.0000
  C   C70       1.0  0.49125  0.09112  0.05875  1.0000
  H   H56       1.0  0.46923  0.06044  0.11986  1.0000
  H   H57       1.0  0.41749  0.00329  0.21658  1.0000
  C   C71       1.0  0.42364  0.00405  0.23128  1.0000
  C   C72       1.0  0.48940  0.19660  0.07866  1.0000
  S   S14       1.0  0.49528  0.18650  0.03070  1.0000
  C   C73       1.0  0.42298  0.00702  0.21947  1.0000
  C   C74       1.0  0.48883  0.04745  0.22891  1.0000
  H   H58       1.0  0.47018  0.05318  0.22968  1.0000
  C   C75       1.0  0.46065  0.02778  0.23684  1.0000
  C   C76       1.0  0.48359  0.19292  0.09986  1.0000
  H   H59       1.0  0.41854  0.99804  0.23740  1.0000
  H   H60       1.0  0.48932  0.08815  0.08790  1.0000
  H   H61       1.0  0.42237  0.03074  0.23999  1.0000
  Fe  Fe7       1.0  0.49410  0.02336  0.19196  1.0000
  C   C77       1.0  0.48346  0.13400  0.99406  1.0000
  H   H62       1.0  0.49262  0.23173  0.04782  1.0000
  C   C78       1.0  0.49309  0.06255  0.09090  1.0000
  H   H63       1.0  0.49006  0.05094  0.12016  1.0000
  H   H64       1.0  0.49342  0.02863  0.12522  1.0000
  H   H65       1.0  0.45187  0.99259  0.23569  1.0000
  C   C79       1.0  0.99672  0.08577  0.41507  1.0000
  H   H66       1.0  0.37292  0.02174  0.42613  1.0000
  C   C80       1.0  0.02952  0.23160  0.42064  1.0000
  C   C81       1.0  0.13570  0.02440  0.46589  1.0000
  H   H67       1.0  0.04750  0.13708  0.44029  1.0000
  H   H68       1.0  0.20678  0.10092  0.44299  1.0000
  C   C82       1.0  0.49457  0.01180  0.32969  1.0000
  Fe  Fe8       1.0  0.46154  0.01928  0.27945  1.0000
  C   C83       1.0  0.39606  0.00258  0.48135  1.0000
  C   C84       1.0  0.17468  0.00065  0.41986  1.0000
  C   C85       1.0  0.06670  0.23135  0.48139  1.0000
  H   H69       1.0  0.45372  0.00340  0.41710  1.0000
  C   C86       1.0  0.04417  0.21785  0.40482  1.0000
  C   C87       1.0  0.04512  0.22936  0.40338  1.0000
  C   C88       1.0  0.06715  0.13508  0.45272  1.0000
  H   H70       1.0  0.00781  0.12888  0.45145  1.0000
  H   H71       1.0  0.30051  0.03844  0.46086  1.0000
  H   H72       1.0  0.04983  0.21260  0.39864  1.0000
  H   H73       1.0  0.05148  0.23293  0.39606  1.0000
  C   C89       1.0  0.46215  0.99512  0.26206  1.0000
  H   H74       1.0  0.46878  0.05055  0.36538  1.0000
  H   H75       1.0  0.23894  0.09627  0.41683  1.0000
  H   H76       1.0  0.24415  0.00641  0.41715  1.0000
  H   H77       1.0  0.08829  0.17647  0.46265  1.0000
  H   H78       1.0  0.21266  0.00021  0.41318  1.0000
  C   C90       1.0  0.11822  0.01248  0.46826  1.0000
  C   C91       1.0  0.41539  0.03932  0.25436  1.0000
  C   C92       1.0  0.01815  0.14183  0.44256  1.0000
  H   H79       1.0  0.46467  0.04827  0.25143  1.0000
  S   S15       1.0  0.48705  0.00239  0.29473  1.0000
  H   H80       1.0  0.46465  0.01827  0.25354  1.0000
  C   C93       1.0  0.99936  0.09158  0.44979  1.0000
  C   C94       1.0  0.02964  0.13345  0.47453  1.0000
  H   H81       1.0  0.06507  0.04132  0.47254  1.0000
  C   C95       1.0  0.40110  0.00195  0.46957  1.0000
  P   P3        1.0  0.43147  0.00561  0.25027  1.0000
  H   H82       1.0  0.41277  0.04782  0.24879  1.0000
  H   H83       1.0  0.29410  0.00968  0.43406  1.0000
  H   H84       1.0  0.07918  0.21333  0.44765  1.0000
  C   C96       1.0  0.37390  0.01953  0.46752  1.0000
  H   H85       1.0  0.29813  0.02143  0.47742  1.0000
  S   S16       1.0  0.00246  0.20460  0.43428  1.0000
  Fe  Fe9       1.0  0.05921  0.07491  0.47986  1.0000
  S   S17       1.0  0.44650  0.02970  0.27100  1.0000
  H   H86       1.0  0.36800  0.03255  0.45298  1.0000
  S   S18       1.0  0.00644  0.15244  0.43750  1.0000
  H   H87       1.0  0.02722  0.07352  0.46163  1.0000
  S   S19       1.0  0.32224  0.01370  0.45629  1.0000
  H   H88       1.0  0.40663  0.00741  0.26220  1.0000
  C   C97       1.0  0.22854  0.07622  0.44051  1.0000
  C   C98       1.0  0.36699  0.02436  0.45915  1.0000
  C   C99       1.0  0.35881  0.01857  0.45866  1.0000
  C   C100      1.0  0.04581  0.23965  0.48425  1.0000
  C   C101      1.0  0.07302  0.02345  0.47976  1.0000
  H   H89       1.0  0.25765  0.05820  0.43954  1.0000
  C   C102      1.0  0.36471  0.00293  0.47462  1.0000
  C   C103      1.0  0.48216  0.03761  0.35707  1.0000
  H   H90       1.0  0.36296  0.03740  0.47980  1.0000
  S   S20       1.0  0.46679  0.02682  0.29154  1.0000
  H   H91       1.0  0.01829  0.22141  0.39471  1.0000
  H   H92       1.0  0.16919  0.00576  0.46654  1.0000
  H   H93       1.0  0.22058  0.04985  0.47138  1.0000
  Fe  Fe10      1.0  0.04629  0.09925  0.46959  1.0000
  C   C104      1.0  0.09305  0.01597  0.46982  1.0000
  H   H94       1.0  0.09979  0.05280  0.48049  1.0000
  H   H95       1.0  0.46783  0.99964  0.36656  1.0000
  H   H96       1.0  0.35346  0.02229  0.45217  1.0000
  C   C105      1.0  0.07657  0.20553  0.45345  1.0000
  C   C106      1.0  0.09258  0.02669  0.46153  1.0000
  C   C107      1.0  0.03711  0.12438  0.44969  1.0000
  C   C108      1.0  0.42483  0.01855  0.25644  1.0000
  C   C109      1.0  0.24979  0.04733  0.47450  1.0000
  H   H97       1.0  0.46519  0.99585  0.26931  1.0000
  C   C110      1.0  0.23609  0.08090  0.43030  1.0000
  C   C111      1.0  0.01021  0.07327  0.45982  1.0000
  Fe  Fe11      1.0  0.01851  0.19254  0.42618  1.0000
  H   H98       1.0  0.01149  0.14215  0.47510  1.0000
  C   C112      1.0  0.48171  0.00882  0.35760  1.0000
  C   C113      1.0  0.48251  0.99314  0.37491  1.0000
  C   C114      1.0  0.05233  0.16379  0.43993  1.0000
  C   C115      1.0  0.44240  0.04225  0.24968  1.0000
  C   C116      1.0  0.00338  0.08623  0.48563  1.0000
  H   H99       1.0  0.16681  0.00534  0.41664  1.0000
  C   C117      1.0  0.03421  0.21297  0.47361  1.0000
  H   H100      1.0  0.05383  0.19229  0.42831  1.0000
  H   H101      1.0  0.38014  0.02415  0.46789  1.0000
  H   H102      1.0  0.02375  0.23695  0.42668  1.0000
  C   C118      1.0  0.11533  0.02306  0.47204  1.0000
  H   H103      1.0  0.01821  0.22003  0.44826  1.0000
  H   H104      1.0  0.03676  0.23563  0.47365  1.0000
  H   H105      1.0  0.44508  0.00567  0.26712  1.0000
  C   C119      1.0  0.00214  0.23741  0.48040  1.0000
  H   H106      1.0  0.99809  0.11774  0.42733  1.0000
  C   C120      1.0  0.22837  0.00425  0.41401  1.0000
  C   C121      1.0  0.48412  0.05725  0.35564  1.0000
  H   H107      1.0  0.99692  0.13842  0.42710  1.0000
  Fe  Fe12      1.0  0.03241  0.08124  0.48429  1.0000
  C   C122      1.0  0.02841  0.22004  0.42195  1.0000
  S   S21       1.0  0.03116  0.09969  0.48521  1.0000
  H   H108      1.0  0.17014  0.00125  0.44763  1.0000
  C   C123      1.0  0.26953  0.02425  0.45024  1.0000
  Fe  Fe13      1.0  0.00729  0.17119  0.43532  1.0000
  S   S22       1.0  0.01888  0.17780  0.44216  1.0000
  C   C124      1.0  0.45065  0.00059  0.26081  1.0000
  H   H109      1.0  0.18972  0.04470  0.46517  1.0000
  C   C125      1.0  0.08184  0.18473  0.46193  1.0000
  S   S23       1.0  0.19500  0.02264  0.45319  1.0000
  H   H110      1.0  0.02449  0.11362  0.45819  1.0000
  H   H111      1.0  0.04820  0.12691  0.47210  1.0000
  H   H112      1.0  0.01064  0.06429  0.46470  1.0000
  H   H113      1.0  0.06555  0.02235  0.48702  1.0000
  H   H114      1.0  0.02779  0.12484  0.47818  1.0000
  H   H115      1.0  0.41612  0.02657  0.28287  1.0000
  C   C126      1.0  0.24299  0.05243  0.43797  1.0000
  C   C127      1.0  0.23978  0.04508  0.43292  1.0000
  C   C128      1.0  0.24831  0.03834  0.42553  1.0000
  C   C129      1.0  0.26008  0.03889  0.42308  1.0000
  C   C130      1.0  0.26337  0.04615  0.42808  1.0000
  C   C131      1.0  0.25488  0.05285  0.43553  1.0000
  C   C132      1.0  0.28490  0.01252  0.43795  1.0000
  P   P4        1.0  0.10678  0.00508  0.46960  1.0000
  C   C133      1.0  0.08020  0.11574  0.44276  1.0000
  H   H116      1.0  0.21201  0.08012  0.45295  1.0000
  S   S24       1.0  0.29192  0.02624  0.44788  1.0000
  C   C134      1.0  0.10527  0.00256  0.44789  1.0000
  H   H117      1.0  0.47688  0.01443  0.35106  1.0000
  C   C135      1.0  0.05524  0.22702  0.47033  1.0000
  C   C136      1.0  0.47385  0.04664  0.24694  1.0000
  C   C137      1.0  0.26453  0.01190  0.44065  1.0000
  S   S25       1.0  0.03459  0.19887  0.41481  1.0000
  C   C138      1.0  0.01192  0.23668  0.40234  1.0000
  H   H118      1.0  0.02608  0.09429  0.45116  1.0000
  S   S26       1.0  0.24079  0.00055  0.47045  1.0000
  C   C139      1.0  0.12401  0.02904  0.47076  1.0000
  H   H119      1.0  0.23082  0.04422  0.43487  1.0000
  H   H120      1.0  0.24586  0.03230  0.42208  1.0000
  H   H121      1.0  0.26673  0.03330  0.41775  1.0000
  H   H122      1.0  0.27258  0.04618  0.42659  1.0000
  C   C140      1.0  0.07045  0.13635  0.44047  1.0000
  H   H123      1.0  0.10022  0.02825  0.45466  1.0000
  C   C141      1.0  0.07044  0.18527  0.46876  1.0000
  H   H124      1.0  0.08364  0.14318  0.45901  1.0000
  H   H125      1.0  0.24428  0.07549  0.42658  1.0000
  H   H126      1.0  0.24539  0.04088  0.46196  1.0000
  C   C142      1.0  0.49458  0.03253  0.32389  1.0000
  H   H127      1.0  0.19547  0.05389  0.44415  1.0000
  C   C143      1.0  0.22253  0.09993  0.42929  1.0000
  P   P5        1.0  0.23223  0.06100  0.44785  1.0000
  H   H128      1.0  0.12173  0.03711  0.47385  1.0000
  C   C144      1.0  0.23788  0.06948  0.46433  1.0000
  C   C145      1.0  0.30923  0.02490  0.48649  1.0000
  C   C146      1.0  0.21521  0.05088  0.46533  1.0000
  C   C147      1.0  0.02586  0.12209  0.45297  1.0000
  C   C148      1.0  0.37425  0.01295  0.43149  1.0000
  C   C149      1.0  0.05523  0.18364  0.43401  1.0000
  H   H129      1.0  0.06087  0.21557  0.43576  1.0000
  C   C150      1.0  0.01745  0.21302  0.46667  1.0000
  C   C151      1.0  0.49170  0.03313  0.31336  1.0000
  C   C152      1.0  0.48254  0.04130  0.25338  1.0000
  H   H130      1.0  0.25415  0.03868  0.47859  1.0000
  C   C153      1.0  0.08315  0.01441  0.47893  1.0000
  C   C154      1.0  0.21868  0.05592  0.45340  1.0000
  H   H131      1.0  0.06797  0.14467  0.43467  1.0000
  S   S27       1.0  0.01584  0.07481  0.48768  1.0000
  C   C155      1.0  0.21795  0.08354  0.44506  1.0000
  C   C156      1.0  0.47650  0.00049  0.36640  1.0000
  C   C157      1.0  0.04379  0.14581  0.46581  1.0000
  C   C158      1.0  0.28143  0.02062  0.44517  1.0000
  H   H132      1.0  0.33434  0.01172  0.48357  1.0000
  H   H133      1.0  0.19645  0.99822  0.44853  1.0000
  C   C159      1.0  0.99698  0.22795  0.48657  1.0000
  S   S28       1.0  0.25397  0.00684  0.43737  1.0000
  H   H134      1.0  0.03763  0.22435  0.44416  1.0000
  C   C160      1.0  0.07857  0.14619  0.48703  1.0000
  C   C161      1.0  0.41102  0.99820  0.26340  1.0000
  H   H135      1.0  0.47683  0.03116  0.36040  1.0000
  C   C162      1.0  0.21497  0.09534  0.43945  1.0000
  C   C163      1.0  0.13871  0.01380  0.46226  1.0000
  C   C164      1.0  0.42264  0.01751  0.26863  1.0000
  H   H136      1.0  0.49556  0.00346  0.33589  1.0000
  H   H137      1.0  0.19581  0.00562  0.42980  1.0000
  C   C165      1.0  0.23757  0.00122  0.41980  1.0000
  C   C166      1.0  0.18154  0.02571  0.46325  1.0000
  H   H138      1.0  0.42998  0.99699  0.46989  1.0000
  H   H139      1.0  0.27119  0.00136  0.46619  1.0000
  C   C167      1.0  0.02134  0.17587  0.49042  1.0000
  C   C168      1.0  0.40339  0.00099  0.48899  1.0000
  P   P6        1.0  0.05438  0.22005  0.45939  1.0000
  H   H140      1.0  0.42520  0.00911  0.27434  1.0000
  H   H141      1.0  0.09379  0.19446  0.44904  1.0000
  H   H142      1.0  0.06404  0.22855  0.41609  1.0000
  H   H143      1.0  0.39571  0.00249  0.46363  1.0000
  H   H144      1.0  0.04059  0.18532  0.46556  1.0000
  C   C169      1.0  0.38515  0.00754  0.43451  1.0000
  H   H145      1.0  0.30630  0.99474  0.42244  1.0000
  Fe  Fe14      1.0  0.32197  0.99496  0.46483  1.0000
  C   C170      1.0  0.15956  0.03103  0.47857  1.0000
  C   C171      1.0  0.02933  0.14416  0.43955  1.0000
  Fe  Fe15      1.0  0.21135  0.01468  0.46035  1.0000
  C   C172      1.0  0.06246  0.17024  0.45063  1.0000
  C   C173      1.0  0.04127  0.13471  0.47107  1.0000
  H   H146      1.0  0.08461  0.07821  0.48491  1.0000
  H   H147      1.0  0.49066  0.00467  0.31729  1.0000
  C   C174      1.0  0.00882  0.09675  0.44816  1.0000
  C   C175      1.0  0.06207  0.19589  0.46788  1.0000
  C   C176      1.0  0.03777  0.23630  0.41120  1.0000
  C   C177      1.0  0.05681  0.24140  0.44379  1.0000
  C   C178      1.0  0.03186  0.17837  0.48315  1.0000
  S   S29       1.0  0.00882  0.18454  0.41839  1.0000
  C   C179      1.0  0.18092  0.00670  0.42322  1.0000
  C   C180      1.0  0.16854  0.02193  0.48253  1.0000
  H   H148      1.0  0.02186  0.21648  0.42900  1.0000
  H   H149      1.0  0.40972  0.04593  0.27021  1.0000
  H   H150      1.0  0.06802  0.17745  0.47479  1.0000
  S   S30       1.0  0.07698  0.06279  0.47546  1.0000
  S   S31       1.0  0.04420  0.17594  0.48892  1.0000
  S   S32       1.0  0.35127  0.01446  0.43207  1.0000
  C   C181      1.0  0.01958  0.07847  0.45809  1.0000
  C   C182      1.0  0.08184  0.05100  0.48647  1.0000
  H   H151      1.0  0.18671  0.01287  0.47821  1.0000
  C   C183      1.0  0.03569  0.21320  0.41395  1.0000
  C   C184      1.0  0.23308  0.09271  0.42472  1.0000
  H   H152      1.0  0.25836  0.01783  0.47532  1.0000
  C   C185      1.0  0.41364  0.03826  0.26642  1.0000
  S   S33       1.0  0.46250  0.00552  0.32277  1.0000
  Fe  Fe16      1.0  0.46816  0.00880  0.30307  1.0000
  S   S34       1.0  0.23088  0.02800  0.48400  1.0000
  C   C186      1.0  0.24290  0.06817  0.47379  1.0000
  S   S35       1.0  0.32193  0.00717  0.43190  1.0000
  H   H153      1.0  0.03071  0.15264  0.43434  1.0000
  C   C187      1.0  0.01073  0.23973  0.48441  1.0000
  C   C188      1.0  0.26799  0.99994  0.47563  1.0000
  C   C189      1.0  0.03882  0.13536  0.44290  1.0000
  C   C190      1.0  0.41724  0.02735  0.27355  1.0000
  C   C191      1.0  0.45892  0.02558  0.24911  1.0000
  C   C192      1.0  0.08491  0.19486  0.45427  1.0000
  H   H154      1.0  0.35796  0.99953  0.40633  1.0000
  C   C193      1.0  0.06054  0.22474  0.43498  1.0000
  C   C194      1.0  0.17967  0.01952  0.47497  1.0000
  C   C195      1.0  0.01890  0.09019  0.45224  1.0000
  C   C196      1.0  0.13003  0.00782  0.46347  1.0000
  H   H155      1.0  0.24213  0.07572  0.47721  1.0000
  H   H156      1.0  0.22789  0.01175  0.40671  1.0000
  C   C197      1.0  0.08479  0.14423  0.47595  1.0000
  S   S36       1.0  0.30753  0.99414  0.45739  1.0000
  S   S37       1.0  0.22569  0.02443  0.45582  1.0000
  C   C198      1.0  0.23881  0.05969  0.45989  1.0000
  C   C199      1.0  0.00462  0.09728  0.47870  1.0000
  H   H157      1.0  0.00907  0.21071  0.46835  1.0000
  C   C200      1.0  0.27643  0.00833  0.43551  1.0000
  H   H158      1.0  0.49062  0.04135  0.30694  1.0000
  C   C201      1.0  0.01091  0.22644  0.40001  1.0000
  H   H159      1.0  0.26686  0.03050  0.45582  1.0000
  Fe  Fe17      1.0  0.30874  0.01249  0.44768  1.0000
  H   H160      1.0  0.09565  0.09281  0.48392  1.0000
  H   H161      1.0  0.32307  0.04765  0.47660  1.0000
  C   C202      1.0  0.47753  0.04865  0.35991  1.0000
  H   H162      1.0  0.01558  0.16197  0.46717  1.0000
  C   C203      1.0  0.16160  0.03740  0.46698  1.0000
  C   C204      1.0  0.01643  0.13075  0.44919  1.0000
  C   C205      1.0  0.02325  0.21040  0.47577  1.0000
  H   H163      1.0  0.14244  0.02890  0.46522  1.0000
  H   H164      1.0  0.48050  0.06581  0.35782  1.0000
  H   H165      1.0  0.01942  0.20602  0.48443  1.0000
  H   H166      1.0  0.00848  0.10587  0.44392  1.0000
  C   C206      1.0  0.03972  0.21777  0.46218  1.0000
  C   C207      1.0  0.26110  0.01970  0.44819  1.0000
  C   C208      1.0  0.02268  0.21813  0.45533  1.0000
  C   C209      1.0  0.24884  0.05709  0.47888  1.0000
  H   H167      1.0  0.22020  0.10907  0.42494  1.0000
  C   C210      1.0  0.06504  0.20614  0.46021  1.0000
  C   C211      1.0  0.37268  0.00886  0.47542  1.0000
  H   H168      1.0  0.05335  0.19597  0.47330  1.0000
  H   H169      1.0  0.08234  0.04420  0.45644  1.0000
  H   H170      1.0  0.05065  0.15112  0.48366  1.0000
  H   H171      1.0  0.31301  0.05151  0.46050  1.0000
  C   C212      1.0  0.36500  0.00712  0.43559  1.0000
  H   H172      1.0  0.03591  0.16439  0.46115  1.0000
  C   C213      1.0  0.03378  0.22049  0.45305  1.0000
  C   C214      1.0  0.01163  0.18456  0.47408  1.0000
  C   C215      1.0  0.02277  0.15436  0.46827  1.0000
  H   H173      1.0  0.20236  0.04268  0.47874  1.0000
  C   C216      1.0  0.06096  0.18135  0.44314  1.0000
  C   C217      1.0  0.26086  0.00924  0.48077  1.0000
  Fe  Fe18      1.0  0.33548  0.00666  0.44146  1.0000
  H   H174      1.0  0.21375  0.06129  0.43660  1.0000
  Fe  Fe19      1.0  0.00210  0.18932  0.44979  1.0000
  C   C218      1.0  0.09382  0.04764  0.48661  1.0000
  C   C219      1.0  0.30347  0.02721  0.47738  1.0000
  C   C220      1.0  0.30480  0.03682  0.46804  1.0000
  C   C221      1.0  0.31188  0.04415  0.46784  1.0000
  C   C222      1.0  0.31763  0.04186  0.47697  1.0000
  H   H175      1.0  0.39219  0.01217  0.43142  1.0000
  H   H176      1.0  0.00248  0.07789  0.41244  1.0000
  C   C223      1.0  0.49303  0.00988  0.35722  1.0000
  H   H177      1.0  0.09430  0.14227  0.47389  1.0000
  C   C224      1.0  0.06637  0.14691  0.47036  1.0000
  H   H178      1.0  0.41709  0.99930  0.45640  1.0000
  H   H179      1.0  0.03853  0.21093  0.48081  1.0000
  H   H180      1.0  0.10638  0.02667  0.47612  1.0000
  H   H181      1.0  0.07397  0.22022  0.46901  1.0000
  H   H182      1.0  0.31430  0.99573  0.40118  1.0000
  H   H183      1.0  0.08331  0.00643  0.48567  1.0000
  C   C225      1.0  0.08248  0.03573  0.46248  1.0000
  C   C226      1.0  0.24482  0.04861  0.46504  1.0000
  H   H184      1.0  0.06657  0.16877  0.45786  1.0000
  C   C227      1.0  0.07685  0.12668  0.43554  1.0000
  H   H185      1.0  0.23327  0.07811  0.46058  1.0000
  S   S38       1.0  0.05995  0.09293  0.48041  1.0000
  H   H186      1.0  0.09875  0.01076  0.44746  1.0000
  C   C228      1.0  0.04514  0.23419  0.47585  1.0000
  C   C229      1.0  0.42306  0.99472  0.25848  1.0000
  C   C230      1.0  0.20479  0.04688  0.46956  1.0000
  H   H187      1.0  0.17789  0.01609  0.42262  1.0000
  C   C231      1.0  0.19768  0.04800  0.46192  1.0000
  H   H188      1.0  0.02277  0.19060  0.45752  1.0000
  C   C232      1.0  0.05821  0.16133  0.44903  1.0000
  S   S39       1.0  0.47985  0.01357  0.26929  1.0000
  C   C233      1.0  0.06605  0.22565  0.47315  1.0000
  Fe  Fe20      1.0  0.23803  0.00770  0.45217  1.0000
  C   C234      1.0  0.44962  0.03267  0.25558  1.0000
  H   H189      1.0  0.07899  0.12762  0.42611  1.0000
  H   H190      1.0  0.07969  0.10596  0.46054  1.0000
  C   C235      1.0  0.07872  0.14468  0.46759  1.0000
  Fe  Fe21      1.0  0.22735  0.01660  0.47441  1.0000
  S   S40       1.0  0.04931  0.11368  0.45367  1.0000
  P   P7        1.0  0.05880  0.14739  0.45942  1.0000
  C   C236      1.0  0.49436  0.03883  0.24760  1.0000
  H   H191      1.0  0.43535  0.04789  0.25461  1.0000
  C   C237      1.0  0.07271  0.03412  0.47159  1.0000
  C   C238      1.0  0.06017  0.14910  0.48140  1.0000
  C   C239      1.0  0.21134  0.05727  0.44582  1.0000
  H   H192      1.0  0.06401  0.18826  0.44457  1.0000
  C   C240      1.0  0.02236  0.18635  0.46666  1.0000
  S   S41       1.0  0.99866  0.18965  0.46882  1.0000
  H   H193      1.0  0.25192  0.02251  0.45216  1.0000
  H   H194      1.0  0.08483  0.10818  0.43895  1.0000
  H   H195      1.0  0.14779  0.01017  0.45867  1.0000
  C   C241      1.0  0.07731  0.11448  0.45493  1.0000
  C   C242      1.0  0.05780  0.22936  0.44505  1.0000
  H   H196      1.0  0.06864  0.12291  0.46935  1.0000
  H   H197      1.0  0.17384  0.03941  0.45027  1.0000
  C   C243      1.0  0.20094  0.05321  0.45006  1.0000
  S   S42       1.0  0.04663  0.08133  0.46780  1.0000
  C   C244      1.0  0.42099  0.02954  0.24937  1.0000
  C   C245      1.0  0.02043  0.14321  0.47282  1.0000
  C   C246      1.0  0.44667  0.99964  0.25141  1.0000
  C   C247      1.0  0.07088  0.12411  0.45989  1.0000
  C   C248      1.0  0.17243  0.03455  0.45928  1.0000
  H   H198      1.0  0.01324  0.09873  0.47410  1.0000
  H   H199      1.0  0.04633  0.17664  0.42547  1.0000
  S   S43       1.0  0.21193  0.00822  0.47935  1.0000
  C   C249      1.0  0.06236  0.23206  0.42382  1.0000
  C   C250      1.0  0.03243  0.18342  0.47123  1.0000
  H   H200      1.0  0.04845  0.15727  0.43889  1.0000
  S   S44       1.0  0.46094  0.00191  0.29199  1.0000
  C   C251      1.0  0.35778  0.00778  0.46628  1.0000
  C   C252      1.0  0.03437  0.15567  0.46485  1.0000
  H   H201      1.0  0.15473  0.04451  0.46391  1.0000
  C   C253      1.0  0.05098  0.17483  0.43239  1.0000
  S   S45       1.0  0.22359  0.99864  0.45480  1.0000
  C   C254      1.0  0.00017  0.07975  0.45561  1.0000
  H   H202      1.0  0.07501  0.23021  0.48367  1.0000
  Fe  Fe22      1.0  0.48515  0.01983  0.28230  1.0000
  C   C255      1.0  0.05659  0.23841  0.48689  1.0000
  H   H203      1.0  0.99817  0.23101  0.45954  1.0000
  C   C256      1.0  0.42053  0.99870  0.47304  1.0000
  C   C257      1.0  0.00055  0.22244  0.40490  1.0000
  C   C258      1.0  0.45065  0.99587  0.42299  1.0000
  H   H204      1.0  0.35166  0.00316  0.46563  1.0000
  S   S46       1.0  0.14592  0.03517  0.48794  1.0000
  C   C259      1.0  0.41329  0.00005  0.46544  1.0000
  C   C260      1.0  0.19108  0.00067  0.42739  1.0000
  H   H205      1.0  0.27626  0.02658  0.49055  1.0000
  C   C261      1.0  0.01116  0.17915  0.48593  1.0000
  H   H206      1.0  0.48011  0.03889  0.26287  1.0000
  Fe  Fe23      1.0  0.47977  0.99672  0.28280  1.0000
  H   H207      1.0  0.02006  0.23963  0.39874  1.0000
  H   H208      1.0  0.00029  0.08072  0.43227  1.0000
  H   H209      1.0  0.19262  0.99711  0.46950  1.0000
  H   H210      1.0  0.27910  0.00228  0.42972  1.0000
  C   C262      1.0  0.16922  0.99695  0.46617  1.0000
  C   C263      1.0  0.49022  0.02312  0.31103  1.0000
  C   C264      1.0  0.21966  0.99777  0.41782  1.0000
  H   H211      1.0  0.43253  0.00319  0.42186  1.0000
  C   C265      1.0  0.49174  0.01245  0.31915  1.0000
  H   H212      1.0  0.46886  0.99730  0.34536  1.0000
  H   H213      1.0  0.48792  0.02361  0.30291  1.0000
  H   H214      1.0  0.13265  0.99957  0.46074  1.0000
  H   H215      1.0  0.99984  0.21434  0.40335  1.0000
  C   C266      1.0  0.45457  0.99340  0.24312  1.0000
  H   H216      1.0  0.34822  0.02538  0.48536  1.0000
  C   C267      1.0  0.43872  0.99576  0.42565  1.0000
  H   H217      1.0  0.29794  0.99751  0.48324  1.0000
  H   H218      1.0  0.10396  0.00039  0.43136  1.0000
  C   C268      1.0  0.41558  0.99918  0.48481  1.0000
  C   C269      1.0  0.35417  0.04062  0.48453  1.0000
  C   C270      1.0  0.11064  0.99778  0.45750  1.0000
  C   C271      1.0  0.38700  0.99613  0.44135  1.0000
  H   H219      1.0  0.35778  0.05679  0.48499  1.0000
  C   C272      1.0  0.10819  0.99668  0.43873  1.0000
  C   C273      1.0  0.36679  0.99578  0.44260  1.0000
  C   C274      1.0  0.31641  0.03214  0.48635  1.0000
  H   H220      1.0  0.25966  0.99439  0.40272  1.0000
  C   C275      1.0  0.16971  0.99440  0.45551  1.0000
  C   C276      1.0  0.49349  0.03506  0.35001  1.0000
  H   H221      1.0  0.25264  0.05600  0.48626  1.0000
  P   P8        1.0  0.38054  0.00352  0.48708  1.0000
  C   C277      1.0  0.49381  0.99401  0.37454  1.0000
  C   C278      1.0  0.35126  0.05156  0.48747  1.0000
  C   C279      1.0  0.34579  0.03380  0.48779  1.0000
  H   H222      1.0  0.28409  0.04436  0.48659  1.0000
  C   C280      1.0  0.06632  0.14873  0.48967  1.0000
  H   H223      1.0  0.36377  0.99462  0.48047  1.0000
  H   H224      1.0  0.17808  0.03884  0.48885  1.0000
  H   H225      1.0  0.40908  0.99362  0.41972  1.0000
  C   C281      1.0  0.10568  0.99411  0.48312  1.0000
  C   C282      1.0  0.49534  0.05484  0.34848  1.0000
  H   H226      1.0  0.42118  0.99770  0.49084  1.0000
  H   H227      1.0  0.49571  0.04039  0.32549  1.0000
  Fe  Fe24      1.0  0.22537  0.99276  0.47347  1.0000
  C   C283      1.0  0.47232  0.99302  0.32851  1.0000
  H   H228      1.0  0.39526  0.99256  0.27373  1.0000
  H   H229      1.0  0.03225  0.07237  0.53283  1.0000
  C   C284      1.0  0.40237  0.05412  0.63994  1.0000
  C   C285      1.0  0.99670  0.08506  0.56359  1.0000
  C   C286      1.0  0.47298  0.99909  0.63041  1.0000
  C   C287      1.0  0.45647  0.08832  0.72005  1.0000
  C   C288      1.0  0.15802  0.99804  0.56509  1.0000
  H   H230      1.0  0.99694  0.09548  0.50595  1.0000
  C   C289      1.0  0.10774  0.99609  0.49308  1.0000
  H   H231      1.0  0.03455  0.05523  0.52451  1.0000
  C   C290      1.0  0.00060  0.22066  0.49662  1.0000
  C   C291      1.0  0.20779  0.02180  0.51481  1.0000
  C   C292      1.0  0.33562  0.00759  0.49238  1.0000
  S   S47       1.0  0.20176  0.99419  0.56963  1.0000
  Fe  Fe25      1.0  0.47254  0.03517  0.68376  1.0000
  P   P9        1.0  0.49210  0.06777  0.70216  1.0000
  S   S48       1.0  0.45802  0.04927  0.69121  1.0000
  Fe  Fe26      1.0  0.47870  0.01401  0.67219  1.0000
  C   C293      1.0  0.33150  0.04900  0.49682  1.0000
  S   S49       1.0  0.47132  0.00096  0.66801  1.0000
  C   C294      1.0  0.24014  0.02248  0.58418  1.0000
  H   H232      1.0  0.02540  0.14996  0.49452  1.0000
  H   H233      1.0  0.99911  0.17987  0.58920  1.0000
  H   H234      1.0  0.40021  0.05987  0.65578  1.0000
  S   S50       1.0  0.47336  0.01604  0.69093  1.0000
  S   S51       1.0  0.47587  0.03347  0.66507  1.0000
  Fe  Fe27      1.0  0.05566  0.14612  0.52234  1.0000
  S   S52       1.0  0.04056  0.14927  0.51402  1.0000
  S   S53       1.0  0.07013  0.13069  0.51789  1.0000
  Fe  Fe28      1.0  0.04522  0.16804  0.53217  1.0000
  S   S54       1.0  0.02946  0.17302  0.52421  1.0000
  S   S55       1.0  0.04568  0.17929  0.54387  1.0000
  Fe  Fe29      1.0  0.02908  0.15397  0.53069  1.0000
  S   S56       1.0  0.01304  0.14626  0.53717  1.0000
  Fe  Fe30      1.0  0.04238  0.16777  0.50824  1.0000
  C   C295      1.0  0.46044  0.09127  0.70788  1.0000
  S   S57       1.0  0.04404  0.14913  0.53972  1.0000
  S   S58       1.0  0.05823  0.16452  0.51564  1.0000
  C   C296      1.0  0.29937  0.99780  0.49152  1.0000
  H   H235      1.0  0.45507  0.09827  0.70265  1.0000
  S   S59       1.0  0.04236  0.09632  0.51314  1.0000
  C   C297      1.0  0.04090  0.06705  0.53018  1.0000
  H   H236      1.0  0.00331  0.11980  0.51891  1.0000
  C   C298      1.0  0.17034  0.07497  0.53111  1.0000
  C   C299      1.0  0.01421  0.23257  0.49459  1.0000
  H   H237      1.0  0.44673  0.03037  0.69108  1.0000
  H   H238      1.0  0.33760  0.06431  0.49575  1.0000
  H   H239      1.0  0.21627  0.04884  0.49153  1.0000
  C   C300      1.0  0.33098  0.01377  0.50145  1.0000
  C   C301      1.0  0.47812  0.07579  0.70915  1.0000
  C   C302      1.0  0.13803  0.03588  0.54489  1.0000
  C   C303      1.0  0.33990  0.05577  0.49356  1.0000
  C   C304      1.0  0.10585  0.04446  0.53360  1.0000
  C   C305      1.0  0.33849  0.99618  0.51509  1.0000
  C   C306      1.0  0.42940  0.00002  0.65197  1.0000
  C   C307      1.0  0.29164  0.00196  0.51108  1.0000
  S   S60       1.0  0.06656  0.22470  0.52138  1.0000
  H   H240      1.0  0.01596  0.16505  0.58151  1.0000
  C   C308      1.0  0.06335  0.05389  0.52244  1.0000
  C   C309      1.0  0.37403  0.01348  0.49693  1.0000
  H   H241      1.0  0.17438  0.08129  0.53229  1.0000
  H   H242      1.0  0.18358  0.07091  0.51587  1.0000
  C   C310      1.0  0.41676  0.04758  0.65203  1.0000
  H   H243      1.0  0.01524  0.12393  0.56038  1.0000
  C   C311      1.0  0.42203  0.99719  0.61778  1.0000
  C   C312      1.0  0.46115  0.00767  0.73040  1.0000
  S   S61       1.0  0.26381  0.01710  0.57556  1.0000
  H   H244      1.0  0.13657  0.07036  0.52651  1.0000
  H   H245      1.0  0.00454  0.15308  0.49445  1.0000
  C   C313      1.0  0.06464  0.09510  0.54477  1.0000
  C   C314      1.0  0.40592  0.05441  0.64980  1.0000
  C   C315      1.0  0.43044  0.01053  0.65372  1.0000
  H   H246      1.0  0.02505  0.08729  0.54583  1.0000
  H   H247      1.0  0.00117  0.23567  0.55187  1.0000
  H   H248      1.0  0.37892  0.03600  0.50506  1.0000
  H   H249      1.0  0.01025  0.07076  0.55745  1.0000
  C   C316      1.0  0.00342  0.19718  0.53132  1.0000
  C   C317      1.0  0.00389  0.23162  0.54435  1.0000
  C   C318      1.0  0.16410  0.03807  0.51754  1.0000
  H   H250      1.0  0.01910  0.21970  0.54999  1.0000
  C   C319      1.0  0.42426  0.04051  0.64430  1.0000
  H   H251      1.0  0.11508  0.04458  0.53121  1.0000
  C   C320      1.0  0.24191  0.99861  0.53258  1.0000
  C   C321      1.0  0.21375  0.04128  0.49786  1.0000
  S   S62       1.0  0.27472  0.99312  0.55695  1.0000
  C   C322      1.0  0.22838  0.02300  0.58466  1.0000
  C   C323      1.0  0.99852  0.18034  0.52867  1.0000
  C   C324      1.0  0.10227  0.03418  0.54016  1.0000
  H   H252      1.0  0.35824  0.00677  0.50400  1.0000
  C   C325      1.0  0.08554  0.07975  0.49292  1.0000
  H   H253      1.0  0.42533  0.01351  0.66163  1.0000
  C   C326      1.0  0.45836  0.99681  0.73652  1.0000
  C   C327      1.0  0.13774  0.04859  0.51336  1.0000
  H   H254      1.0  0.22103  0.01146  0.50340  1.0000
  C   C328      1.0  0.13448  0.02973  0.55636  1.0000
  C   C329      1.0  0.30880  0.03770  0.53049  1.0000
  H   H255      1.0  0.42585  0.03434  0.62871  1.0000
  C   C330      1.0  0.17026  0.02701  0.52251  1.0000
  C   C331      1.0  0.24627  0.01268  0.56798  1.0000
  C   C332      1.0  0.05154  0.19183  0.53740  1.0000
  C   C333      1.0  0.06153  0.19169  0.52822  1.0000
  C   C334      1.0  0.06640  0.20165  0.52368  1.0000
  C   C335      1.0  0.06100  0.21194  0.52795  1.0000
  C   C336      1.0  0.05100  0.21207  0.53711  1.0000
  C   C337      1.0  0.04642  0.20197  0.54197  1.0000
  H   H256      1.0  0.06562  0.18384  0.52479  1.0000
  H   H257      1.0  0.07417  0.20150  0.51665  1.0000
  H   H258      1.0  0.04691  0.21988  0.54061  1.0000
  H   H259      1.0  0.03884  0.20202  0.54922  1.0000
  C   C338      1.0  0.00790  0.22558  0.57754  1.0000
  H   H260      1.0  0.16704  0.01708  0.49155  1.0000
  H   H261      1.0  0.03599  0.11321  0.55532  1.0000
  C   C339      1.0  0.20185  0.03315  0.51629  1.0000
  C   C340      1.0  0.22545  0.01837  0.57682  1.0000
  C   C341      1.0  0.45223  0.05480  0.72843  1.0000
  C   C342      1.0  0.09817  0.03752  0.49448  1.0000
  H   H262      1.0  0.00290  0.17752  0.49158  1.0000
  S   S63       1.0  0.19153  0.03530  0.52921  1.0000
  H   H263      1.0  0.04957  0.07786  0.53440  1.0000
  C   C343      1.0  0.06290  0.12088  0.51629  1.0000
  C   C344      1.0  0.06746  0.11458  0.50731  1.0000
  C   C345      1.0  0.06112  0.10717  0.50597  1.0000
  C   C346      1.0  0.05043  0.10586  0.51384  1.0000
  C   C347      1.0  0.04614  0.11198  0.52290  1.0000
  C   C348      1.0  0.05218  0.11965  0.52397  1.0000
  H   H264      1.0  0.07571  0.11564  0.50127  1.0000
  C   C349      1.0  0.31068  0.99383  0.49375  1.0000
  H   H265      1.0  0.03793  0.11107  0.52896  1.0000
  H   H266      1.0  0.04856  0.12456  0.53084  1.0000
  S   S64       1.0  0.21384  0.01256  0.54697  1.0000
  C   C350      1.0  0.08205  0.04401  0.53959  1.0000
  C   C351      1.0  0.43564  0.99621  0.64166  1.0000
  P   P10       1.0  0.07494  0.06743  0.52835  1.0000
  C   C352      1.0  0.06210  0.06353  0.52725  1.0000
  H   H267      1.0  0.47426  0.08759  0.69302  1.0000
  P   P11       1.0  0.99951  0.09569  0.55005  1.0000
  C   C353      1.0  0.37443  0.02961  0.50479  1.0000
  C   C354      1.0  0.14190  0.02643  0.56419  1.0000
  C   C355      1.0  0.99868  0.18723  0.53601  1.0000
  C   C356      1.0  0.21955  0.02994  0.49627  1.0000
  C   C357      1.0  0.00120  0.23061  0.52569  1.0000
  H   H268      1.0  0.14253  0.03981  0.51232  1.0000
  C   C358      1.0  0.01591  0.08634  0.51854  1.0000
  C   C359      1.0  0.33313  0.99901  0.55205  1.0000
  C   C360      1.0  0.03169  0.09934  0.55067  1.0000
  H   H269      1.0  0.27546  0.05850  0.49968  1.0000
  C   C361      1.0  0.07079  0.07610  0.53940  1.0000
  H   H270      1.0  0.02108  0.17161  0.49953  1.0000
  C   C362      1.0  0.07858  0.03395  0.50198  1.0000
  H   H271      1.0  0.06491  0.04684  0.49429  1.0000
  H   H272      1.0  0.25602  0.99488  0.50931  1.0000
  C   C363      1.0  0.00368  0.18187  0.58012  1.0000
  H   H273      1.0  0.08317  0.14569  0.49366  1.0000
  C   C364      1.0  0.00008  0.19267  0.57267  1.0000
  H   H274      1.0  0.10871  0.02636  0.54284  1.0000
  H   H275      1.0  0.11015  0.00409  0.49270  1.0000
  P   P12       1.0  0.32355  0.02913  0.49839  1.0000
  C   C365      1.0  0.40961  0.04689  0.63237  1.0000
  C   C366      1.0  0.00801  0.12637  0.51333  1.0000
  H   H276      1.0  0.45642  0.01348  0.72393  1.0000
  H   H277      1.0  0.07361  0.06117  0.55379  1.0000
  C   C367      1.0  0.24915  0.01729  0.57589  1.0000
  H   H278      1.0  0.42386  0.99475  0.65866  1.0000
  S   S65       1.0  0.49138  0.03396  0.68304  1.0000
  C   C368      1.0  0.47750  0.00761  0.63236  1.0000
  C   C369      1.0  0.47750  0.00798  0.64383  1.0000
  C   C370      1.0  0.47239  0.00024  0.65344  1.0000
  C   C371      1.0  0.09182  0.08792  0.49236  1.0000
  C   C372      1.0  0.12844  0.05417  0.50771  1.0000
  H   H279      1.0  0.48117  0.01385  0.62497  1.0000
  H   H280      1.0  0.48127  0.01436  0.64525  1.0000
  S   S66       1.0  0.18670  0.02087  0.56192  1.0000
  H   H281      1.0  0.19993  0.05162  0.50876  1.0000
  H   H282      1.0  0.23223  0.00971  0.56228  1.0000
  H   H283      1.0  0.30803  0.01751  0.49372  1.0000
  C   C373      1.0  0.44711  0.06021  0.70940  1.0000
  C   C374      1.0  0.45605  0.05102  0.70563  1.0000
  C   C375      1.0  0.46308  0.04361  0.71333  1.0000
  C   C376      1.0  0.46133  0.04563  0.72468  1.0000
  H   H284      1.0  0.32178  0.99753  0.56929  1.0000
  H   H285      1.0  0.44162  0.06595  0.70353  1.0000
  H   H286      1.0  0.46982  0.03636  0.71051  1.0000
  H   H287      1.0  0.29624  0.99956  0.60314  1.0000
  C   C377      1.0  0.44016  0.04134  0.66419  1.0000
  S   S67       1.0  0.28792  0.01539  0.54603  1.0000
  H   H288      1.0  0.44799  0.01175  0.68579  1.0000
  C   C378      1.0  0.09062  0.03044  0.50190  1.0000
  H   H289      1.0  0.18413  0.01200  0.51946  1.0000
  H   H290      1.0  0.32269  0.05251  0.50138  1.0000
  H   H291      1.0  0.20565  0.00216  0.50411  1.0000
  C   C379      1.0  0.04918  0.21465  0.50539  1.0000
  H   H292      1.0  0.07272  0.02849  0.50774  1.0000
  H   H293      1.0  0.01633  0.09920  0.52726  1.0000
  C   C380      1.0  0.47413  0.07299  0.72139  1.0000
  C   C381      1.0  0.00246  0.13634  0.50617  1.0000
  C   C382      1.0  0.27233  0.03291  0.49610  1.0000
  Fe  Fe31      1.0  0.27815  0.00699  0.56349  1.0000
  C   C383      1.0  0.19201  0.99331  0.50594  1.0000
  C   C384      1.0  0.29676  0.04017  0.53102  1.0000
  C   C385      1.0  0.24808  0.00176  0.53885  1.0000
  H   H294      1.0  0.99632  0.23398  0.51885  1.0000
  H   H295      1.0  0.44228  0.04925  0.67704  1.0000
  H   H296      1.0  0.31189  0.03813  0.53785  1.0000
  C   C386      1.0  0.49131  0.04421  0.70792  1.0000
  H   H297      1.0  0.18932  0.01966  0.49782  1.0000
  H   H298      1.0  0.28097  0.00430  0.49880  1.0000
  H   H299      1.0  0.06300  0.09484  0.56292  1.0000
  Fe  Fe32      1.0  0.20460  0.01240  0.56573  1.0000
  H   H300      1.0  0.06457  0.10236  0.49903  1.0000
  C   C387      1.0  0.99858  0.07967  0.53801  1.0000
  H   H301      1.0  0.15273  0.00832  0.53750  1.0000
  H   H302      1.0  0.17487  0.05619  0.51346  1.0000
  C   C388      1.0  0.12501  0.07120  0.51577  1.0000
  C   C389      1.0  0.34167  0.99583  0.49467  1.0000
  C   C390      1.0  0.00167  0.06542  0.57544  1.0000
  C   C391      1.0  0.49299  0.03278  0.71465  1.0000
  H   H303      1.0  0.09791  0.09621  0.50228  1.0000
  C   C392      1.0  0.44225  0.04117  0.67495  1.0000
  H   H304      1.0  0.99933  0.11611  0.55892  1.0000
  H   H305      1.0  0.34922  0.01996  0.51789  1.0000
  C   C393      1.0  0.04866  0.19669  0.50104  1.0000
  H   H306      1.0  0.40681  0.04652  0.62481  1.0000
  H   H307      1.0  0.06226  0.10460  0.54225  1.0000
  H   H308      1.0  0.44800  0.09294  0.72427  1.0000
  C   C394      1.0  0.44297  0.00287  0.63314  1.0000
  C   C395      1.0  0.00217  0.07392  0.52869  1.0000
  H   H309      1.0  0.16220  0.05070  0.50127  1.0000
  C   C396      1.0  0.49187  0.06727  0.68751  1.0000
  C   C397      1.0  0.45753  0.99305  0.71148  1.0000
  C   C398      1.0  0.08563  0.05432  0.53279  1.0000
  H   H310      1.0  0.34675  0.99932  0.53621  1.0000
  C   C399      1.0  0.20121  0.99529  0.50935  1.0000
  Fe  Fe33      1.0  0.13859  0.02065  0.50134  1.0000
  H   H311      1.0  0.11495  0.06975  0.50440  1.0000
  H   H312      1.0  0.46223  0.02970  0.64856  1.0000
  H   H313      1.0  0.12617  0.02708  0.55902  1.0000
  H   H314      1.0  0.12948  0.99671  0.56994  1.0000
  C   C400      1.0  0.14896  0.03897  0.54127  1.0000
  H   H315      1.0  0.39975  0.00067  0.49828  1.0000
  H   H316      1.0  0.05449  0.04349  0.51772  1.0000
  C   C401      1.0  0.08809  0.08353  0.51358  1.0000
  C   C402      1.0  0.00312  0.18339  0.51665  1.0000
  H   H317      1.0  0.06453  0.20238  0.49864  1.0000
  H   H318      1.0  0.04074  0.09463  0.54848  1.0000
  H   H319      1.0  0.42495  0.00513  0.61664  1.0000
  C   C403      1.0  0.06824  0.07736  0.55961  1.0000
  H   H320      1.0  0.31715  0.99419  0.60453  1.0000
  C   C404      1.0  0.44479  0.03052  0.68287  1.0000
  C   C405      1.0  0.44429  0.01320  0.63500  1.0000
  C   C406      1.0  0.00868  0.14507  0.49971  1.0000
  Fe  Fe34      1.0  0.11554  0.01277  0.51020  1.0000
  C   C407      1.0  0.14706  0.99564  0.57110  1.0000
  H   H321      1.0  0.20571  0.01428  0.52152  1.0000
  H   H322      1.0  0.28347  0.04056  0.52234  1.0000
  C   C408      1.0  0.29279  0.03897  0.52180  1.0000
  C   C409      1.0  0.18217  0.02467  0.50330  1.0000
  C   C410      1.0  0.44514  0.06200  0.72075  1.0000
  C   C411      1.0  0.00815  0.19319  0.51194  1.0000
  C   C412      1.0  0.07415  0.04433  0.49441  1.0000
  C   C413      1.0  0.00379  0.15727  0.55594  1.0000
  H   H323      1.0  0.47233  0.01949  0.72777  1.0000
  H   H324      1.0  0.05330  0.18867  0.49809  1.0000
  S   S68       1.0  0.12268  0.02494  0.51555  1.0000
  H   H325      1.0  0.05415  0.22046  0.50600  1.0000
  C   C414      1.0  0.99756  0.23570  0.53549  1.0000
  H   H326      1.0  0.32617  0.03239  0.52043  1.0000
  C   C415      1.0  0.47653  0.00392  0.74086  1.0000
  C   C416      1.0  0.30084  0.03536  0.51202  1.0000
  C   C417      1.0  0.09037  0.03396  0.54314  1.0000
  H   H327      1.0  0.24226  0.02610  0.59029  1.0000
  Fe  Fe35      1.0  0.04489  0.09152  0.49590  1.0000
  C   C418      1.0  0.28979  0.00172  0.50028  1.0000
  C   C419      1.0  0.17044  0.06084  0.52044  1.0000
  C   C420      1.0  0.00275  0.14949  0.54990  1.0000
  C   C421      1.0  0.24922  0.01332  0.53645  1.0000
  C   C422      1.0  0.01095  0.07714  0.51903  1.0000
  C   C423      1.0  0.35768  0.02060  0.51202  1.0000
  C   C424      1.0  0.33238  0.00791  0.51284  1.0000
  C   C425      1.0  0.15121  0.00459  0.54683  1.0000
  C   C426      1.0  0.48156  0.06630  0.68516  1.0000
  C   C427      1.0  0.05079  0.07012  0.53107  1.0000
  H   H328      1.0  0.03272  0.22524  0.51221  1.0000
  C   C428      1.0  0.05344  0.05083  0.52159  1.0000
  H   H329      1.0  0.25876  0.05516  0.51643  1.0000
  H   H330      1.0  0.49195  0.06300  0.65694  1.0000
  H   H331      1.0  0.35952  0.03459  0.51848  1.0000
  H   H332      1.0  0.44794  0.99984  0.62521  1.0000
  C   C429      1.0  0.05503  0.20443  0.50130  1.0000
  H   H333      1.0  0.00227  0.24217  0.58275  1.0000
  Fe  Fe36      1.0  0.13133  0.00875  0.52689  1.0000
  S   S69       1.0  0.13081  0.00959  0.49507  1.0000
  C   C430      1.0  0.27189  0.05086  0.50128  1.0000
  C   C431      1.0  0.02620  0.13298  0.50622  1.0000
  H   H334      1.0  0.02670  0.16921  0.56074  1.0000
  C   C432      1.0  0.00631  0.19499  0.56100  1.0000
  H   H335      1.0  0.45025  0.01803  0.62835  1.0000
  S   S70       1.0  0.12808  0.00706  0.54632  1.0000
  C   C433      1.0  0.47020  0.01116  0.73255  1.0000
  H   H336      1.0  0.08933  0.08503  0.52147  1.0000
  H   H337      1.0  0.38812  0.02275  0.49126  1.0000
  H   H338      1.0  0.13934  0.02127  0.57293  1.0000
  S   S71       1.0  0.47298  0.99897  0.61590  1.0000
  C   C434      1.0  0.09758  0.05449  0.52993  1.0000
  H   H339      1.0  0.48690  0.04625  0.70083  1.0000
  H   H340      1.0  0.00381  0.20339  0.55530  1.0000
  C   C435      1.0  0.15641  0.03555  0.54917  1.0000
  H   H341      1.0  0.03167  0.19315  0.50423  1.0000
  H   H342      1.0  0.16852  0.00435  0.54820  1.0000
  C   C436      1.0  0.16016  0.00235  0.55290  1.0000
  C   C437      1.0  0.33445  0.03785  0.49416  1.0000
  C   C438      1.0  0.13439  0.06570  0.52134  1.0000
  H   H343      1.0  0.47358  0.06617  0.69196  1.0000
  C   C439      1.0  0.01986  0.12462  0.51317  1.0000
  H   H344      1.0  0.01113  0.16150  0.55276  1.0000
  C   C440      1.0  0.01738  0.21721  0.53376  1.0000
  C   C441      1.0  0.00388  0.08860  0.53779  1.0000
  H   H345      1.0  0.08765  0.02594  0.54814  1.0000
  H   H346      1.0  0.47919  0.06590  0.72683  1.0000
  C   C442      1.0  0.06729  0.08838  0.53634  1.0000
  H   H347      1.0  0.01691  0.22646  0.57390  1.0000
  H   H348      1.0  0.32868  0.01225  0.52009  1.0000
  H   H349      1.0  0.06675  0.09280  0.52741  1.0000
  H   H350      1.0  0.47887  0.03703  0.63462  1.0000
  C   C443      1.0  0.21643  0.02020  0.50461  1.0000
  C   C444      1.0  0.00830  0.20028  0.51923  1.0000
  C   C445      1.0  0.36285  0.01307  0.50422  1.0000
  Fe  Fe37      1.0  0.30419  0.00290  0.55101  1.0000
  H   H351      1.0  0.02497  0.20990  0.53333  1.0000
  H   H352      1.0  0.22257  0.07334  0.50409  1.0000
  S   S72       1.0  0.19255  0.00210  0.54485  1.0000
  C   C446      1.0  0.01396  0.22257  0.54334  1.0000
  H   H353      1.0  0.01376  0.07269  0.51180  1.0000
  H   H354      1.0  0.25981  0.02304  0.50726  1.0000
  H   H355      1.0  0.29748  0.03430  0.50516  1.0000
  H   H356      1.0  0.14703  0.06225  0.54376  1.0000
  C   C447      1.0  0.01583  0.18653  0.55671  1.0000
  H   H357      1.0  0.46682  0.03999  0.73058  1.0000
  H   H358      1.0  0.99674  0.21323  0.50095  1.0000
  C   C448      1.0  0.16005  0.07248  0.53894  1.0000
  C   C449      1.0  0.49189  0.06436  0.66539  1.0000
  C   C450      1.0  0.03044  0.20949  0.50884  1.0000
  C   C451      1.0  0.26129  0.03875  0.54968  1.0000
  C   C452      1.0  0.25182  0.04288  0.55825  1.0000
  C   C453      1.0  0.24036  0.04505  0.55683  1.0000
  C   C454      1.0  0.23837  0.04336  0.54672  1.0000
  C   C455      1.0  0.24786  0.03952  0.53788  1.0000
  C   C456      1.0  0.25933  0.03690  0.53962  1.0000
  P   P13       1.0  0.24539  0.03682  0.52498  1.0000
  C   C457      1.0  0.24386  0.02192  0.52802  1.0000
  C   C458      1.0  0.23208  0.04692  0.52155  1.0000
  C   C459      1.0  0.22110  0.04495  0.52831  1.0000
  C   C460      1.0  0.21083  0.05342  0.52674  1.0000
  C   C461      1.0  0.21136  0.06367  0.51807  1.0000
  C   C462      1.0  0.22218  0.06546  0.51092  1.0000
  C   C463      1.0  0.23252  0.05716  0.51268  1.0000
  C   C464      1.0  0.23669  0.00708  0.52403  1.0000
  C   C465      1.0  0.23761  0.01873  0.52175  1.0000
  C   C466      1.0  0.25780  0.03904  0.51289  1.0000
  C   C467      1.0  0.14008  0.00271  0.55303  1.0000
  H   H359      1.0  0.27009  0.03647  0.55119  1.0000
  H   H360      1.0  0.25334  0.04374  0.56629  1.0000
  H   H361      1.0  0.23300  0.04760  0.56379  1.0000
  H   H362      1.0  0.22939  0.04478  0.54609  1.0000
  H   H363      1.0  0.26671  0.03303  0.53342  1.0000
  H   H364      1.0  0.22047  0.03701  0.53504  1.0000
  H   H365      1.0  0.20242  0.05191  0.53218  1.0000
  H   H366      1.0  0.20338  0.07015  0.51682  1.0000
  C   C468      1.0  0.17592  0.03557  0.49825  1.0000
  H   H367      1.0  0.24077  0.05886  0.50718  1.0000
  H   H368      1.0  0.23178  0.00459  0.51933  1.0000
  H   H369      1.0  0.23346  0.02522  0.51514  1.0000
  C   C469      1.0  0.31240  0.99424  0.50448  1.0000
  C   C470      1.0  0.27678  0.04288  0.49392  1.0000
  C   C471      1.0  0.16005  0.05834  0.52822  1.0000
  C   C472      1.0  0.00445  0.21591  0.57663  1.0000
  S   S73       1.0  0.09614  0.01689  0.51062  1.0000
  C   C473      1.0  0.03697  0.21722  0.50908  1.0000
  H   H370      1.0  0.02412  0.11671  0.51836  1.0000
  C   C474      1.0  0.26247  0.04894  0.51076  1.0000
  H   H371      1.0  0.01098  0.20940  0.57233  1.0000
  H   H372      1.0  0.07543  0.06743  0.50389  1.0000
  H   H373      1.0  0.30463  0.99932  0.52091  1.0000
  H   H374      1.0  0.25071  0.01447  0.49681  1.0000
  H   H375      1.0  0.16849  0.02360  0.53189  1.0000
  C   C475      1.0  0.14093  0.05440  0.52006  1.0000
  H   H376      1.0  0.12006  0.07995  0.51670  1.0000
  H   H377      1.0  0.07200  0.04881  0.51920  1.0000
  H   H378      1.0  0.15611  0.07686  0.54622  1.0000
  C   C476      1.0  0.01929  0.17575  0.56411  1.0000
  H   H379      1.0  0.07286  0.04370  0.54216  1.0000
  C   C477      1.0  0.01733  0.11582  0.55738  1.0000
  C   C478      1.0  0.12211  0.06547  0.50886  1.0000
  C   C479      1.0  0.17552  0.06916  0.52186  1.0000
  C   C480      1.0  0.31688  0.03428  0.52064  1.0000
  H   H380      1.0  0.06162  0.15038  0.49819  1.0000
  C   C481      1.0  0.03639  0.19921  0.50471  1.0000
  C   C482      1.0  0.04221  0.05741  0.52546  1.0000
  Fe  Fe38      1.0  0.20967  0.99488  0.55047  1.0000
  C   C483      1.0  0.06508  0.08960  0.55641  1.0000
  H   H381      1.0  0.10054  0.06235  0.52491  1.0000
  C   C484      1.0  0.01326  0.17344  0.57582  1.0000
  S   S74       1.0  0.21048  0.01924  0.57801  1.0000
  H   H382      1.0  0.99812  0.06700  0.52888  1.0000
  H   H383      1.0  0.25438  0.01545  0.54114  1.0000
  C   C485      1.0  0.47128  0.08512  0.70245  1.0000
  C   C486      1.0  0.15289  0.02926  0.56058  1.0000
  C   C487      1.0  0.17924  0.02034  0.51542  1.0000
  H   H384      1.0  0.43810  0.06908  0.72356  1.0000
  H   H385      1.0  0.22149  0.02698  0.59117  1.0000
  C   C488      1.0  0.01096  0.22113  0.52491  1.0000
  C   C489      1.0  0.23442  0.01324  0.56841  1.0000
  C   C490      1.0  0.02902  0.10976  0.55457  1.0000
  H   H386      1.0  0.41906  0.04775  0.65991  1.0000
  H   H387      1.0  0.43845  0.01596  0.72005  1.0000
  H   H388      1.0  0.39396  0.05940  0.63824  1.0000
  S   S75       1.0  0.14808  0.00570  0.51325  1.0000
  C   C491      1.0  0.09312  0.08980  0.50269  1.0000
  H   H389      1.0  0.49015  0.02611  0.71254  1.0000
  C   C492      1.0  0.01236  0.09211  0.52785  1.0000
  H   H390      1.0  0.02064  0.18833  0.54767  1.0000
  H   H391      1.0  0.00688  0.05649  0.57628  1.0000
  C   C493      1.0  0.36349  0.02884  0.51234  1.0000
  C   C494      1.0  0.07110  0.07062  0.55114  1.0000
  S   S76       1.0  0.32195  0.00762  0.54466  1.0000
  C   C495      1.0  0.02276  0.09528  0.54903  1.0000
  H   H392      1.0  0.47365  0.06392  0.67248  1.0000
  C   C496      1.0  0.08140  0.07558  0.51424  1.0000
  H   H393      1.0  0.12622  0.04972  0.50232  1.0000
  H   H394      1.0  0.01188  0.19519  0.50263  1.0000
  H   H395      1.0  0.49172  0.09180  0.70310  1.0000
  H   H396      1.0  0.03547  0.13142  0.50594  1.0000
  C   C497      1.0  0.20459  0.04287  0.50765  1.0000
  C   C498      1.0  0.15492  0.06420  0.53752  1.0000
  P   P14       1.0  0.15347  0.04742  0.52669  1.0000
  C   C499      1.0  0.48157  0.06494  0.67412  1.0000
  H   H397      1.0  0.16504  0.03756  0.54646  1.0000
  H   H398      1.0  0.00287  0.17799  0.51108  1.0000
  S   S77       1.0  0.12308  0.99673  0.52251  1.0000
  C   C500      1.0  0.37966  0.02201  0.49704  1.0000
  H   H399      1.0  0.25312  0.00883  0.56147  1.0000
  H   H400      1.0  0.02252  0.08901  0.51092  1.0000
  S   S78       1.0  0.27982  0.00559  0.52260  1.0000
  H   H401      1.0  0.15881  0.02630  0.56654  1.0000
  P   P15       1.0  0.01459  0.21319  0.51335  1.0000
  H   H402      1.0  0.06857  0.07309  0.56864  1.0000
  H   H403      1.0  0.43875  0.04963  0.65793  1.0000
  C   C501      1.0  0.43808  0.01708  0.64535  1.0000
  H   H404      1.0  0.02075  0.23466  0.49763  1.0000
  C   C502      1.0  0.42045  0.04005  0.63458  1.0000
  C   C503      1.0  0.16688  0.04222  0.50532  1.0000
  C   C504      1.0  0.00350  0.07351  0.56476  1.0000
  H   H405      1.0  0.42258  0.03321  0.72353  1.0000
  C   C505      1.0  0.26291  0.03096  0.50558  1.0000
  P   P16       1.0  0.43823  0.03130  0.64707  1.0000
  C   C506      1.0  0.45041  0.03673  0.63660  1.0000
  H   H406      1.0  0.00313  0.20245  0.53719  1.0000
  S   S79       1.0  0.03442  0.24205  0.52709  1.0000
  C   C507      1.0  0.46961  0.04488  0.62063  1.0000
  C   C508      1.0  0.45902  0.04698  0.61723  1.0000
  C   C509      1.0  0.44944  0.04297  0.62518  1.0000
  C   C510      1.0  0.44022  0.03087  0.66139  1.0000
  C   C511      1.0  0.44322  0.02016  0.66922  1.0000
  C   C512      1.0  0.44537  0.02004  0.67995  1.0000
  C   C513      1.0  0.00931  0.22284  0.50070  1.0000
  C   C514      1.0  0.01101  0.10150  0.55150  1.0000
  C   C515      1.0  0.46338  0.07929  0.72679  1.0000
  C   C516      1.0  0.25952  0.99618  0.49994  1.0000
  C   C517      1.0  0.00833  0.11153  0.55618  1.0000
  Fe  Fe39      1.0  0.19575  0.01968  0.54344  1.0000
  H   H407      1.0  0.47707  0.04789  0.61446  1.0000
  H   H408      1.0  0.45829  0.05163  0.60838  1.0000
  H   H409      1.0  0.44140  0.04468  0.62230  1.0000
  H   H410      1.0  0.44447  0.01184  0.66693  1.0000
  C   C518      1.0  0.08032  0.07362  0.50378  1.0000
  C   C519      1.0  0.31297  0.03309  0.51130  1.0000
  C   C520      1.0  0.47064  0.03877  0.63197  1.0000
  H   H411      1.0  0.29052  0.04264  0.53874  1.0000
  H   H412      1.0  0.13233  0.03800  0.53887  1.0000
  C   C521      1.0  0.46112  0.03466  0.63990  1.0000
  H   H413      1.0  0.10744  0.03492  0.49449  1.0000
  Fe  Fe40      1.0  0.13910  0.99481  0.50800  1.0000
  Fe  Fe41      1.0  0.05341  0.24118  0.52528  1.0000
  S   S80       1.0  0.04506  0.07296  0.49624  1.0000
  H   H414      1.0  0.46463  0.99521  0.71351  1.0000
  H   H415      1.0  0.46027  0.07694  0.73622  1.0000
  Fe  Fe42      1.0  0.18486  0.00263  0.56372  1.0000
  P   P17       1.0  0.44566  0.99293  0.73488  1.0000
  C   C522      1.0  0.25657  0.00734  0.49290  1.0000
  H   H416      1.0  0.18941  0.99856  0.49793  1.0000
  C   C523      1.0  0.30301  0.99865  0.51292  1.0000
  Fe  Fe43      1.0  0.49248  0.01462  0.68902  1.0000
  H   H417      1.0  0.00075  0.11523  0.49943  1.0000
  C   C524      1.0  0.02053  0.14336  0.49974  1.0000
  C   C525      1.0  0.43326  0.00515  0.73726  1.0000
  Fe  Fe44      1.0  0.28565  0.00077  0.53977  1.0000
  C   C526      1.0  0.99965  0.23443  0.58261  1.0000
  C   C527      1.0  0.43222  0.01545  0.72843  1.0000
  C   C528      1.0  0.13809  0.99810  0.56512  1.0000
  C   C529      1.0  0.42312  0.02524  0.73032  1.0000
  H   H418      1.0  0.41138  0.99798  0.63511  1.0000
  C   C530      1.0  0.34476  0.99632  0.54564  1.0000
  S   S81       1.0  0.16845  0.99615  0.57331  1.0000
  S   S82       1.0  0.29469  0.99607  0.56923  1.0000
  C   C531      1.0  0.49486  0.05293  0.71063  1.0000
  C   C532      1.0  0.33069  0.99537  0.56427  1.0000
  H   H419      1.0  0.25202  0.99528  0.54558  1.0000
  H   H420      1.0  0.43174  0.99415  0.60069  1.0000
  Fe  Fe45      1.0  0.49498  0.03072  0.66498  1.0000
  C   C533      1.0  0.41444  0.99312  0.62819  1.0000
  C   C534      1.0  0.41552  0.01445  0.74963  1.0000
  H   H421      1.0  0.48039  0.23747  0.95384  1.0000
  C   C535      1.0  0.46290  0.17425  0.95462  1.0000
  C   C536      1.0  0.48190  0.02854  0.85794  1.0000
  H   H422      1.0  0.39662  0.01094  0.78192  1.0000
  H   H423      1.0  0.40016  0.03069  0.77026  1.0000
  H   H424      1.0  0.43692  0.00378  0.77207  1.0000
  S   S83       1.0  0.45720  0.05550  0.79573  1.0000
  C   C537      1.0  0.42136  0.99330  0.79051  1.0000
  C   C538      1.0  0.46927  0.08261  0.77569  1.0000
  C   C539      1.0  0.49227  0.22182  0.88201  1.0000
  H   H425      1.0  0.48147  0.02259  0.89906  1.0000
  C   C540      1.0  0.48484  0.08555  0.92307  1.0000
  C   C541      1.0  0.48827  0.09234  0.76195  1.0000
  S   S84       1.0  0.48345  0.06317  0.83050  1.0000
  C   C542      1.0  0.45981  0.23548  0.97202  1.0000
  C   C543      1.0  0.38840  0.04169  0.79934  1.0000
  S   S85       1.0  0.47455  0.19979  0.90410  1.0000
  C   C544      1.0  0.42593  0.02138  0.77121  1.0000
  C   C545      1.0  0.42494  0.01695  0.79606  1.0000
  H   H426      1.0  0.44915  0.99678  0.84518  1.0000
  H   H427      1.0  0.44316  0.01496  0.81845  1.0000
  H   H428      1.0  0.43502  0.02956  0.78461  1.0000
  C   C546      1.0  0.46818  0.09068  0.76513  1.0000
  H   H429      1.0  0.45125  0.00909  0.75411  1.0000
  H   H430      1.0  0.47100  0.03297  0.79929  1.0000
  S   S86       1.0  0.48630  0.00999  0.76859  1.0000
  H   H431      1.0  0.48648  0.08701  0.81770  1.0000
  Fe  Fe46      1.0  0.46183  0.05036  0.75449  1.0000
  H   H432      1.0  0.40782  0.03239  0.74240  1.0000
  H   H433      1.0  0.48055  0.07313  0.78755  1.0000
  H   H434      1.0  0.45328  0.20856  0.98369  1.0000
  C   C547      1.0  0.43546  0.01274  0.76712  1.0000
  C   C548      1.0  0.48414  0.15408  0.98411  1.0000
  C   C549      1.0  0.44795  0.01458  0.90270  1.0000
  H   H435      1.0  0.49033  0.09323  0.88942  1.0000
  H   H436      1.0  0.48409  0.22832  0.88169  1.0000
  H   H437      1.0  0.48837  0.21289  0.95941  1.0000
  H   H438      1.0  0.49153  0.07549  0.80256  1.0000
  C   C550      1.0  0.48046  0.11070  0.90462  1.0000
  H   H439      1.0  0.48317  0.13803  0.88867  1.0000
  C   C551      1.0  0.48224  0.18515  0.90355  1.0000
  C   C552      1.0  0.47720  0.17850  0.89950  1.0000
  C   C553      1.0  0.48602  0.17393  0.94193  1.0000
  H   H440      1.0  0.49166  0.03544  0.90290  1.0000
  C   C554      1.0  0.48396  0.01660  0.86351  1.0000
  H   H441      1.0  0.46897  0.18241  0.89675  1.0000
  H   H442      1.0  0.47829  0.16164  0.89644  1.0000
  C   C555      1.0  0.42296  0.00964  0.80729  1.0000
  H   H443      1.0  0.41639  0.00447  0.80982  1.0000
  C   C556      1.0  0.40301  0.00311  0.78454  1.0000
  C   C557      1.0  0.43992  0.02298  0.80120  1.0000
  C   C558      1.0  0.46533  0.05693  0.80506  1.0000
  C   C559      1.0  0.45903  0.06217  0.81452  1.0000
  C   C560      1.0  0.46483  0.06383  0.82214  1.0000
  C   C561      1.0  0.47705  0.06027  0.82051  1.0000
  C   C562      1.0  0.48349  0.05469  0.81122  1.0000
  C   C563      1.0  0.47762  0.05303  0.80347  1.0000
  H   H444      1.0  0.44957  0.06514  0.81589  1.0000
  H   H445      1.0  0.45977  0.06809  0.82930  1.0000
  H   H446      1.0  0.45998  0.09312  0.76229  1.0000
  H   H447      1.0  0.48260  0.04890  0.79624  1.0000
  C   C564      1.0  0.42955  0.00890  0.81532  1.0000
  H   H448      1.0  0.45722  0.99359  0.81047  1.0000
  H   H449      1.0  0.44828  0.02940  0.74196  1.0000
  S   S87       1.0  0.46713  0.06310  0.76115  1.0000
  H   H450      1.0  0.45095  0.23079  0.94980  1.0000
  C   C565      1.0  0.38228  0.04634  0.79033  1.0000
  H   H451      1.0  0.44447  0.99659  0.86637  1.0000
  C   C566      1.0  0.47650  0.00063  0.77444  1.0000
  H   H452      1.0  0.46218  0.01190  0.83372  1.0000
  H   H453      1.0  0.46793  0.12664  0.89945  1.0000
  C   C567      1.0  0.47954  0.19374  0.99038  1.0000
  C   C568      1.0  0.47990  0.19892  0.96954  1.0000
  Fe  Fe47      1.0  0.46865  0.23190  0.92618  1.0000
  H   H454      1.0  0.47902  0.04120  0.84211  1.0000
  C   C569      1.0  0.49447  0.13825  0.97398  1.0000
  C   C570      1.0  0.48249  0.16671  0.89933  1.0000
  C   C571      1.0  0.49380  0.10137  0.80610  1.0000
  Fe  Fe48      1.0  0.48530  0.05215  0.75681  1.0000
  C   C572      1.0  0.49336  0.21071  0.88017  1.0000
  C   C573      1.0  0.48642  0.23725  0.95893  1.0000
  C   C574      1.0  0.47228  0.16835  0.96009  1.0000
  P   P18       1.0  0.48508  0.01222  0.87868  1.0000
  H   H455      1.0  0.46074  0.22285  0.98855  1.0000
  C   C575      1.0  0.49380  0.08393  0.80024  1.0000
  Fe  Fe49      1.0  0.47757  0.02922  0.76685  1.0000
  H   H456      1.0  0.43924  0.01517  0.90838  1.0000
  C   C576      1.0  0.46593  0.02350  0.81701  1.0000
  C   C577      1.0  0.49448  0.03269  0.89462  1.0000
  C   C578      1.0  0.46465  0.00501  0.77908  1.0000
  C   C579      1.0  0.47766  0.09295  0.93062  1.0000
  C   C580      1.0  0.46847  0.08929  0.93953  1.0000
  H   H457      1.0  0.45927  0.07537  0.94793  1.0000
  H   H458      1.0  0.49295  0.05182  0.80993  1.0000
  H   H459      1.0  0.49175  0.10628  0.81288  1.0000
  H   H460      1.0  0.47186  0.06219  0.93468  1.0000
  H   H461      1.0  0.49305  0.12086  0.98397  1.0000
  H   H462      1.0  0.38182  0.04595  0.77288  1.0000
  C   C581      1.0  0.48424  0.00825  0.85743  1.0000
  C   C582      1.0  0.46897  0.00669  0.89967  1.0000
  H   H463      1.0  0.48342  0.00521  0.84112  1.0000
  C   C583      1.0  0.44940  0.02108  0.89114  1.0000
  H   H464      1.0  0.46238  0.03141  0.82049  1.0000
  C   C584      1.0  0.47660  0.17988  0.93654  1.0000
  C   C585      1.0  0.48569  0.12884  0.89280  1.0000
  C   C586      1.0  0.46507  0.18005  0.94285  1.0000
  Fe  Fe50      1.0  0.49442  0.22189  0.91888  1.0000
  H   H465      1.0  0.48606  0.99899  0.86139  1.0000
  S   S88       1.0  0.48015  0.04050  0.74875  1.0000
  C   C587      1.0  0.45405  0.21679  0.97748  1.0000
  H   H466      1.0  0.44861  0.21226  0.96427  1.0000
  H   H467      1.0  0.47923  0.10153  0.92967  1.0000
  H   H468      1.0  0.46302  0.09503  0.94535  1.0000
  C   C588      1.0  0.49086  0.09049  0.80884  1.0000
  C   C589      1.0  0.44197  0.02712  0.75002  1.0000
  H   H469      1.0  0.46155  0.02557  0.87493  1.0000
  H   H470      1.0  0.47370  0.10585  0.90914  1.0000
  C   C590      1.0  0.43803  0.01555  0.81226  1.0000
  C   C591      1.0  0.46637  0.07822  0.94098  1.0000
  H   H471      1.0  0.42494  0.99686  0.75469  1.0000
  H   H472      1.0  0.48810  0.06851  0.91898  1.0000
  C   C592      1.0  0.49052  0.13016  0.98399  1.0000
  H   H473      1.0  0.42813  0.00310  0.82390  1.0000
  H   H474      1.0  0.47027  0.16418  0.96925  1.0000
  C   C593      1.0  0.43237  0.03572  0.75388  1.0000
  H   H475      1.0  0.49487  0.17399  0.93683  1.0000
  H   H476      1.0  0.49540  0.09647  0.75673  1.0000
  C   C594      1.0  0.48875  0.20934  0.97774  1.0000
  S   S89       1.0  0.46431  0.21416  0.93171  1.0000
  C   C595      1.0  0.49030  0.24124  0.97567  1.0000
  S   S90       1.0  0.48418  0.04009  0.77457  1.0000
  C   C596      1.0  0.38655  0.04232  0.77988  1.0000
  C   C597      1.0  0.47714  0.12244  0.89898  1.0000
  S   S91       1.0  0.48005  0.22822  0.90906  1.0000
  Fe  Fe51      1.0  0.47970  0.20872  0.94014  1.0000
  C   C598      1.0  0.45832  0.22499  0.98020  1.0000
  H   H477      1.0  0.45395  0.17457  0.95958  1.0000
  C   C599      1.0  0.46063  0.02039  0.88382  1.0000
  C   C600      1.0  0.47051  0.01314  0.88802  1.0000
  C   C601      1.0  0.48871  0.02539  0.89238  1.0000
  C   C602      1.0  0.49347  0.99725  0.88174  1.0000
  C   C603      1.0  0.48953  0.08394  0.77236  1.0000
  C   C604      1.0  0.47041  0.00227  0.81982  1.0000
  C   C605      1.0  0.46579  0.01243  0.82444  1.0000
  H   H478      1.0  0.47648  0.00117  0.90314  1.0000
  C   C606      1.0  0.47078  0.02445  0.80502  1.0000
  C   C607      1.0  0.47542  0.01440  0.80040  1.0000
  C   C608      1.0  0.47532  0.00334  0.80775  1.0000
  H   H479      1.0  0.40904  0.01402  0.75783  1.0000
  C   C609      1.0  0.45283  0.22926  0.95836  1.0000
  C   C610      1.0  0.47416  0.99293  0.74662  1.0000
  C   C611      1.0  0.49138  0.15030  0.97399  1.0000
  H   H480      1.0  0.47208  0.18524  0.98186  1.0000
  H   H481      1.0  0.48009  0.02639  0.83128  1.0000
  H   H482      1.0  0.38510  0.04482  0.80744  1.0000
  S   S92       1.0  0.48319  0.22678  0.93564  1.0000
  H   H483      1.0  0.48145  0.16334  0.98426  1.0000
  H   H484      1.0  0.45784  0.18486  0.93864  1.0000
  C   C612      1.0  0.47766  0.09558  0.75828  1.0000
  H   H485      1.0  0.44762  0.00107  0.78654  1.0000
  S   S93       1.0  0.47627  0.19644  0.95765  1.0000
  C   C613      1.0  0.45140  0.21887  0.96654  1.0000
  H   H486      1.0  0.46154  0.01407  0.77969  1.0000
  C   C614      1.0  0.45706  0.23751  0.96104  1.0000
  C   C615      1.0  0.49295  0.17996  0.90709  1.0000
  H   H487      1.0  0.42942  0.99352  0.79244  1.0000
  S   S94       1.0  0.49280  0.20313  0.92442  1.0000
  H   H488      1.0  0.47914  0.01518  0.79110  1.0000
  H   H489      1.0  0.47905  0.99563  0.80397  1.0000
  C   C616      1.0  0.45773  0.00739  0.90696  1.0000
  C   C617      1.0  0.49233  0.02181  0.88163  1.0000
  C   C618      1.0  0.40322  0.02904  0.78740  1.0000
  H   H490      1.0  0.49359  0.21585  0.97664  1.0000
  C   C619      1.0  0.47989  0.07927  0.77929  1.0000
  C   C620      1.0  0.48395  0.16812  0.95380  1.0000
  C   C621      1.0  0.49239  0.10535  0.90432  1.0000
  C   C622      1.0  0.42467  0.00467  0.74781  1.0000
  C   C623      1.0  0.42456  0.03297  0.76459  1.0000
  C   C624      1.0  0.49306  0.16141  0.90295  1.0000
  Fe  Fe52      1.0  0.47764  0.20972  0.91567  1.0000
  S   S95       1.0  0.45858  0.03820  0.77218  1.0000
  C   C625      1.0  0.48086  0.02364  0.84035  1.0000
  C   C626      1.0  0.45674  0.99763  0.78290  1.0000
  C   C627      1.0  0.47347  0.07079  0.93352  1.0000
  H   H491      1.0  0.48346  0.00667  0.74262  1.0000
  H   H492      1.0  0.37426  0.05308  0.79143  1.0000
  C   C628      1.0  0.44358  0.01568  0.75675  1.0000
  C   C629      1.0  0.48040  0.03200  0.84641  1.0000
  H   H493      1.0  0.46192  0.07883  0.78108  1.0000
  C   C630      1.0  0.48266  0.01176  0.84590  1.0000
  H   H494      1.0  0.47817  0.18461  0.92752  1.0000
  H   H495      1.0  0.44646  0.02820  0.79884  1.0000
  H   H496      1.0  0.43125  0.04465  0.74875  1.0000
  H   H497      1.0  0.44184  0.02674  0.88786  1.0000
  H   H498      1.0  0.41773  0.04001  0.76775  1.0000
  C   C631      1.0  0.39880  0.03304  0.79792  1.0000
  H   H499      1.0  0.47678  0.10191  0.75015  1.0000
  Fe  Fe53      1.0  0.46562  0.05007  0.77839  1.0000
  C   C632      1.0  0.43338  0.02372  0.79313  1.0000
  C   C633      1.0  0.47675  0.19196  0.98070  1.0000
  C   C634      1.0  0.48585  0.20765  0.96805  1.0000
  C   C635      1.0  0.39695  0.03368  0.77843  1.0000
  H   H500      1.0  0.48150  0.03521  0.86245  1.0000
  C   C636      1.0  0.48268  0.07442  0.92461  1.0000
  H   H501      1.0  0.40339  0.02960  0.80502  1.0000
  C   C637      1.0  0.41332  0.00375  0.78714  1.0000
  S   S96       1.0  0.44884  0.05735  0.74277  1.0000
  P   P19       1.0  0.41661  0.01779  0.78554  1.0000
  H   H502      1.0  0.45661  0.00240  0.91594  1.0000
  C   C638      1.0  0.48563  0.20239  0.98888  1.0000
  C   C639      1.0  0.48222  0.24116  0.96945  1.0000
  H   H503      1.0  0.48601  0.20860  0.87846  1.0000
  C   C640      1.0  0.45595  0.99280  0.85013  1.0000
  H   H504      1.0  0.49380  0.99278  0.82447  1.0000
  C   C641      1.0  0.45326  0.99265  0.86214  1.0000
  C   C642      1.0  0.41481  0.02477  0.74094  1.0000
  C   C643      1.0  0.17825  0.44560  0.05218  1.0000
  H   H505      1.0  0.38308  0.44014  0.03504  1.0000
  H   H506      1.0  0.30666  0.48984  0.04134  1.0000
  H   H507      1.0  0.47294  0.42848  0.00937  1.0000
  H   H508      1.0  0.42861  0.35459  0.00305  1.0000
  S   S97       1.0  0.05251  0.43807  0.20140  1.0000
  C   C644      1.0  0.12005  0.44397  0.09264  1.0000
  C   C645      1.0  0.18066  0.46640  0.07232  1.0000
  H   H509      1.0  0.33206  0.46836  0.04130  1.0000
  H   H510      1.0  0.06986  0.45677  0.15451  1.0000
  Fe  Fe54      1.0  0.20718  0.43995  0.03636  1.0000
  C   C646      1.0  0.17295  0.45557  0.01355  1.0000
  S   S98       1.0  0.33096  0.44842  0.00586  1.0000
  C   C647      1.0  0.43457  0.30576  0.01987  1.0000
  H   H511      1.0  0.33595  0.48818  0.03644  1.0000
  S   S99       1.0  0.34587  0.43372  0.03337  1.0000
  S   S100      1.0  0.45360  0.24709  0.04839  1.0000
  H   H512      1.0  0.28487  0.40504  0.05557  1.0000
  C   C648      1.0  0.11345  0.47157  0.16606  1.0000
  C   C649      1.0  0.22703  0.41846  0.10901  1.0000
  H   H513      1.0  0.04986  0.38903  0.19173  1.0000
  H   H514      1.0  0.45909  0.30017  0.00516  1.0000
  S   S101      1.0  0.32323  0.42404  0.02245  1.0000
  H   H515      1.0  0.26586  0.41925  0.05612  1.0000
  C   C650      1.0  0.43441  0.31240  0.02769  1.0000
  S   S102      1.0  0.46404  0.27197  0.02138  1.0000
  C   C651      1.0  0.07670  0.36737  0.11868  1.0000
  C   C652      1.0  0.08383  0.48461  0.05366  1.0000
  S   S103      1.0  0.47177  0.26948  0.04594  1.0000
  C   C653      1.0  0.03533  0.42258  0.13928  1.0000
  Fe  Fe55      1.0  0.46658  0.25803  0.03758  1.0000
  C   C654      1.0  0.00903  0.42161  0.16437  1.0000
  Fe  Fe56      1.0  0.47118  0.28265  0.02894  1.0000
  S   S104      1.0  0.46414  0.30189  0.02900  1.0000
  S   S105      1.0  0.48496  0.24976  0.02977  1.0000
  H   H516      1.0  0.43468  0.31214  0.04539  1.0000
  H   H517      1.0  0.15296  0.46111  0.08587  1.0000
  C   C655      1.0  0.19740  0.46267  0.05638  1.0000
  H   H518      1.0  0.22459  0.42817  0.12219  1.0000
  H   H519      1.0  0.23280  0.44351  0.05895  1.0000
  S   S106      1.0  0.21697  0.42690  0.02505  1.0000
  C   C656      1.0  0.44535  0.30150  0.99664  1.0000
  H   H520      1.0  0.43502  0.29091  0.05255  1.0000
  S   S107      1.0  0.19242  0.43644  0.05203  1.0000
  Fe  Fe57      1.0  0.23339  0.43088  0.02641  1.0000
  S   S108      1.0  0.25009  0.41695  0.02750  1.0000
  H   H521      1.0  0.34412  0.48786  0.99960  1.0000
  C   C657      1.0  0.00097  0.44196  0.23508  1.0000
  C   C658      1.0  0.43436  0.30709  0.03949  1.0000
  H   H522      1.0  0.12136  0.47195  0.11140  1.0000
  S   S109      1.0  0.07694  0.44346  0.13121  1.0000
  H   H523      1.0  0.09799  0.44988  0.13393  1.0000
  H   H524      1.0  0.28885  0.39024  0.07353  1.0000
  H   H525      1.0  0.27367  0.38994  0.09214  1.0000
  S   S110      1.0  0.28971  0.43041  0.04138  1.0000
  C   C659      1.0  0.27191  0.39635  0.08428  1.0000
  C   C660      1.0  0.09284  0.46487  0.18026  1.0000
  S   S111      1.0  0.02124  0.44851  0.12581  1.0000
  H   H526      1.0  0.07257  0.46747  0.02933  1.0000
  H   H527      1.0  0.15407  0.44403  0.01251  1.0000
  C   C661      1.0  0.45854  0.24437  0.01461  1.0000
  C   C662      1.0  0.45066  0.32727  0.99303  1.0000
  S   S112      1.0  0.05516  0.44415  0.11224  1.0000
  H   H528      1.0  0.00151  0.47846  0.19384  1.0000
  C   C663      1.0  0.26839  0.43540  0.03567  1.0000
  S   S113      1.0  0.07079  0.41370  0.18330  1.0000
  C   C664      1.0  0.19088  0.45890  0.06760  1.0000
  H   H529      1.0  0.26507  0.43508  0.07085  1.0000
  C   C665      1.0  0.07454  0.43574  0.14589  1.0000
  C   C666      1.0  0.16392  0.46113  0.04281  1.0000
  H   H530      1.0  0.17568  0.46354  0.08104  1.0000
  C   C667      1.0  0.07196  0.42276  0.16917  1.0000
  C   C668      1.0  0.08298  0.42160  0.16145  1.0000
  C   C669      1.0  0.08425  0.42812  0.14991  1.0000
  C   C670      1.0  0.03376  0.47318  0.20989  1.0000
  H   H531      1.0  0.24508  0.44086  0.08841  1.0000
  H   H532      1.0  0.09055  0.41559  0.16441  1.0000
  H   H533      1.0  0.09279  0.42715  0.14400  1.0000
  H   H534      1.0  0.23100  0.41041  0.09430  1.0000
  H   H535      1.0  0.11004  0.47865  0.00669  1.0000
  C   C671      1.0  0.37689  0.44185  0.02958  1.0000
  C   C672      1.0  0.10935  0.43380  0.00885  1.0000
  S   S114      1.0  0.03997  0.47054  0.10205  1.0000
  H   H536      1.0  0.23614  0.44244  0.10890  1.0000
  H   H537      1.0  0.15500  0.48015  0.00181  1.0000
  C   C673      1.0  0.00756  0.45665  0.12276  1.0000
  C   C674      1.0  0.45661  0.29705  0.99892  1.0000
  C   C675      1.0  0.16962  0.44433  0.06256  1.0000
  C   C676      1.0  0.10385  0.45840  0.18245  1.0000
  H   H538      1.0  0.26779  0.43170  0.00525  1.0000
  H   H539      1.0  0.17173  0.43782  0.07022  1.0000
  C   C677      1.0  0.48125  0.32529  0.99614  1.0000
  H   H540      1.0  0.22206  0.41217  0.11484  1.0000
  C   C678      1.0  0.33457  0.47276  0.03222  1.0000
  H   H541      1.0  0.08644  0.45097  0.21209  1.0000
  C   C679      1.0  0.00076  0.41451  0.14870  1.0000
  C   C680      1.0  0.16288  0.46444  0.01250  1.0000
  S   S115      1.0  0.04424  0.46295  0.12926  1.0000
  H   H542      1.0  0.35462  0.44760  0.01019  1.0000
  C   C681      1.0  0.48309  0.31329  0.99681  1.0000
  C   C682      1.0  0.01505  0.41129  0.16029  1.0000
  C   C683      1.0  0.07383  0.48667  0.20801  1.0000
  Fe  Fe58      1.0  0.33086  0.43812  0.02426  1.0000
  C   C684      1.0  0.43461  0.29511  0.04353  1.0000
  C   C685      1.0  0.44497  0.43344  0.00152  1.0000
  S   S116      1.0  0.05737  0.43500  0.23208  1.0000
  H   H543      1.0  0.43479  0.32154  0.02470  1.0000
  C   C686      1.0  0.06893  0.47799  0.07039  1.0000
  H   H544      1.0  0.13951  0.43711  0.12520  1.0000
  C   C687      1.0  0.00198  0.44207  0.18858  1.0000
  P   P20       1.0  0.45939  0.43182  0.99182  1.0000
  H   H545      1.0  0.41227  0.30731  0.01883  1.0000
  C   C688      1.0  0.46456  0.28831  0.99351  1.0000
  H   H546      1.0  0.43525  0.27908  0.03889  1.0000
  C   C689      1.0  0.22304  0.42448  0.07252  1.0000
  H   H547      1.0  0.02899  0.39109  0.20229  1.0000
  C   C690      1.0  0.28190  0.41755  0.03113  1.0000
  C   C691      1.0  0.27285  0.41437  0.02854  1.0000
  C   C692      1.0  0.26153  0.42164  0.02965  1.0000
  S   S117      1.0  0.06861  0.45485  0.07998  1.0000
  C   C693      1.0  0.99843  0.39122  0.19484  1.0000
  H   H548      1.0  0.29048  0.41167  0.03077  1.0000
  H   H549      1.0  0.27454  0.40610  0.02599  1.0000
  C   C694      1.0  0.11079  0.45955  0.12208  1.0000
  Fe  Fe59      1.0  0.05820  0.45943  0.09728  1.0000
  Fe  Fe60      1.0  0.06201  0.45277  0.12212  1.0000
  H   H550      1.0  0.44708  0.26136  0.01080  1.0000
  H   H551      1.0  0.26520  0.40877  0.99906  1.0000
  Fe  Fe61      1.0  0.30571  0.43559  0.02861  1.0000
  C   C695      1.0  0.47789  0.30612  0.00690  1.0000
  C   C696      1.0  0.47060  0.31094  0.01632  1.0000
  C   C697      1.0  0.46848  0.32304  0.01557  1.0000
  C   C698      1.0  0.25887  0.41297  0.07450  1.0000
  C   C699      1.0  0.08177  0.38629  0.11363  1.0000
  H   H552      1.0  0.47936  0.29688  0.00723  1.0000
  H   H553      1.0  0.46274  0.32683  0.02281  1.0000
  C   C700      1.0  0.03084  0.46384  0.20766  1.0000
  H   H554      1.0  0.09989  0.38705  0.16376  1.0000
  S   S118      1.0  0.22371  0.44229  0.03926  1.0000
  S   S119      1.0  0.49003  0.27613  0.02059  1.0000
  C   C701      1.0  0.23147  0.41103  0.05540  1.0000
  C   C702      1.0  0.36647  0.43781  0.03421  1.0000
  C   C703      1.0  0.23601  0.48800  0.04088  1.0000
  C   C704      1.0  0.11661  0.47698  0.07716  1.0000
  H   H555      1.0  0.25071  0.43804  0.03368  1.0000
  H   H556      1.0  0.36470  0.43300  0.04321  1.0000
  H   H557      1.0  0.20529  0.45686  0.05272  1.0000
  C   C705      1.0  0.02082  0.45759  0.15119  1.0000
  H   H558      1.0  0.26655  0.44335  0.03874  1.0000
  C   C706      1.0  0.22846  0.42746  0.11316  1.0000
  H   H559      1.0  0.15162  0.45024  0.07112  1.0000
  H   H560      1.0  0.21328  0.41348  0.05515  1.0000
  C   C707      1.0  0.47385  0.33024  0.00547  1.0000
  C   C708      1.0  0.30064  0.41757  0.99280  1.0000
  C   C709      1.0  0.47949  0.45533  0.99865  1.0000
  C   C710      1.0  0.03138  0.39708  0.19402  1.0000
  C   C711      1.0  0.26115  0.40458  0.08465  1.0000
  C   C712      1.0  0.08443  0.46382  0.06104  1.0000
  C   C713      1.0  0.08934  0.47294  0.05313  1.0000
  H   H561      1.0  0.00847  0.41826  0.22560  1.0000
  C   C714      1.0  0.15824  0.45139  0.06308  1.0000
  C   C715      1.0  0.06863  0.38048  0.13219  1.0000
  C   C716      1.0  0.21518  0.42189  0.06769  1.0000
  C   C717      1.0  0.07337  0.47050  0.20020  1.0000
  C   C718      1.0  0.05628  0.46934  0.16297  1.0000
  C   C719      1.0  0.43475  0.28844  0.03581  1.0000
  H   H562      1.0  0.21960  0.43000  0.07887  1.0000
  C   C720      1.0  0.02590  0.41468  0.17939  1.0000
  S   S120      1.0  0.30630  0.47701  0.00655  1.0000
  C   C721      1.0  0.14224  0.44242  0.11664  1.0000
  C   C722      1.0  0.37131  0.45010  0.01091  1.0000
  C   C723      1.0  0.23208  0.41751  0.09737  1.0000
  C   C724      1.0  0.28046  0.39648  0.07381  1.0000
  Fe  Fe62      1.0  0.03626  0.41300  0.21759  1.0000
  H   H563      1.0  0.26935  0.45395  0.05880  1.0000
  Fe  Fe63      1.0  0.05614  0.42024  0.19767  1.0000
  C   C725      1.0  0.45537  0.25445  0.99518  1.0000
  Fe  Fe64      1.0  0.05014  0.42881  0.22035  1.0000
  S   S121      1.0  0.20545  0.45550  0.02138  1.0000
  H   H564      1.0  0.10964  0.38495  0.14330  1.0000
  S   S122      1.0  0.30379  0.44564  0.01067  1.0000
  C   C726      1.0  0.09918  0.46628  0.00996  1.0000
  C   C727      1.0  0.06440  0.46761  0.20993  1.0000
  C   C728      1.0  0.05917  0.47211  0.18085  1.0000
  H   H565      1.0  0.39759  0.42049  0.01119  1.0000
  C   C729      1.0  0.07850  0.42469  0.09627  1.0000
  C   C730      1.0  0.43467  0.29374  0.02404  1.0000
  C   C731      1.0  0.36730  0.48897  0.00986  1.0000
  C   C732      1.0  0.08279  0.37560  0.11084  1.0000
  H   H566      1.0  0.26393  0.48512  0.05191  1.0000
  H   H567      1.0  0.17289  0.44842  0.02122  1.0000
  C   C733      1.0  0.08245  0.44617  0.19799  1.0000
  C   C734      1.0  0.08148  0.43673  0.19408  1.0000
  C   C735      1.0  0.08340  0.42534  0.20098  1.0000
  C   C736      1.0  0.08619  0.42327  0.21185  1.0000
  C   C737      1.0  0.08737  0.43254  0.21573  1.0000
  C   C738      1.0  0.08563  0.44391  0.20880  1.0000
  C   C739      1.0  0.07361  0.45812  0.17031  1.0000
  C   C740      1.0  0.07444  0.38893  0.12421  1.0000
  S   S123      1.0  0.02788  0.39746  0.22500  1.0000
  C   C741      1.0  0.09630  0.44463  0.99574  1.0000
  C   C742      1.0  0.24074  0.44567  0.05914  1.0000
  Fe  Fe65      1.0  0.22268  0.45693  0.02342  1.0000
  H   H568      1.0  0.32578  0.48949  0.99243  1.0000
  H   H569      1.0  0.41369  0.43729  0.02194  1.0000
  Fe  Fe66      1.0  0.48307  0.26448  0.01420  1.0000
  H   H570      1.0  0.08815  0.46519  0.14526  1.0000
  C   C743      1.0  0.01727  0.44696  0.15594  1.0000
  H   H571      1.0  0.20581  0.42532  0.07034  1.0000
  H   H572      1.0  0.48851  0.29582  0.03118  1.0000
  H   H573      1.0  0.11584  0.43337  0.01357  1.0000
  C   C744      1.0  0.15534  0.45980  0.05322  1.0000
  C   C745      1.0  0.06976  0.46356  0.17995  1.0000
  H   H574      1.0  0.07884  0.43805  0.18598  1.0000
  H   H575      1.0  0.08235  0.41815  0.19808  1.0000
  C   C746      1.0  0.00510  0.41086  0.22588  1.0000
  H   H576      1.0  0.08921  0.43100  0.22431  1.0000
  S   S124      1.0  0.23368  0.44573  0.01076  1.0000
  H   H577      1.0  0.08204  0.45201  0.16901  1.0000
  C   C747      1.0  0.08289  0.39515  0.15979  1.0000
  C   C748      1.0  0.24851  0.43790  0.06596  1.0000
  S   S125      1.0  0.14094  0.46852  0.05459  1.0000
  H   H578      1.0  0.38233  0.41496  0.02877  1.0000
  H   H579      1.0  0.23744  0.46201  0.04669  1.0000
  C   C749      1.0  0.09751  0.45742  0.09109  1.0000
  C   C750      1.0  0.09537  0.46665  0.13783  1.0000
  H   H580      1.0  0.36336  0.48157  0.01158  1.0000
  H   H581      1.0  0.28427  0.44046  0.00381  1.0000
  H   H582      1.0  0.19373  0.45010  0.07253  1.0000
  C   C751      1.0  0.42429  0.43321  0.00552  1.0000
  C   C752      1.0  0.23521  0.42025  0.06889  1.0000
  H   H583      1.0  0.23475  0.40608  0.04853  1.0000
  H   H584      1.0  0.24870  0.41059  0.05686  1.0000
  C   C753      1.0  0.25939  0.43234  0.03288  1.0000
  C   C754      1.0  0.33568  0.46710  0.02330  1.0000
  H   H585      1.0  0.01569  0.39991  0.14926  1.0000
  H   H586      1.0  0.01781  0.46347  0.14359  1.0000
  C   C755      1.0  0.99646  0.39172  0.22642  1.0000
  H   H587      1.0  0.38473  0.47792  0.00808  1.0000
  S   S126      1.0  0.21280  0.44128  0.99363  1.0000
  C   C756      1.0  0.01090  0.40776  0.15251  1.0000
  C   C757      1.0  0.18313  0.45592  0.00470  1.0000
  C   C758      1.0  0.10694  0.47998  0.07204  1.0000
  S   S127      1.0  0.22643  0.47355  0.02430  1.0000
  C   C759      1.0  0.49481  0.29630  0.03568  1.0000
  Fe  Fe67      1.0  0.39864  0.45716  0.99263  1.0000
  C   C760      1.0  0.44308  0.43616  0.01249  1.0000
  C   C761      1.0  0.25869  0.47868  0.01958  1.0000
  Fe  Fe68      1.0  0.21656  0.44269  0.01019  1.0000
  C   C762      1.0  0.26123  0.45175  0.05911  1.0000
  C   C763      1.0  0.25881  0.44101  0.06585  1.0000
  C   C764      1.0  0.24660  0.41163  0.00204  1.0000
  C   C765      1.0  0.99985  0.48435  0.20944  1.0000
  H   H588      1.0  0.18197  0.45500  0.03424  1.0000
  S   S128      1.0  0.31335  0.44867  0.03210  1.0000
  C   C766      1.0  0.26745  0.41290  0.06402  1.0000
  C   C767      1.0  0.17538  0.45400  0.04228  1.0000
  C   C768      1.0  0.27959  0.42795  0.03500  1.0000
  C   C769      1.0  0.00315  0.43144  0.18544  1.0000
  C   C770      1.0  0.47921  0.44417  0.00579  1.0000
  H   H589      1.0  0.12880  0.43869  0.09310  1.0000
  C   C771      1.0  0.43470  0.34696  0.00016  1.0000
  C   C772      1.0  0.34121  0.48383  0.00872  1.0000
  C   C773      1.0  0.45307  0.25409  0.00720  1.0000
  H   H590      1.0  0.45667  0.24409  0.02393  1.0000
  H   H591      1.0  0.12507  0.48179  0.08787  1.0000
  P   P21       1.0  0.43514  0.31224  0.00448  1.0000
  C   C774      1.0  0.09489  0.39011  0.15697  1.0000
  C   C775      1.0  0.35843  0.43976  0.02722  1.0000
  C   C776      1.0  0.25344  0.45941  0.05235  1.0000
  H   H592      1.0  0.25475  0.40439  0.09288  1.0000
  H   H593      1.0  0.17906  0.47615  0.03463  1.0000
  C   C777      1.0  0.27822  0.40476  0.06368  1.0000
  C   C778      1.0  0.23938  0.41360  0.06020  1.0000
  H   H594      1.0  0.03719  0.47193  0.21752  1.0000
  H   H595      1.0  0.06510  0.36334  0.13554  1.0000
  H   H596      1.0  0.28815  0.46116  0.02818  1.0000
  C   C779      1.0  0.06218  0.43057  0.16528  1.0000
  H   H597      1.0  0.39289  0.31172  0.01411  1.0000
  H   H598      1.0  0.01445  0.46971  0.10856  1.0000
  C   C780      1.0  0.27983  0.46600  0.02593  1.0000
  C   C781      1.0  0.01278  0.39984  0.22560  1.0000
  H   H599      1.0  0.03189  0.45542  0.21368  1.0000
  H   H600      1.0  0.05358  0.47169  0.22625  1.0000
  C   C782      1.0  0.11310  0.44949  0.10184  1.0000
  C   C783      1.0  0.49226  0.30523  0.04174  1.0000
  C   C784      1.0  0.13414  0.44869  0.10959  1.0000
  C   C785      1.0  0.15411  0.44285  0.11260  1.0000
  C   C786      1.0  0.15798  0.44955  0.10152  1.0000
  H   H601      1.0  0.21722  0.47545  0.00405  1.0000
  H   H602      1.0  0.01501  0.38299  0.18513  1.0000
  C   C787      1.0  0.11763  0.43384  0.12449  1.0000
  C   C788      1.0  0.11600  0.42466  0.12068  1.0000
  C   C789      1.0  0.11506  0.41391  0.12848  1.0000
  C   C790      1.0  0.11579  0.41223  0.14012  1.0000
  C   C791      1.0  0.11743  0.42131  0.14398  1.0000
  C   C792      1.0  0.11834  0.43207  0.13621  1.0000
  C   C793      1.0  0.21939  0.41518  0.05913  1.0000
  H   H603      1.0  0.02194  0.47753  0.18223  1.0000
  C   C794      1.0  0.24328  0.45631  0.05227  1.0000
  C   C795      1.0  0.99910  0.44905  0.22429  1.0000
  H   H604      1.0  0.06330  0.38218  0.14059  1.0000
  H   H605      1.0  0.25064  0.48361  0.01676  1.0000
  H   H606      1.0  0.11649  0.45385  0.02222  1.0000
  C   C796      1.0  0.06680  0.46088  0.16198  1.0000
  C   C797      1.0  0.08619  0.41971  0.11711  1.0000
  C   C798      1.0  0.42245  0.43607  0.01634  1.0000
  C   C799      1.0  0.06967  0.36979  0.12938  1.0000
  H   H607      1.0  0.16033  0.43790  0.11803  1.0000
  H   H608      1.0  0.16720  0.44972  0.09836  1.0000
  H   H609      1.0  0.02310  0.40606  0.16286  1.0000
  C   C800      1.0  0.46141  0.40761  0.00002  1.0000
  H   H610      1.0  0.11537  0.42575  0.11173  1.0000
  H   H611      1.0  0.11369  0.40692  0.12550  1.0000
  H   H612      1.0  0.11495  0.40397  0.14621  1.0000
  H   H613      1.0  0.11779  0.42008  0.15305  1.0000
  H   H614      1.0  0.11952  0.43903  0.13939  1.0000
  C   C801      1.0  0.23497  0.43550  0.10567  1.0000
  C   C802      1.0  0.23853  0.42563  0.08975  1.0000
  C   C803      1.0  0.24003  0.43458  0.09402  1.0000
  P   P22       1.0  0.24532  0.42408  0.07483  1.0000
  H   H615      1.0  0.99803  0.48955  0.12758  1.0000
  H   H616      1.0  0.00701  0.43355  0.23517  1.0000
  C   C804      1.0  0.06344  0.43700  0.15356  1.0000
  C   C805      1.0  0.09224  0.47477  0.17096  1.0000
  C   C806      1.0  0.37946  0.44783  0.01788  1.0000
  P   P23       1.0  0.07944  0.46117  0.18967  1.0000
  C   C807      1.0  0.36080  0.44605  0.01559  1.0000
  S   S129      1.0  0.39301  0.45216  0.01229  1.0000
  H   H617      1.0  0.10453  0.45088  0.18970  1.0000
  H   H618      1.0  0.05592  0.44302  0.15052  1.0000
  H   H619      1.0  0.05368  0.43152  0.17126  1.0000
  C   C808      1.0  0.11584  0.44537  0.08267  1.0000
  H   H620      1.0  0.15489  0.46418  0.01927  1.0000
  Fe  Fe69      1.0  0.32191  0.43537  0.00459  1.0000
  H   H621      1.0  0.37314  0.45495  0.00193  1.0000
  H   H622      1.0  0.30917  0.47468  0.03017  1.0000
  C   C809      1.0  0.03242  0.48411  0.20218  1.0000
  H   H623      1.0  0.30687  0.41783  0.99752  1.0000
  C   C810      1.0  0.07435  0.46634  0.06982  1.0000
  C   C811      1.0  0.29599  0.40766  0.99546  1.0000
  C   C812      1.0  0.27453  0.47694  0.02878  1.0000
  H   H624      1.0  0.41695  0.43225  0.00277  1.0000
  C   C813      1.0  0.17677  0.47756  0.06570  1.0000
  H   H625      1.0  0.10133  0.45324  0.07415  1.0000
  S   S130      1.0  0.06620  0.46733  0.10680  1.0000
  C   C814      1.0  0.10481  0.44435  0.00161  1.0000
  H   H626      1.0  0.08852  0.45480  0.06045  1.0000
  H   H627      1.0  0.36091  0.41374  0.00687  1.0000
  H   H628      1.0  0.42294  0.33544  0.00907  1.0000
  S   S131      1.0  0.05549  0.41080  0.21648  1.0000
  H   H629      1.0  0.08679  0.39240  0.10755  1.0000
  C   C815      1.0  0.02805  0.48577  0.19225  1.0000
  H   H630      1.0  0.49022  0.28189  0.09035  1.0000
  C   C816      1.0  0.14997  0.45595  0.09451  1.0000
  H   H631      1.0  0.09720  0.47096  0.04647  1.0000
  H   H632      1.0  0.06103  0.47996  0.07701  1.0000
  H   H633      1.0  0.48419  0.46084  0.00028  1.0000
  H   H634      1.0  0.23945  0.48162  0.03548  1.0000
  H   H635      1.0  0.45019  0.43732  0.01540  1.0000
  H   H636      1.0  0.29864  0.40023  0.00226  1.0000
  C   C817      1.0  0.11412  0.46173  0.17533  1.0000
  C   C818      1.0  0.10037  0.38900  0.14545  1.0000
  H   H637      1.0  0.09817  0.39205  0.12785  1.0000
  C   C819      1.0  0.14563  0.44660  0.01012  1.0000
  S   S132      1.0  0.02211  0.45400  0.19546  1.0000
  C   C820      1.0  0.04315  0.39591  0.18807  1.0000
  H   H638      1.0  0.05549  0.40338  0.17343  1.0000
  S   S133      1.0  0.12129  0.47559  0.03233  1.0000
  H   H639      1.0  0.01475  0.45704  0.23291  1.0000
  H   H640      1.0  0.13570  0.44796  0.02759  1.0000
  C   C821      1.0  0.38815  0.41969  0.99900  1.0000
  H   H641      1.0  0.43499  0.28837  0.01816  1.0000
  H   H642      1.0  0.08837  0.37365  0.10261  1.0000
  H   H643      1.0  0.47223  0.33957  0.00489  1.0000
  C   C822      1.0  0.46728  0.44108  0.99439  1.0000
  C   C823      1.0  0.07635  0.39918  0.15111  1.0000
  H   H644      1.0  0.43037  0.43973  0.02824  1.0000
  Fe  Fe70      1.0  0.49005  0.26208  0.03696  1.0000
  H   H645      1.0  0.48372  0.44102  0.01297  1.0000
  H   H646      1.0  0.08381  0.48008  0.16929  1.0000
  C   C824      1.0  0.33888  0.47269  0.01156  1.0000
  C   C825      1.0  0.10112  0.45791  0.13146  1.0000
  H   H647      1.0  0.08593  0.43473  0.99241  1.0000
  C   C826      1.0  0.13810  0.45556  0.09854  1.0000
  C   C827      1.0  0.04460  0.42608  0.14092  1.0000
  H   H648      1.0  0.08784  0.43850  0.09040  1.0000
  H   H649      1.0  0.13208  0.46049  0.09294  1.0000
  S   S134      1.0  0.13433  0.47870  0.99891  1.0000
  C   C828      1.0  0.18060  0.48363  0.02767  1.0000
  C   C829      1.0  0.04632  0.40399  0.17773  1.0000
  H   H650      1.0  0.28681  0.49093  0.99757  1.0000
  P   P24       1.0  0.11884  0.44782  0.11452  1.0000
  C   C830      1.0  0.02638  0.46551  0.19778  1.0000
  H   H651      1.0  0.07513  0.42703  0.08838  1.0000
  C   C831      1.0  0.07510  0.41569  0.10555  1.0000
  C   C832      1.0  0.23669  0.41615  0.99721  1.0000
  H   H652      1.0  0.16176  0.46775  0.03524  1.0000
  S   S135      1.0  0.03741  0.42103  0.19856  1.0000
  Fe  Fe71      1.0  0.03364  0.43800  0.20390  1.0000
  C   C833      1.0  0.10458  0.45211  0.08189  1.0000
  H   H653      1.0  0.48491  0.38433  0.00115  1.0000
  Fe  Fe72      1.0  0.04778  0.47689  0.11318  1.0000
  C   C834      1.0  0.08949  0.42877  0.10784  1.0000
  H   H654      1.0  0.08866  0.41843  0.12533  1.0000
  H   H655      1.0  0.05119  0.47175  0.15631  1.0000
  C   C835      1.0  0.08569  0.43122  0.09742  1.0000
  H   H656      1.0  0.03042  0.41075  0.13230  1.0000
  C   C836      1.0  0.38981  0.41857  0.01020  1.0000
  Fe  Fe73      1.0  0.03755  0.45586  0.11785  1.0000
  C   C837      1.0  0.03774  0.41324  0.17332  1.0000
  S   S136      1.0  0.03081  0.43022  0.22316  1.0000
  C   C838      1.0  0.02279  0.40644  0.18975  1.0000
  H   H657      1.0  0.10657  0.47498  0.06610  1.0000
  H   H658      1.0  0.06328  0.42282  0.13868  1.0000
  C   C839      1.0  0.05844  0.40981  0.13312  1.0000
  H   H659      1.0  0.09445  0.43430  0.10897  1.0000
  H   H660      1.0  0.06904  0.41110  0.10474  1.0000
  H   H661      1.0  0.12133  0.44135  0.07547  1.0000
  H   H662      1.0  0.07866  0.39604  0.16874  1.0000
  C   C840      1.0  0.08340  0.47981  0.02558  1.0000
  H   H663      1.0  0.04042  0.41947  0.16539  1.0000
  Fe  Fe74      1.0  0.31289  0.45785  0.01352  1.0000
  H   H664      1.0  0.25978  0.46404  0.01235  1.0000
  H   H665      1.0  0.08877  0.46261  0.09038  1.0000
  H   H666      1.0  0.06707  0.40295  0.15355  1.0000
  Fe  Fe75      1.0  0.12902  0.48637  0.01506  1.0000
  S   S137      1.0  0.48943  0.25996  0.99643  1.0000
  H   H667      1.0  0.42834  0.40256  0.99752  1.0000
  C   C841      1.0  0.10170  0.45610  0.10108  1.0000
  C   C842      1.0  0.12439  0.45221  0.01549  1.0000
  C   C843      1.0  0.43954  0.32613  0.00011  1.0000
  C   C844      1.0  0.07352  0.48711  0.06215  1.0000
  C   C845      1.0  0.02833  0.46058  0.15614  1.0000
  C   C846      1.0  0.26392  0.46767  0.01690  1.0000
  H   H668      1.0  0.33973  0.46833  0.00465  1.0000
  C   C847      1.0  0.43184  0.43750  0.01985  1.0000
  H   H669      1.0  0.27846  0.45273  0.01823  1.0000
  C   C848      1.0  0.08182  0.39822  0.13949  1.0000
  H   H670      1.0  0.03812  0.45522  0.16972  1.0000
  P   P25       1.0  0.07345  0.40239  0.12830  1.0000
  C   C849      1.0  0.03758  0.41297  0.13420  1.0000
  H   H671      1.0  0.01389  0.40734  0.19483  1.0000
  C   C850      1.0  0.27445  0.46132  0.02015  1.0000
  C   C851      1.0  0.07907  0.41302  0.11596  1.0000
  H   H672      1.0  0.05618  0.47684  0.18787  1.0000
  H   H673      1.0  0.07753  0.35907  0.11651  1.0000
  C   C852      1.0  0.11735  0.48384  0.08430  1.0000
  C   C853      1.0  0.43550  0.43189  0.99815  1.0000
  Fe  Fe76      1.0  0.13349  0.48111  0.03948  1.0000
  C   C854      1.0  0.05612  0.41977  0.13778  1.0000
  C   C855      1.0  0.04910  0.40660  0.13109  1.0000
  H   H674      1.0  0.46309  0.38893  0.00616  1.0000
  C   C856      1.0  0.38121  0.41547  0.02010  1.0000
  C   C857      1.0  0.42081  0.31525  0.00136  1.0000
  H   H675      1.0  0.03173  0.43676  0.17825  1.0000
  C   C858      1.0  0.33678  0.48398  0.02941  1.0000
  H   H676      1.0  0.08716  0.41453  0.21739  1.0000
  C   C859      1.0  0.02515  0.47639  0.18997  1.0000
  C   C860      1.0  0.13529  0.44877  0.01861  1.0000
  C   C861      1.0  0.36919  0.41474  0.00763  1.0000
  H   H677      1.0  0.04285  0.43392  0.14429  1.0000
  C   C862      1.0  0.26364  0.48314  0.02606  1.0000
  C   C863      1.0  0.09386  0.39306  0.13673  1.0000
  H   H678      1.0  0.02642  0.42758  0.14155  1.0000
  C   C864      1.0  0.41127  0.31187  0.01003  1.0000
  H   H679      1.0  0.03103  0.46882  0.15253  1.0000
  C   C865      1.0  0.27778  0.44512  0.99860  1.0000
  C   C866      1.0  0.02896  0.44225  0.17043  1.0000
  H   H680      1.0  0.11063  0.48758  0.12235  1.0000
  C   C867      1.0  0.43155  0.33610  0.00358  1.0000
  C   C868      1.0  0.03248  0.45286  0.16569  1.0000
  H   H681      1.0  0.05067  0.39948  0.12676  1.0000
  H   H682      1.0  0.25547  0.46759  0.04693  1.0000
  H   H683      1.0  0.19872  0.47651  0.04100  1.0000
  H   H684      1.0  0.03836  0.49035  0.22931  1.0000
  H   H685      1.0  0.27909  0.48048  0.03295  1.0000
  C   C869      1.0  0.48600  0.40237  0.99415  1.0000
  P   P26       1.0  0.01489  0.42675  0.17360  1.0000
  C   C870      1.0  0.02124  0.43924  0.16570  1.0000
  H   H686      1.0  0.06188  0.48866  0.22453  1.0000
  H   H687      1.0  0.27512  0.47935  0.99419  1.0000
  H   H688      1.0  0.00630  0.47688  0.21275  1.0000
  C   C871      1.0  0.09248  0.43446  0.99699  1.0000
  C   C872      1.0  0.10250  0.47810  0.16390  1.0000
  H   H689      1.0  0.39477  0.42247  0.99149  1.0000
  H   H690      1.0  0.08491  0.48261  0.19191  1.0000
  H   H691      1.0  0.01425  0.38173  0.22590  1.0000
  C   C873      1.0  0.11412  0.47035  0.11875  1.0000
  C   C874      1.0  0.37784  0.41770  0.99760  1.0000
  C   C875      1.0  0.06506  0.48361  0.21776  1.0000
  H   H692      1.0  0.48397  0.31165  0.04184  1.0000
  H   H693      1.0  0.36400  0.41172  0.02649  1.0000
  H   H694      1.0  0.01135  0.44497  0.15203  1.0000
  H   H695      1.0  0.00769  0.44798  0.18379  1.0000
  H   H696      1.0  0.09412  0.48413  0.13945  1.0000
  H   H697      1.0  0.09413  0.41609  0.00511  1.0000
  H   H698      1.0  0.06067  0.46022  0.21084  1.0000
  C   C876      1.0  0.22166  0.48555  0.01350  1.0000
  C   C877      1.0  0.08853  0.46318  0.01643  1.0000
  H   H699      1.0  0.47321  0.28492  0.99542  1.0000
  H   H700      1.0  0.19088  0.44901  0.00563  1.0000
  C   C878      1.0  0.37090  0.41357  0.01882  1.0000
  C   C879      1.0  0.22534  0.48745  0.04900  1.0000
  C   C880      1.0  0.14511  0.44797  0.99848  1.0000
  C   C881      1.0  0.47312  0.43708  0.00369  1.0000
  C   C882      1.0  0.18326  0.46506  0.99470  1.0000
  C   C883      1.0  0.05257  0.47505  0.17229  1.0000
  C   C884      1.0  0.00664  0.46676  0.11384  1.0000
  C   C885      1.0  0.09396  0.48292  0.01920  1.0000
  H   H701      1.0  0.12260  0.45677  0.17711  1.0000
  H   H702      1.0  0.16889  0.48329  0.06952  1.0000
  H   H703      1.0  0.10907  0.41551  0.01567  1.0000
  H   H704      1.0  0.09601  0.46020  0.10815  1.0000
  C   C886      1.0  0.19355  0.47380  0.04973  1.0000
  C   C887      1.0  0.30619  0.48385  0.02639  1.0000
  C   C888      1.0  0.26040  0.44582  0.99237  1.0000
  H   H705      1.0  0.18329  0.47440  0.01413  1.0000
  C   C889      1.0  0.46773  0.39597  0.00234  1.0000
  H   H706      1.0  0.12361  0.46948  0.07534  1.0000
  C   C890      1.0  0.21737  0.48412  0.00458  1.0000
  C   C891      1.0  0.34017  0.48955  0.01762  1.0000
  C   C892      1.0  0.07805  0.48010  0.19930  1.0000
  C   C893      1.0  0.00837  0.39027  0.22602  1.0000
  H   H707      1.0  0.45190  0.40937  0.00203  1.0000
  C   C894      1.0  0.06037  0.47407  0.21871  1.0000
  C   C895      1.0  0.01107  0.48981  0.15035  1.0000
  C   C896      1.0  0.01742  0.46215  0.23724  1.0000
  H   H708      1.0  0.33419  0.45834  0.02551  1.0000
  C   C897      1.0  0.40022  0.31438  0.00740  1.0000
  C   C898      1.0  0.26854  0.44011  0.99938  1.0000
  C   C899      1.0  0.09710  0.42396  0.00415  1.0000
  C   C900      1.0  0.17311  0.47400  0.99356  1.0000
  C   C901      1.0  0.48001  0.39336  0.99946  1.0000
  H   H709      1.0  0.00395  0.44615  0.21626  1.0000
  H   H710      1.0  0.00713  0.38460  0.16789  1.0000
  H   H711      1.0  0.08624  0.45556  0.01558  1.0000
  C   C902      1.0  0.37951  0.48681  0.00791  1.0000
  C   C903      1.0  0.00582  0.38694  0.18514  1.0000
  H   H712      1.0  0.07739  0.48503  0.03167  1.0000
  C   C904      1.0  0.10551  0.42364  0.01009  1.0000
  H   H713      1.0  0.04474  0.48203  0.17268  1.0000
  H   H714      1.0  0.49108  0.34137  0.00880  1.0000
  H   H715      1.0  0.22070  0.48088  0.04946  1.0000
  C   C905      1.0  0.08071  0.46992  0.02424  1.0000
  C   C906      1.0  0.12377  0.45365  0.00379  1.0000
  C   C907      1.0  0.30405  0.48724  0.01509  1.0000
  C   C908      1.0  0.16298  0.47358  0.00257  1.0000
  C   C909      1.0  0.13424  0.45151  0.99530  1.0000
  H   H716      1.0  0.15787  0.48375  0.05436  1.0000
  H   H717      1.0  0.22800  0.41591  0.00274  1.0000
  C   C910      1.0  0.25779  0.41221  0.99496  1.0000
  H   H718      1.0  0.27351  0.49101  0.06408  1.0000
  P   P27       1.0  0.10958  0.45757  0.00001  1.0000
  C   C911      1.0  0.99869  0.42819  0.16070  1.0000
  C   C912      1.0  0.18289  0.48266  0.01604  1.0000
  C   C913      1.0  0.46738  0.41675  0.99501  1.0000
  C   C914      1.0  0.18299  0.48117  0.05420  1.0000
  H   H719      1.0  0.07209  0.47956  0.14021  1.0000
  C   C915      1.0  0.10186  0.47615  0.01150  1.0000
  H   H720      1.0  0.24558  0.40770  0.01131  1.0000
  H   H721      1.0  0.06140  0.47857  0.12624  1.0000
  H   H722      1.0  0.25349  0.44172  0.99266  1.0000
  H   H723      1.0  0.37080  0.44152  0.99194  1.0000
  C   C916      1.0  0.00137  0.38787  0.17543  1.0000
  S   S138      1.0  0.48070  0.36435  0.99337  1.0000
  H   H724      1.0  0.12138  0.47425  0.16066  1.0000
  C   C917      1.0  0.05929  0.48643  0.12957  1.0000
  C   C918      1.0  0.06537  0.48697  0.13751  1.0000
  H   H725      1.0  0.00188  0.39064  0.20233  1.0000
  C   C919      1.0  0.09787  0.48967  0.07427  1.0000
  C   C920      1.0  0.02877  0.45886  0.23918  1.0000
  H   H726      1.0  0.01149  0.48697  0.14253  1.0000
  C   C921      1.0  0.00077  0.49057  0.15917  1.0000
  H   H727      1.0  0.03481  0.45113  0.23645  1.0000
  C   C922      1.0  0.09880  0.47732  0.13456  1.0000
  C   C923      1.0  0.10809  0.47923  0.12494  1.0000
  H   H728      1.0  0.00091  0.47474  0.23899  1.0000
  C   C924      1.0  0.00971  0.47222  0.24052  1.0000
  C   C925      1.0  0.39865  0.32029  0.99612  1.0000
  H   H729      1.0  0.10189  0.48588  0.15689  1.0000
  H   H730      1.0  0.99769  0.41197  0.14244  1.0000
  C   C926      1.0  0.99726  0.48537  0.19865  1.0000
  C   C927      1.0  0.44577  0.34800  0.99312  1.0000
  H   H731      1.0  0.22401  0.45983  0.99138  1.0000
  H   H732      1.0  0.99806  0.44506  0.13636  1.0000
  H   H733      1.0  0.09604  0.49057  0.02031  1.0000
  S   S139      1.0  0.14230  0.49069  0.02202  1.0000
  H   H734      1.0  0.49552  0.40026  0.99166  1.0000
  H   H735      1.0  0.39009  0.32218  0.99410  1.0000
  H   H736      1.0  0.18701  0.49139  0.99793  1.0000
  H   H737      1.0  0.28454  0.39955  0.99145  1.0000
  H   H738      1.0  0.15315  0.44650  0.99188  1.0000
  C   C928      1.0  0.47972  0.41402  0.99186  1.0000
  C   C929      1.0  0.99735  0.45285  0.12948  1.0000
  H   H739      1.0  0.13652  0.49141  0.05997  1.0000
  S   S140      1.0  0.44962  0.38537  0.99156  1.0000
  H   H740      1.0  0.99623  0.49230  0.22420  1.0000
  H   H741      1.0  0.09065  0.49210  0.06993  1.0000
  H   H742      1.0  0.99597  0.47034  0.14048  1.0000
  C   C930      1.0  0.18488  0.49228  0.00693  1.0000
  C   C931      1.0  0.30474  0.49242  0.03271  1.0000
  H   H743      1.0  0.35069  0.41767  0.99129  1.0000
  S   S141      1.0  0.01152  0.45282  0.31032  1.0000
  C   C932      1.0  0.06186  0.26804  0.39025  1.0000
  H   H744      1.0  0.01900  0.39078  0.28398  1.0000
  C   C933      1.0  0.00573  0.45865  0.27382  1.0000
  C   C934      1.0  0.05210  0.38996  0.43230  1.0000
  H   H745      1.0  0.03552  0.34890  0.47527  1.0000
  C   C935      1.0  0.04416  0.43161  0.36570  1.0000
  C   C936      1.0  0.00671  0.33488  0.42336  1.0000
  Fe  Fe77      1.0  0.05515  0.44098  0.30136  1.0000
  S   S142      1.0  0.06072  0.42130  0.30573  1.0000
  S   S143      1.0  0.06803  0.45269  0.29437  1.0000
  Fe  Fe78      1.0  0.04585  0.42184  0.29784  1.0000
  S   S144      1.0  0.04498  0.41093  0.28600  1.0000
  H   H746      1.0  0.00309  0.34820  0.39891  1.0000
  H   H747      1.0  0.06340  0.45934  0.35518  1.0000
  C   C937      1.0  0.05812  0.38458  0.44132  1.0000
  H   H748      1.0  0.08455  0.39146  0.42758  1.0000
  C   C938      1.0  0.06097  0.46724  0.28930  1.0000
  C   C939      1.0  0.04872  0.47040  0.29114  1.0000
  C   C940      1.0  0.04313  0.48184  0.28653  1.0000
  C   C941      1.0  0.02570  0.38785  0.34982  1.0000
  H   H749      1.0  0.01316  0.40549  0.32739  1.0000
  C   C942      1.0  0.06758  0.47565  0.28302  1.0000
  C   C943      1.0  0.06186  0.28704  0.42505  1.0000
  C   C944      1.0  0.04821  0.41898  0.25073  1.0000
  Fe  Fe79      1.0  0.00928  0.45780  0.37883  1.0000
  H   H750      1.0  0.07706  0.47321  0.28154  1.0000
  C   C945      1.0  0.02869  0.48366  0.36099  1.0000
  C   C946      1.0  0.06659  0.28480  0.40491  1.0000
  Fe  Fe80      1.0  0.00413  0.37900  0.44414  1.0000
  C   C947      1.0  0.01999  0.41779  0.38451  1.0000
  S   S145      1.0  0.00703  0.30480  0.41510  1.0000
  S   S146      1.0  0.04237  0.44237  0.31843  1.0000
  C   C948      1.0  0.07516  0.29881  0.38168  1.0000
  H   H751      1.0  0.00865  0.48182  0.34670  1.0000
  H   H752      1.0  0.08716  0.29157  0.39346  1.0000
  C   C949      1.0  0.03955  0.37274  0.41302  1.0000
  H   H753      1.0  0.01861  0.45476  0.28418  1.0000
  C   C950      1.0  0.03139  0.34289  0.48256  1.0000
  C   C951      1.0  0.01393  0.32168  0.45631  1.0000
  H   H754      1.0  0.05693  0.41712  0.35934  1.0000
  P   P28       1.0  0.05987  0.48044  0.33651  1.0000
  Fe  Fe81      1.0  0.00929  0.35547  0.43788  1.0000
  C   C952      1.0  0.06664  0.44083  0.33757  1.0000
  C   C953      1.0  0.01130  0.31558  0.41891  1.0000
  H   H755      1.0  0.00396  0.25022  0.41207  1.0000
  C   C954      1.0  0.07017  0.48265  0.34337  1.0000
  C   C955      1.0  0.04841  0.41766  0.27101  1.0000
  Fe  Fe82      1.0  0.01623  0.28684  0.42324  1.0000
  H   H756      1.0  0.01159  0.31092  0.44614  1.0000
  C   C956      1.0  0.00833  0.42044  0.39059  1.0000
  C   C957      1.0  0.05674  0.43235  0.25532  1.0000
  C   C958      1.0  0.05408  0.42699  0.26728  1.0000
  C   C959      1.0  0.00467  0.44246  0.26640  1.0000
  C   C960      1.0  0.04633  0.38077  0.41159  1.0000
  H   H757      1.0  0.06119  0.43951  0.25247  1.0000
  H   H758      1.0  0.05669  0.42986  0.27359  1.0000
  C   C961      1.0  0.03635  0.31818  0.39091  1.0000
  C   C962      1.0  0.06569  0.44901  0.32707  1.0000
  H   H759      1.0  0.01618  0.33031  0.46837  1.0000
  H   H760      1.0  0.06365  0.38763  0.35511  1.0000
  C   C963      1.0  0.09158  0.31234  0.36842  1.0000
  C   C964      1.0  0.04301  0.42356  0.35005  1.0000
  C   C965      1.0  0.01053  0.39625  0.28706  1.0000
  Fe  Fe83      1.0  0.02926  0.44084  0.30966  1.0000
  H   H761      1.0  0.00905  0.47617  0.29669  1.0000
  C   C966      1.0  0.06365  0.46100  0.32666  1.0000
  S   S147      1.0  0.01536  0.36150  0.45050  1.0000
  C   C967      1.0  0.00088  0.41313  0.39186  1.0000
  C   C968      1.0  0.01812  0.48016  0.27857  1.0000
  C   C969      1.0  0.06981  0.38511  0.43962  1.0000
  C   C970      1.0  0.07509  0.26768  0.36740  1.0000
  H   H762      1.0  0.09829  0.47144  0.34705  1.0000
  C   C971      1.0  0.02725  0.31351  0.39061  1.0000
  C   C972      1.0  0.02942  0.30174  0.39007  1.0000
  H   H763      1.0  0.00228  0.47340  0.32200  1.0000
  H   H764      1.0  0.02222  0.29802  0.39037  1.0000
  H   H765      1.0  0.02473  0.47822  0.36898  1.0000
  H   H766      1.0  0.03390  0.33022  0.47234  1.0000
  H   H767      1.0  0.05692  0.36329  0.38822  1.0000
  P   P29       1.0  0.02184  0.38827  0.37354  1.0000
  C   C973      1.0  0.08156  0.47546  0.34240  1.0000
  C   C974      1.0  0.05374  0.37012  0.38122  1.0000
  C   C975      1.0  0.05653  0.29087  0.47885  1.0000
  C   C976      1.0  0.03744  0.38293  0.37279  1.0000
  C   C977      1.0  0.99926  0.36529  0.49029  1.0000
  C   C978      1.0  0.07323  0.30680  0.37119  1.0000
  H   H768      1.0  0.05432  0.27173  0.46920  1.0000
  H   H769      1.0  0.99996  0.39451  0.26116  1.0000
  C   C979      1.0  0.04116  0.39284  0.41025  1.0000
  C   C980      1.0  0.00192  0.40688  0.43070  1.0000
  S   S148      1.0  0.04151  0.44142  0.29210  1.0000
  H   H770      1.0  0.99914  0.39776  0.38794  1.0000
  H   H771      1.0  0.02786  0.44343  0.39772  1.0000
  H   H772      1.0  0.04245  0.39483  0.35635  1.0000
  Fe  Fe84      1.0  0.04682  0.42279  0.32230  1.0000
  C   C981      1.0  0.02290  0.31392  0.41977  1.0000
  H   H773      1.0  0.00851  0.42914  0.32094  1.0000
  H   H774      1.0  0.02111  0.39067  0.25156  1.0000
  C   C982      1.0  0.01769  0.48741  0.26741  1.0000
  H   H775      1.0  0.06792  0.43157  0.33786  1.0000
  H   H776      1.0  0.04413  0.47019  0.35799  1.0000
  H   H777      1.0  0.03948  0.42406  0.39441  1.0000
  H   H778      1.0  0.04299  0.38951  0.43381  1.0000
  H   H779      1.0  0.05655  0.29172  0.43186  1.0000
  P   P30       1.0  0.02344  0.31098  0.48818  1.0000
  H   H780      1.0  0.07989  0.31966  0.35651  1.0000
  H   H781      1.0  0.08429  0.46865  0.33740  1.0000
  C   C983      1.0  0.01843  0.33339  0.42374  1.0000
  H   H782      1.0  0.06644  0.44604  0.31921  1.0000
  H   H783      1.0  0.01542  0.29248  0.46112  1.0000
  C   C984      1.0  0.01648  0.32193  0.46675  1.0000
  H   H784      1.0  0.06290  0.46705  0.31835  1.0000
  C   C985      1.0  0.06389  0.45660  0.34729  1.0000
  H   H785      1.0  0.02917  0.30581  0.41843  1.0000
  C   C986      1.0  0.03232  0.43164  0.34908  1.0000
  H   H786      1.0  0.05552  0.37753  0.41191  1.0000
  H   H787      1.0  0.02237  0.37036  0.41456  1.0000
  C   C987      1.0  0.08142  0.31353  0.36460  1.0000
  H   H788      1.0  0.01199  0.37987  0.39858  1.0000
  Fe  Fe85      1.0  0.03252  0.27241  0.43958  1.0000
  H   H789      1.0  0.00240  0.46764  0.27487  1.0000
  C   C988      1.0  0.04341  0.47698  0.25835  1.0000
  S   S149      1.0  0.03256  0.42128  0.31494  1.0000
  C   C989      1.0  0.02363  0.39218  0.33849  1.0000
  C   C990      1.0  0.04871  0.42335  0.35860  1.0000
  H   H790      1.0  0.02491  0.40599  0.40926  1.0000
  H   H791      1.0  0.02748  0.43187  0.43452  1.0000
  Fe  Fe86      1.0  0.99874  0.35779  0.46303  1.0000
  H   H792      1.0  0.01837  0.31885  0.39133  1.0000
  H   H793      1.0  0.07148  0.48047  0.25266  1.0000
  C   C991      1.0  0.06593  0.46439  0.26167  1.0000
  C   C992      1.0  0.05646  0.45895  0.26603  1.0000
  C   C993      1.0  0.04524  0.46518  0.26441  1.0000
  H   H794      1.0  0.06372  0.42048  0.39892  1.0000
  C   C994      1.0  0.00509  0.40317  0.38703  1.0000
  C   C995      1.0  0.02752  0.43967  0.35652  1.0000
  S   S150      1.0  0.99930  0.37325  0.43054  1.0000
  C   C996      1.0  0.01129  0.37397  0.39377  1.0000
  C   C997      1.0  0.03363  0.43988  0.36460  1.0000
  H   H795      1.0  0.07025  0.39619  0.37004  1.0000
  H   H796      1.0  0.02166  0.44746  0.41770  1.0000
  C   C998      1.0  0.03405  0.47041  0.32228  1.0000
  H   H797      1.0  0.07728  0.28465  0.36687  1.0000
  H   H798      1.0  0.07677  0.42485  0.37940  1.0000
  C   C999      1.0  0.02919  0.39678  0.41005  1.0000
  H   H799      1.0  0.04887  0.43166  0.37200  1.0000
  H   H800      1.0  0.03557  0.32171  0.42233  1.0000
  C   C1000     1.0  0.06252  0.46493  0.33685  1.0000
  S   S151      1.0  0.04970  0.41393  0.34042  1.0000
  H   H801      1.0  0.01714  0.42615  0.27127  1.0000
  C   C1001     1.0  0.00865  0.48183  0.28812  1.0000
  H   H802      1.0  0.07454  0.45958  0.26319  1.0000
  H   H803      1.0  0.05788  0.44989  0.27073  1.0000
  H   H804      1.0  0.03811  0.46066  0.26756  1.0000
  H   H805      1.0  0.02567  0.42355  0.38349  1.0000
  H   H806      1.0  0.03453  0.32717  0.39182  1.0000
  H   H807      1.0  0.00526  0.43378  0.35892  1.0000
  C   C1002     1.0  0.01392  0.43528  0.27167  1.0000
  C   C1003     1.0  0.06694  0.49155  0.34971  1.0000
  C   C1004     1.0  0.02272  0.40811  0.25036  1.0000
  H   H808      1.0  0.02300  0.26841  0.46210  1.0000
  C   C1005     1.0  0.06587  0.44462  0.34765  1.0000
  C   C1006     1.0  0.01488  0.45142  0.27904  1.0000
  S   S152      1.0  0.03535  0.27788  0.42000  1.0000
  C   C1007     1.0  0.03983  0.47911  0.35469  1.0000
  H   H809      1.0  0.06667  0.43826  0.35577  1.0000
  C   C1008     1.0  0.02652  0.32292  0.42192  1.0000
  H   H810      1.0  0.04342  0.36339  0.41449  1.0000
  C   C1009     1.0  0.04996  0.29926  0.38999  1.0000
  C   C1010     1.0  0.07548  0.39105  0.42888  1.0000
  C   C1011     1.0  0.04539  0.27060  0.47225  1.0000
  C   C1012     1.0  0.06948  0.39645  0.41982  1.0000
  C   C1013     1.0  0.05775  0.39589  0.42144  1.0000
  P   P31       1.0  0.04972  0.40285  0.40994  1.0000
  C   C1014     1.0  0.04046  0.41679  0.41262  1.0000
  C   C1015     1.0  0.05961  0.40560  0.39576  1.0000
  C   C1016     1.0  0.06147  0.39882  0.38748  1.0000
  C   C1017     1.0  0.06892  0.40133  0.37646  1.0000
  C   C1018     1.0  0.07446  0.41067  0.37356  1.0000
  C   C1019     1.0  0.07258  0.41752  0.38169  1.0000
  C   C1020     1.0  0.06518  0.41501  0.39274  1.0000
  C   C1021     1.0  0.03697  0.42561  0.40322  1.0000
  C   C1022     1.0  0.03032  0.43663  0.40506  1.0000
  C   C1023     1.0  0.02691  0.43891  0.41632  1.0000
  C   C1024     1.0  0.03024  0.43016  0.42576  1.0000
  C   C1025     1.0  0.03696  0.41912  0.42394  1.0000
  H   H811      1.0  0.03929  0.41246  0.43141  1.0000
  H   H812      1.0  0.04355  0.46400  0.29598  1.0000
  H   H813      1.0  0.06543  0.30776  0.36809  1.0000
  C   C1026     1.0  0.01663  0.39918  0.25357  1.0000
  H   H814      1.0  0.02523  0.48377  0.30997  1.0000
  C   C1027     1.0  0.06005  0.29109  0.41363  1.0000
  H   H815      1.0  0.07407  0.40096  0.41159  1.0000
  H   H816      1.0  0.08010  0.41268  0.36494  1.0000
  H   H817      1.0  0.05708  0.39171  0.38939  1.0000
  P   P32       1.0  0.06455  0.29010  0.39004  1.0000
  C   C1028     1.0  0.01587  0.48434  0.32793  1.0000
  H   H818      1.0  0.02569  0.47317  0.27998  1.0000
  C   C1029     1.0  0.04550  0.38783  0.36327  1.0000
  C   C1030     1.0  0.06144  0.24402  0.42264  1.0000
  H   H819      1.0  0.05369  0.38000  0.44965  1.0000
  C   C1031     1.0  0.02421  0.40790  0.37955  1.0000
  C   C1032     1.0  0.02442  0.32481  0.49015  1.0000
  C   C1033     1.0  0.02505  0.47995  0.31918  1.0000
  H   H820      1.0  0.04048  0.45732  0.33649  1.0000
  C   C1034     1.0  0.00471  0.40138  0.25891  1.0000
  C   C1035     1.0  0.03917  0.27053  0.46422  1.0000
  H   H821      1.0  0.07108  0.37175  0.37103  1.0000
  H   H822      1.0  0.01226  0.32970  0.44980  1.0000
  C   C1036     1.0  0.01931  0.31143  0.47491  1.0000
  C   C1037     1.0  0.01868  0.30086  0.47285  1.0000
  C   C1038     1.0  0.01401  0.36818  0.37553  1.0000
  H   H823      1.0  0.06210  0.28783  0.47113  1.0000
  H   H824      1.0  0.07447  0.38092  0.44663  1.0000
  C   C1039     1.0  0.03374  0.46496  0.33406  1.0000
  H   H825      1.0  0.03317  0.40630  0.37451  1.0000
  C   C1040     1.0  0.06420  0.47613  0.25576  1.0000
  C   C1041     1.0  0.01680  0.40040  0.38091  1.0000
  C   C1042     1.0  0.01337  0.47905  0.24573  1.0000
  H   H826      1.0  0.02779  0.43175  0.34255  1.0000
  C   C1043     1.0  0.00705  0.36394  0.40000  1.0000
  H   H827      1.0  0.04121  0.46715  0.31552  1.0000
  S   S153      1.0  0.01405  0.28307  0.44263  1.0000
  S   S154      1.0  0.02757  0.25556  0.44116  1.0000
  C   C1044     1.0  0.05300  0.48244  0.25418  1.0000
  C   C1045     1.0  0.04511  0.48598  0.34429  1.0000
  C   C1046     1.0  0.00141  0.43385  0.31662  1.0000
  H   H828      1.0  0.10146  0.30348  0.38178  1.0000
  S   S155      1.0  0.02874  0.45053  0.37319  1.0000
  S   S156      1.0  0.02316  0.34469  0.42608  1.0000
  H   H829      1.0  0.00075  0.38462  0.28601  1.0000
  H   H830      1.0  0.05753  0.25802  0.43172  1.0000
  H   H831      1.0  0.01259  0.41915  0.42781  1.0000
  H   H832      1.0  0.00267  0.44431  0.33879  1.0000
  H   H833      1.0  0.04494  0.26897  0.49049  1.0000
  C   C1047     1.0  0.09357  0.30441  0.37882  1.0000
  H   H834      1.0  0.01690  0.36950  0.36609  1.0000
  C   C1048     1.0  0.02772  0.26880  0.46819  1.0000
  H   H835      1.0  0.03187  0.40639  0.24587  1.0000
  C   C1049     1.0  0.99915  0.41398  0.29359  1.0000
  H   H836      1.0  0.01810  0.40939  0.28903  1.0000
  H   H837      1.0  0.01933  0.44597  0.35568  1.0000
  C   C1050     1.0  0.04548  0.41365  0.26271  1.0000
  C   C1051     1.0  0.00962  0.35821  0.38178  1.0000
  C   C1052     1.0  0.01361  0.31108  0.45421  1.0000
  Fe  Fe87      1.0  0.02899  0.26172  0.42176  1.0000
  C   C1053     1.0  0.04011  0.26903  0.48427  1.0000
  P   P33       1.0  0.02933  0.48465  0.25469  1.0000
  H   H838      1.0  0.09793  0.31755  0.36330  1.0000
  H   H839      1.0  0.04118  0.40638  0.26552  1.0000
  H   H840      1.0  0.06245  0.24974  0.41401  1.0000
  S   S157      1.0  0.01014  0.27117  0.42322  1.0000
  C   C1054     1.0  0.00503  0.41772  0.42595  1.0000
  C   C1055     1.0  0.01462  0.40203  0.33622  1.0000
  C   C1056     1.0  0.06196  0.48704  0.27808  1.0000
  H   H841      1.0  0.03566  0.37032  0.38942  1.0000
  C   C1057     1.0  0.02761  0.37670  0.41306  1.0000
  C   C1058     1.0  0.01901  0.43977  0.27790  1.0000
  C   C1059     1.0  0.02245  0.38872  0.41146  1.0000
  C   C1060     1.0  0.04165  0.37412  0.38185  1.0000
  H   H842      1.0  0.04447  0.48887  0.31991  1.0000
  C   C1061     1.0  0.04073  0.29463  0.38975  1.0000
  C   C1062     1.0  0.01581  0.30070  0.46258  1.0000
  C   C1063     1.0  0.05757  0.38378  0.36261  1.0000
  C   C1064     1.0  0.06171  0.37490  0.37156  1.0000
  H   H843      1.0  0.02431  0.46503  0.35187  1.0000
  S   S158      1.0  0.04558  0.27273  0.44921  1.0000
  C   C1065     1.0  0.01004  0.40678  0.28984  1.0000
  C   C1066     1.0  0.02457  0.46921  0.34275  1.0000
  H   H844      1.0  0.00908  0.35203  0.37716  1.0000
  C   C1067     1.0  0.00488  0.42160  0.25779  1.0000
  S   S159      1.0  0.00033  0.47693  0.37475  1.0000
  H   H845      1.0  0.01310  0.39180  0.41183  1.0000
  H   H846      1.0  0.00439  0.40785  0.36344  1.0000
  C   C1068     1.0  0.00016  0.39283  0.28819  1.0000
  H   H847      1.0  0.06923  0.28221  0.48959  1.0000
  H   H848      1.0  0.04233  0.30015  0.47035  1.0000
  C   C1069     1.0  0.01886  0.39348  0.35897  1.0000
  H   H849      1.0  0.02606  0.43410  0.28202  1.0000
  H   H850      1.0  0.00140  0.27323  0.46821  1.0000
  H   H851      1.0  0.08302  0.26230  0.42154  1.0000
  C   C1070     1.0  0.00977  0.40332  0.35661  1.0000
  C   C1071     1.0  0.01568  0.47885  0.33974  1.0000
  C   C1072     1.0  0.01491  0.37615  0.38149  1.0000
  Fe  Fe88      1.0  0.00928  0.26675  0.44254  1.0000
  C   C1073     1.0  0.04524  0.29783  0.47848  1.0000
  S   S160      1.0  0.01031  0.39577  0.43964  1.0000
  H   H852      1.0  0.09234  0.48694  0.35856  1.0000
  H   H853      1.0  0.99879  0.42220  0.29566  1.0000
  H   H854      1.0  0.03279  0.38027  0.35137  1.0000
  C   C1074     1.0  0.02479  0.47581  0.24776  1.0000
  H   H855      1.0  0.04208  0.28549  0.38962  1.0000
  C   C1075     1.0  0.00099  0.44551  0.31049  1.0000
  C   C1076     1.0  0.06681  0.27763  0.38369  1.0000
  C   C1077     1.0  0.00765  0.40756  0.34529  1.0000
  C   C1078     1.0  0.07339  0.27740  0.37219  1.0000
  H   H856      1.0  0.04155  0.46316  0.24506  1.0000
  H   H857      1.0  0.02053  0.29268  0.47917  1.0000
  C   C1079     1.0  0.02236  0.26751  0.48012  1.0000
  H   H858      1.0  0.05342  0.29901  0.41178  1.0000
  H   H859      1.0  0.03367  0.48434  0.28811  1.0000
  H   H860      1.0  0.05456  0.31477  0.39118  1.0000
  H   H861      1.0  0.02916  0.38804  0.33137  1.0000
  C   C1080     1.0  0.08541  0.29765  0.38544  1.0000
  C   C1081     1.0  0.05285  0.49108  0.31545  1.0000
  C   C1082     1.0  0.01691  0.41928  0.25245  1.0000
  C   C1083     1.0  0.04767  0.31109  0.39061  1.0000
  H   H862      1.0  0.02174  0.42617  0.24969  1.0000
  S   S161      1.0  0.00351  0.45605  0.39833  1.0000
  H   H863      1.0  0.04621  0.41576  0.24428  1.0000
  C   C1084     1.0  0.00622  0.35605  0.39402  1.0000
  H   H864      1.0  0.01344  0.26633  0.48314  1.0000
  C   C1085     1.0  0.05868  0.24868  0.43261  1.0000
  C   C1086     1.0  0.08618  0.48577  0.35430  1.0000
  H   H865      1.0  0.05656  0.26808  0.39907  1.0000
  C   C1087     1.0  0.99836  0.42668  0.41881  1.0000
  C   C1088     1.0  0.99723  0.43444  0.35636  1.0000
  H   H866      1.0  0.00505  0.42826  0.39418  1.0000
  H   H867      1.0  0.00086  0.43498  0.41516  1.0000
  H   H868      1.0  0.00461  0.36212  0.40952  1.0000
  C   C1089     1.0  0.07671  0.27040  0.41926  1.0000
  C   C1090     1.0  0.07497  0.27443  0.40781  1.0000
  H   H869      1.0  0.00075  0.41528  0.34347  1.0000
  C   C1091     1.0  0.00321  0.32608  0.42069  1.0000
  H   H870      1.0  0.03793  0.24480  0.48879  1.0000
  H   H871      1.0  0.05975  0.25099  0.39055  1.0000
  C   C1092     1.0  0.99889  0.41250  0.26113  1.0000
  C   C1093     1.0  0.07016  0.27671  0.42788  1.0000
  C   C1094     1.0  0.08953  0.47704  0.34783  1.0000
  H   H872      1.0  0.05195  0.49159  0.24979  1.0000
  H   H873      1.0  0.00040  0.34290  0.42489  1.0000
  H   H874      1.0  0.99945  0.24300  0.47256  1.0000
  H   H875      1.0  0.07123  0.27344  0.43686  1.0000
  C   C1095     1.0  0.03254  0.46575  0.24418  1.0000
  H   H876      1.0  0.08017  0.26753  0.35854  1.0000
  H   H877      1.0  0.08014  0.26944  0.40123  1.0000
  C   C1096     1.0  0.06362  0.25834  0.38544  1.0000
  C   C1097     1.0  0.05381  0.42834  0.24704  1.0000
  C   C1098     1.0  0.06056  0.28773  0.48922  1.0000
  C   C1099     1.0  0.03023  0.33240  0.48087  1.0000
  S   S162      1.0  0.03884  0.25099  0.40828  1.0000
  H   H878      1.0  0.00144  0.36997  0.48128  1.0000
  C   C1100     1.0  0.07021  0.25815  0.37404  1.0000
  S   S163      1.0  0.99771  0.34730  0.48153  1.0000
  C   C1101     1.0  0.03788  0.30167  0.48854  1.0000
  H   H879      1.0  0.08020  0.48828  0.31947  1.0000
  C   C1102     1.0  0.07291  0.49073  0.31522  1.0000
  H   H880      1.0  0.05429  0.24532  0.45137  1.0000
  C   C1103     1.0  0.00064  0.45421  0.26753  1.0000
  C   C1104     1.0  0.99861  0.49066  0.28661  1.0000
  P   P34       1.0  0.99708  0.43633  0.25955  1.0000
  H   H881      1.0  0.01464  0.24713  0.47963  1.0000
  H   H882      1.0  0.07147  0.25063  0.37034  1.0000
  C   C1105     1.0  0.02859  0.26745  0.48817  1.0000
  C   C1106     1.0  0.06198  0.48818  0.32138  1.0000
  C   C1107     1.0  0.04972  0.49006  0.27972  1.0000
  H   H883      1.0  0.00728  0.48685  0.24811  1.0000
  C   C1108     1.0  0.00269  0.24275  0.40980  1.0000
  S   S164      1.0  0.01215  0.35455  0.55047  1.0000
  H   H884      1.0  0.00590  0.44844  0.62047  1.0000
  C   C1109     1.0  0.00142  0.44846  0.60458  1.0000
  S   S165      1.0  0.03071  0.32317  0.55464  1.0000
  Fe  Fe89      1.0  0.02106  0.39511  0.61123  1.0000
  C   C1110     1.0  0.06900  0.49226  0.73269  1.0000
  S   S166      1.0  0.02741  0.38447  0.59700  1.0000
  Fe  Fe90      1.0  0.02831  0.40520  0.62804  1.0000
  S   S167      1.0  0.00959  0.41293  0.63624  1.0000
  S   S168      1.0  0.04370  0.40895  0.63225  1.0000
  C   C1111     1.0  0.00577  0.29187  0.56329  1.0000
  C   C1112     1.0  0.04366  0.47811  0.72417  1.0000
  Fe  Fe91      1.0  0.00719  0.41870  0.61769  1.0000
  H   H885      1.0  0.06243  0.47782  0.61459  1.0000
  S   S169      1.0  0.02520  0.38759  0.62909  1.0000
  S   S170      1.0  0.02603  0.41210  0.60939  1.0000
  Fe  Fe92      1.0  0.05959  0.40291  0.69078  1.0000
  S   S171      1.0  0.06483  0.41952  0.68015  1.0000
  S   S172      1.0  0.05741  0.38966  0.68201  1.0000
  Fe  Fe93      1.0  0.07582  0.41680  0.69293  1.0000
  S   S173      1.0  0.09415  0.41965  0.68712  1.0000
  S   S174      1.0  0.07205  0.39922  0.70269  1.0000
  H   H886      1.0  0.03878  0.24847  0.56798  1.0000
  H   H887      1.0  0.02058  0.49075  0.67314  1.0000
  H   H888      1.0  0.09559  0.40152  0.71797  1.0000
  H   H889      1.0  0.11159  0.43053  0.71091  1.0000
  S   S175      1.0  0.01507  0.48214  0.58853  1.0000
  C   C1113     1.0  0.01912  0.41988  0.54660  1.0000
  H   H890      1.0  0.11072  0.35894  0.73291  1.0000
  C   C1114     1.0  0.99827  0.30255  0.54223  1.0000
  Fe  Fe94      1.0  0.08060  0.48699  0.68595  1.0000
  C   C1115     1.0  0.01469  0.29340  0.50587  1.0000
  H   H891      1.0  0.01080  0.40838  0.71088  1.0000
  Fe  Fe95      1.0  0.03410  0.25984  0.51539  1.0000
  H   H892      1.0  0.00772  0.28641  0.53678  1.0000
  H   H893      1.0  0.00292  0.29984  0.61277  1.0000
  C   C1116     1.0  0.06193  0.46350  0.64596  1.0000
  C   C1117     1.0  0.03091  0.38401  0.72933  1.0000
  C   C1118     1.0  0.12520  0.35427  0.71888  1.0000
  H   H894      1.0  0.05597  0.25767  0.56138  1.0000
  S   S176      1.0  0.09503  0.47081  0.68841  1.0000
  C   C1119     1.0  0.01233  0.30513  0.49978  1.0000
  C   C1120     1.0  0.01571  0.31261  0.58531  1.0000
  H   H895      1.0  0.09653  0.37953  0.71832  1.0000
  C   C1121     1.0  0.02765  0.39549  0.55809  1.0000
  H   H896      1.0  0.01124  0.25469  0.53484  1.0000
  H   H897      1.0  0.02796  0.38748  0.54409  1.0000
  C   C1122     1.0  0.99607  0.40450  0.53361  1.0000
  H   H898      1.0  0.06452  0.29445  0.53959  1.0000
  C   C1123     1.0  0.11643  0.47147  0.70333  1.0000
  H   H899      1.0  0.08787  0.44101  0.63234  1.0000
  C   C1124     1.0  0.04253  0.37873  0.55221  1.0000
  H   H900      1.0  0.01666  0.46029  0.70136  1.0000
  C   C1125     1.0  0.09185  0.43916  0.73314  1.0000
  H   H901      1.0  0.01445  0.27704  0.55501  1.0000
  C   C1126     1.0  0.00315  0.26584  0.59436  1.0000
  H   H902      1.0  0.01821  0.30648  0.56969  1.0000
  C   C1127     1.0  0.09853  0.46027  0.60813  1.0000
  H   H903      1.0  0.03160  0.29162  0.53554  1.0000
  H   H904      1.0  0.07014  0.45663  0.73589  1.0000
  C   C1128     1.0  0.09159  0.45633  0.61916  1.0000
  C   C1129     1.0  0.06335  0.46602  0.72048  1.0000
  H   H905      1.0  0.00962  0.36222  0.71284  1.0000
  S   S177      1.0  0.03944  0.44519  0.68479  1.0000
  H   H906      1.0  0.02401  0.47868  0.69367  1.0000
  C   C1130     1.0  0.04880  0.29182  0.53697  1.0000
  C   C1131     1.0  0.00652  0.44175  0.67636  1.0000
  H   H907      1.0  0.03737  0.43697  0.72578  1.0000
  C   C1132     1.0  0.01276  0.44114  0.72792  1.0000
  S   S178      1.0  0.05038  0.24880  0.54100  1.0000
  H   H908      1.0  0.00671  0.42663  0.69068  1.0000
  C   C1133     1.0  0.09413  0.43421  0.68662  1.0000
  C   C1134     1.0  0.10455  0.43680  0.68672  1.0000
  C   C1135     1.0  0.10462  0.44812  0.68722  1.0000
  C   C1136     1.0  0.09434  0.45699  0.68733  1.0000
  C   C1137     1.0  0.08397  0.45457  0.68679  1.0000
  C   C1138     1.0  0.08386  0.44313  0.68647  1.0000
  H   H909      1.0  0.11250  0.42996  0.68678  1.0000
  H   H910      1.0  0.11265  0.45000  0.68760  1.0000
  H   H911      1.0  0.07603  0.46144  0.68676  1.0000
  H   H912      1.0  0.07585  0.44127  0.68605  1.0000
  C   C1139     1.0  0.04651  0.48960  0.64931  1.0000
  C   C1140     1.0  0.02231  0.45172  0.67235  1.0000
  C   C1141     1.0  0.04277  0.47441  0.73633  1.0000
  C   C1142     1.0  0.02201  0.33779  0.50307  1.0000
  H   H913      1.0  0.03173  0.39786  0.73660  1.0000
  C   C1143     1.0  0.00960  0.46359  0.60692  1.0000
  C   C1144     1.0  0.00944  0.46946  0.59527  1.0000
  C   C1145     1.0  0.00542  0.38220  0.59673  1.0000
  C   C1146     1.0  0.00632  0.30123  0.60337  1.0000
  H   H914      1.0  0.02035  0.42068  0.66148  1.0000
  H   H915      1.0  0.01282  0.46713  0.61229  1.0000
  H   H916      1.0  0.14016  0.35197  0.70447  1.0000
  S   S179      1.0  0.00206  0.40227  0.61810  1.0000
  C   C1147     1.0  0.06815  0.46135  0.63486  1.0000
  C   C1148     1.0  0.04666  0.40378  0.64642  1.0000
  C   C1149     1.0  0.04403  0.39329  0.65367  1.0000
  C   C1150     1.0  0.04745  0.38894  0.66450  1.0000
  C   C1151     1.0  0.05316  0.39524  0.66835  1.0000
  C   C1152     1.0  0.05564  0.40577  0.66110  1.0000
  C   C1153     1.0  0.05251  0.40997  0.65017  1.0000
  H   H917      1.0  0.03961  0.38840  0.65081  1.0000
  H   H918      1.0  0.04564  0.38069  0.66987  1.0000
  H   H919      1.0  0.06004  0.41066  0.66389  1.0000
  H   H920      1.0  0.05450  0.41813  0.64466  1.0000
  H   H921      1.0  0.02505  0.42791  0.69483  1.0000
  H   H922      1.0  0.05619  0.37155  0.56194  1.0000
  C   C1154     1.0  0.00390  0.25910  0.54062  1.0000
  P   P35       1.0  0.01461  0.40684  0.55599  1.0000
  C   C1155     1.0  0.03717  0.31130  0.54746  1.0000
  C   C1156     1.0  0.04933  0.30704  0.54605  1.0000
  H   H923      1.0  0.12620  0.41833  0.72264  1.0000
  C   C1157     1.0  0.01476  0.44105  0.53940  1.0000
  C   C1158     1.0  0.03655  0.29593  0.53845  1.0000
  C   C1159     1.0  0.03074  0.30577  0.54359  1.0000
  H   H924      1.0  0.05436  0.31120  0.54903  1.0000
  P   P36       1.0  0.01015  0.28459  0.57698  1.0000
  H   H925      1.0  0.10224  0.42686  0.62136  1.0000
  H   H926      1.0  0.02133  0.30895  0.54469  1.0000
  H   H927      1.0  0.12863  0.47318  0.71823  1.0000
  C   C1160     1.0  0.01445  0.36770  0.58042  1.0000
  C   C1161     1.0  0.02204  0.37175  0.58445  1.0000
  C   C1162     1.0  0.01757  0.37916  0.59250  1.0000
  C   C1163     1.0  0.13436  0.35793  0.70992  1.0000
  C   C1164     1.0  0.02708  0.44343  0.68132  1.0000
  H   H928      1.0  0.01802  0.36211  0.57413  1.0000
  H   H929      1.0  0.03143  0.36909  0.58133  1.0000
  H   H930      1.0  0.02332  0.28772  0.50401  1.0000
  C   C1165     1.0  0.03227  0.38731  0.55082  1.0000
  H   H931      1.0  0.00158  0.42872  0.73282  1.0000
  C   C1166     1.0  0.04394  0.38654  0.56785  1.0000
  C   C1167     1.0  0.07227  0.40947  0.73671  1.0000
  C   C1168     1.0  0.00684  0.35993  0.63368  1.0000
  H   H932      1.0  0.00416  0.41733  0.53513  1.0000
  C   C1169     1.0  0.00089  0.31206  0.50205  1.0000
  S   S180      1.0  0.99899  0.48814  0.69666  1.0000
  H   H933      1.0  0.10035  0.47128  0.66346  1.0000
  H   H934      1.0  0.13010  0.38564  0.71350  1.0000
  P   P37       1.0  0.08141  0.46664  0.62758  1.0000
  H   H935      1.0  0.00089  0.36223  0.64160  1.0000
  H   H936      1.0  0.00294  0.45052  0.69829  1.0000
  H   H937      1.0  0.03658  0.48450  0.72072  1.0000
  H   H938      1.0  0.00038  0.49024  0.63921  1.0000
  H   H939      1.0  0.99739  0.37735  0.69698  1.0000
  C   C1170     1.0  0.02219  0.37220  0.70119  1.0000
  C   C1171     1.0  0.05385  0.47390  0.71631  1.0000
  P   P38       1.0  0.10314  0.47421  0.72562  1.0000
  H   H940      1.0  0.09602  0.42213  0.70918  1.0000
  C   C1172     1.0  0.09231  0.44666  0.72207  1.0000
  H   H941      1.0  0.05656  0.28939  0.50713  1.0000
  C   C1173     1.0  0.02649  0.26398  0.57268  1.0000
  H   H942      1.0  0.05715  0.43615  0.72764  1.0000
  C   C1174     1.0  0.00529  0.43535  0.72593  1.0000
  H   H943      1.0  0.14345  0.47154  0.72906  1.0000
  H   H944      1.0  0.11433  0.43393  0.60177  1.0000
  P   P39       1.0  0.10969  0.38310  0.73334  1.0000
  C   C1175     1.0  0.01922  0.38987  0.71460  1.0000
  C   C1176     1.0  0.03608  0.35034  0.69706  1.0000
  C   C1177     1.0  0.09860  0.45267  0.73965  1.0000
  C   C1178     1.0  0.10854  0.47932  0.71006  1.0000
  S   S181      1.0  0.02944  0.26931  0.52998  1.0000
  C   C1179     1.0  0.05338  0.29171  0.49915  1.0000
  C   C1180     1.0  0.09695  0.47038  0.65651  1.0000
  C   C1181     1.0  0.09087  0.37956  0.72696  1.0000
  H   H945      1.0  0.04822  0.38602  0.57474  1.0000
  C   C1182     1.0  0.00204  0.43849  0.71514  1.0000
  C   C1183     1.0  0.00626  0.41033  0.56996  1.0000
  H   H946      1.0  0.11973  0.49003  0.67649  1.0000
  H   H947      1.0  0.01967  0.32003  0.58064  1.0000
  C   C1184     1.0  0.06269  0.46247  0.73255  1.0000
  C   C1185     1.0  0.02486  0.44091  0.63090  1.0000
  C   C1186     1.0  0.02233  0.45128  0.63483  1.0000
  C   C1187     1.0  0.02794  0.46033  0.62822  1.0000
  C   C1188     1.0  0.03619  0.45895  0.61774  1.0000
  C   C1189     1.0  0.03873  0.44858  0.61368  1.0000
  C   C1190     1.0  0.03286  0.43963  0.62028  1.0000
  P   P40       1.0  0.05027  0.44614  0.60086  1.0000
  C   C1191     1.0  0.04564  0.43843  0.59283  1.0000
  C   C1192     1.0  0.05289  0.46008  0.59163  1.0000
  C   C1193     1.0  0.04624  0.46633  0.58318  1.0000
  C   C1194     1.0  0.04845  0.47698  0.57594  1.0000
  C   C1195     1.0  0.05734  0.48149  0.57703  1.0000
  C   C1196     1.0  0.06387  0.47546  0.58555  1.0000
  C   C1197     1.0  0.06153  0.46491  0.59295  1.0000
  C   C1198     1.0  0.05339  0.42885  0.58838  1.0000
  C   C1199     1.0  0.04959  0.42277  0.58248  1.0000
  C   C1200     1.0  0.03806  0.42622  0.58092  1.0000
  C   C1201     1.0  0.03031  0.43574  0.58529  1.0000
  C   C1202     1.0  0.03406  0.44175  0.59129  1.0000
  C   C1203     1.0  0.06359  0.43707  0.60527  1.0000
  C   C1204     1.0  0.06306  0.42911  0.61616  1.0000
  C   C1205     1.0  0.07328  0.42154  0.61921  1.0000
  C   C1206     1.0  0.08414  0.42181  0.61140  1.0000
  C   C1207     1.0  0.08479  0.42969  0.60053  1.0000
  C   C1208     1.0  0.07455  0.43722  0.59743  1.0000
  H   H948      1.0  0.02060  0.43383  0.63606  1.0000
  H   H949      1.0  0.01607  0.45229  0.64302  1.0000
  H   H950      1.0  0.02605  0.46834  0.63134  1.0000
  H   H951      1.0  0.04073  0.46589  0.61302  1.0000
  H   H952      1.0  0.03469  0.43152  0.61739  1.0000
  H   H953      1.0  0.03913  0.46322  0.58228  1.0000
  H   H954      1.0  0.04302  0.48191  0.56971  1.0000
  C   C1209     1.0  0.08396  0.47842  0.64300  1.0000
  H   H955      1.0  0.07048  0.47920  0.58663  1.0000
  H   H956      1.0  0.06639  0.46063  0.59976  1.0000
  H   H957      1.0  0.06230  0.42589  0.58958  1.0000
  H   H958      1.0  0.05552  0.41525  0.57928  1.0000
  H   H959      1.0  0.03508  0.42136  0.57655  1.0000
  H   H960      1.0  0.02132  0.43835  0.58427  1.0000
  H   H961      1.0  0.02791  0.44896  0.59481  1.0000
  H   H962      1.0  0.05476  0.42847  0.62224  1.0000
  H   H963      1.0  0.07261  0.41528  0.62755  1.0000
  H   H964      1.0  0.09203  0.41581  0.61368  1.0000
  H   H965      1.0  0.09318  0.42984  0.59440  1.0000
  H   H966      1.0  0.07515  0.44297  0.58880  1.0000
  H   H967      1.0  0.11193  0.45532  0.59336  1.0000
  H   H968      1.0  0.07728  0.48555  0.63965  1.0000
  C   C1210     1.0  0.08534  0.48861  0.61478  1.0000
  C   C1211     1.0  0.04583  0.27431  0.56531  1.0000
  H   H969      1.0  0.09285  0.48656  0.61869  1.0000
  H   H970      1.0  0.14319  0.37207  0.70115  1.0000
  C   C1212     1.0  0.09303  0.44421  0.62383  1.0000
  S   S182      1.0  0.05239  0.40512  0.73373  1.0000
  C   C1213     1.0  0.00602  0.40186  0.54922  1.0000
  H   H971      1.0  0.00760  0.27960  0.51878  1.0000
  C   C1214     1.0  0.00527  0.29119  0.54368  1.0000
  H   H972      1.0  0.00644  0.38518  0.56163  1.0000
  H   H973      1.0  0.00184  0.38777  0.60299  1.0000
  H   H974      1.0  0.03702  0.37911  0.68996  1.0000
  H   H975      1.0  0.04904  0.36003  0.68608  1.0000
  H   H976      1.0  0.03370  0.29004  0.56903  1.0000
  C   C1215     1.0  0.01227  0.45067  0.66965  1.0000
  H   H977      1.0  0.08840  0.41053  0.74002  1.0000
  C   C1216     1.0  0.01135  0.43091  0.54668  1.0000
  C   C1217     1.0  0.00971  0.41775  0.57473  1.0000
  C   C1218     1.0  0.09589  0.45716  0.71982  1.0000
  C   C1219     1.0  0.00229  0.37101  0.58444  1.0000
  H   H978      1.0  0.09774  0.46955  0.60433  1.0000
  H   H979      1.0  0.06870  0.45294  0.62112  1.0000
  S   S183      1.0  0.06186  0.42715  0.70491  1.0000
  Fe  Fe96      1.0  0.00628  0.39580  0.63585  1.0000
  H   H980      1.0  0.01390  0.48790  0.65188  1.0000
  C   C1220     1.0  0.00503  0.46494  0.58844  1.0000
  C   C1221     1.0  0.13606  0.36924  0.70805  1.0000
  C   C1222     1.0  0.02163  0.43417  0.68770  1.0000
  C   C1223     1.0  0.02637  0.35803  0.62119  1.0000
  C   C1224     1.0  0.12861  0.37692  0.71511  1.0000
  C   C1225     1.0  0.01498  0.30486  0.57911  1.0000
  H   H981      1.0  0.00481  0.46947  0.57946  1.0000
  H   H982      1.0  0.12390  0.34548  0.72036  1.0000
  H   H983      1.0  0.08967  0.44449  0.71528  1.0000
  H   H984      1.0  0.09573  0.46306  0.71139  1.0000
  H   H985      1.0  0.05131  0.44470  0.63189  1.0000
  C   C1226     1.0  0.00906  0.28589  0.55412  1.0000
  H   H986      1.0  0.06469  0.46866  0.65018  1.0000
  C   C1227     1.0  0.04837  0.37834  0.56072  1.0000
  C   C1228     1.0  0.11414  0.47305  0.73349  1.0000
  C   C1229     1.0  0.02245  0.35484  0.61304  1.0000
  H   H987      1.0  0.05447  0.47691  0.70695  1.0000
  H   H988      1.0  0.01192  0.26354  0.59596  1.0000
  C   C1230     1.0  0.05509  0.29751  0.54071  1.0000
  C   C1231     1.0  0.03463  0.28088  0.56935  1.0000
  C   C1232     1.0  0.02528  0.40245  0.68728  1.0000
  C   C1233     1.0  0.11131  0.42148  0.71509  1.0000
  H   H989      1.0  0.02153  0.36310  0.63783  1.0000
  H   H990      1.0  0.05326  0.27843  0.56202  1.0000
  C   C1234     1.0  0.03362  0.39506  0.56657  1.0000
  C   C1235     1.0  0.10092  0.46008  0.65225  1.0000
  H   H991      1.0  0.00878  0.44955  0.53961  1.0000
  C   C1236     1.0  0.99800  0.48644  0.64843  1.0000
  C   C1237     1.0  0.04817  0.45223  0.64673  1.0000
  C   C1238     1.0  0.00592  0.44767  0.70644  1.0000
  C   C1239     1.0  0.08790  0.46814  0.63861  1.0000
  H   H992      1.0  0.09958  0.45086  0.64023  1.0000
  H   H993      1.0  0.01885  0.41328  0.72494  1.0000
  H   H994      1.0  0.03160  0.40004  0.69275  1.0000
  H   H995      1.0  0.00467  0.47870  0.72162  1.0000
  C   C1240     1.0  0.06416  0.45466  0.62970  1.0000
  H   H996      1.0  0.01744  0.42121  0.57024  1.0000
  C   C1241     1.0  0.11933  0.37334  0.72407  1.0000
  H   H997      1.0  0.00871  0.45705  0.66264  1.0000
  H   H998      1.0  0.00867  0.47905  0.67321  1.0000
  H   H999      1.0  0.10736  0.45293  0.65603  1.0000
  H   H1000     1.0  0.02843  0.35324  0.60487  1.0000
  Fe  Fe97      1.0  0.04870  0.26627  0.52830  1.0000
  C   C1242     1.0  0.11909  0.40293  0.72712  1.0000
  H   H1001     1.0  0.00202  0.28586  0.60200  1.0000
  H   H1002     1.0  0.99780  0.25129  0.60765  1.0000
  H   H1003     1.0  0.02871  0.37210  0.72053  1.0000
  C   C1243     1.0  0.02484  0.27576  0.57312  1.0000
  C   C1244     1.0  0.11040  0.39807  0.72599  1.0000
  C   C1245     1.0  0.01132  0.31085  0.59743  1.0000
  H   H1004     1.0  0.04048  0.44868  0.65135  1.0000
  H   H1005     1.0  0.04733  0.46053  0.66050  1.0000
  H   H1006     1.0  0.01909  0.25995  0.57489  1.0000
  C   C1246     1.0  0.01022  0.29504  0.58500  1.0000
  C   C1247     1.0  0.00435  0.25823  0.55220  1.0000
  C   C1248     1.0  0.04736  0.26260  0.56493  1.0000
  C   C1249     1.0  0.07798  0.48070  0.61771  1.0000
  C   C1250     1.0  0.10121  0.43617  0.61761  1.0000
  H   H1007     1.0  0.00786  0.35216  0.60849  1.0000
  C   C1251     1.0  0.04035  0.36050  0.69177  1.0000
  H   H1008     1.0  0.04587  0.37227  0.54677  1.0000
  C   C1252     1.0  0.09644  0.45895  0.64330  1.0000
  C   C1253     1.0  0.01554  0.39730  0.69062  1.0000
  C   C1254     1.0  0.10800  0.44015  0.60661  1.0000
  H   H1009     1.0  0.07593  0.40907  0.72761  1.0000
  H   H1010     1.0  0.02169  0.34314  0.70883  1.0000
  C   C1255     1.0  0.02644  0.38112  0.72139  1.0000
  C   C1256     1.0  0.00224  0.40876  0.53902  1.0000
  H   H1011     1.0  0.99885  0.32105  0.49717  1.0000
  H   H1012     1.0  0.04142  0.34192  0.69540  1.0000
  C   C1257     1.0  0.01114  0.43353  0.68545  1.0000
  H   H1013     1.0  0.03662  0.37732  0.73444  1.0000
  C   C1258     1.0  0.05203  0.45890  0.65188  1.0000
  H   H1014     1.0  0.07624  0.37719  0.72188  1.0000
  C   C1259     1.0  0.10664  0.45220  0.60187  1.0000
  C   C1260     1.0  0.13441  0.47173  0.73370  1.0000
  C   C1261     1.0  0.03769  0.25743  0.56867  1.0000
  H   H1015     1.0  0.03023  0.40106  0.57245  1.0000
  Fe  Fe98      1.0  0.01276  0.33518  0.55450  1.0000
  Fe  Fe99      1.0  0.99903  0.35627  0.53993  1.0000
  C   C1262     1.0  0.05428  0.45004  0.63569  1.0000
  C   C1263     1.0  0.10262  0.41672  0.71399  1.0000
  C   C1264     1.0  0.12750  0.40916  0.62491  1.0000
  C   C1265     1.0  0.13162  0.39972  0.61930  1.0000
  C   C1266     1.0  0.12630  0.39014  0.62344  1.0000
  C   C1267     1.0  0.11683  0.39001  0.63316  1.0000
  C   C1268     1.0  0.11250  0.39956  0.63873  1.0000
  C   C1269     1.0  0.11803  0.40906  0.63463  1.0000
  P   P41       1.0  0.10040  0.39918  0.65143  1.0000
  C   C1270     1.0  0.09054  0.39144  0.64973  1.0000
  C   C1271     1.0  0.10586  0.39189  0.66459  1.0000
  C   C1272     1.0  0.11655  0.38348  0.66415  1.0000
  C   C1273     1.0  0.12075  0.37800  0.67439  1.0000
  C   C1274     1.0  0.11433  0.38089  0.68510  1.0000
  C   C1275     1.0  0.10366  0.38916  0.68560  1.0000
  C   C1276     1.0  0.09937  0.39456  0.67543  1.0000
  C   C1277     1.0  0.08517  0.38381  0.65936  1.0000
  C   C1278     1.0  0.07735  0.37809  0.65798  1.0000
  C   C1279     1.0  0.07460  0.38016  0.64708  1.0000
  C   C1280     1.0  0.07982  0.38781  0.63747  1.0000
  C   C1281     1.0  0.08785  0.39335  0.63876  1.0000
  C   C1282     1.0  0.09252  0.41396  0.65272  1.0000
  C   C1283     1.0  0.09719  0.42067  0.65719  1.0000
  C   C1284     1.0  0.09078  0.43175  0.65906  1.0000
  C   C1285     1.0  0.07956  0.43612  0.65679  1.0000
  C   C1286     1.0  0.07489  0.42957  0.65223  1.0000
  C   C1287     1.0  0.08137  0.41859  0.65009  1.0000
  H   H1016     1.0  0.13173  0.41652  0.62180  1.0000
  H   H1017     1.0  0.13901  0.39977  0.61181  1.0000
  H   H1018     1.0  0.12958  0.38276  0.61916  1.0000
  H   H1019     1.0  0.11293  0.38243  0.63635  1.0000
  H   H1020     1.0  0.11511  0.41641  0.63888  1.0000
  H   H1021     1.0  0.12166  0.38116  0.65595  1.0000
  H   H1022     1.0  0.12902  0.37156  0.67401  1.0000
  H   H1023     1.0  0.11762  0.37675  0.69302  1.0000
  H   H1024     1.0  0.09873  0.39158  0.69384  1.0000
  H   H1025     1.0  0.09103  0.40093  0.67604  1.0000
  H   H1026     1.0  0.08668  0.38248  0.66803  1.0000
  H   H1027     1.0  0.07294  0.37252  0.66554  1.0000
  H   H1028     1.0  0.06811  0.37613  0.64618  1.0000
  H   H1029     1.0  0.07740  0.38963  0.62912  1.0000
  H   H1030     1.0  0.09173  0.39934  0.63127  1.0000
  H   H1031     1.0  0.10556  0.41715  0.65975  1.0000
  H   H1032     1.0  0.09423  0.43667  0.66294  1.0000
  H   H1033     1.0  0.07432  0.44434  0.65906  1.0000
  H   H1034     1.0  0.06598  0.43267  0.65101  1.0000
  H   H1035     1.0  0.07733  0.41357  0.64698  1.0000
  Fe  Fe100     1.0  0.05034  0.42830  0.69296  1.0000
  C   C1288     1.0  0.01807  0.36191  0.70675  1.0000
  H   H1036     1.0  0.03536  0.35890  0.61932  1.0000
  C   C1289     1.0  0.08847  0.47954  0.65188  1.0000
  C   C1290     1.0  0.02588  0.44023  0.53187  1.0000
  C   C1291     1.0  0.00575  0.28872  0.51422  1.0000
  C   C1292     1.0  0.01912  0.41403  0.66948  1.0000
  C   C1293     1.0  0.03081  0.49090  0.69831  1.0000
  H   H1037     1.0  0.03666  0.30166  0.50667  1.0000
  C   C1294     1.0  0.02496  0.35103  0.70460  1.0000
  H   H1038     1.0  0.07851  0.47713  0.72565  1.0000
  C   C1295     1.0  0.02183  0.48661  0.69695  1.0000
  H   H1039     1.0  0.99702  0.33858  0.64692  1.0000
  C   C1296     1.0  0.02812  0.39560  0.73061  1.0000
  S   S184      1.0  0.05691  0.27981  0.53038  1.0000
  C   C1297     1.0  0.03346  0.37137  0.69389  1.0000
  H   H1040     1.0  0.03983  0.48620  0.69615  1.0000
  H   H1041     1.0  0.02635  0.45901  0.66750  1.0000
  H   H1042     1.0  0.02238  0.45499  0.72036  1.0000
  C   C1298     1.0  0.01697  0.45007  0.71893  1.0000
  C   C1299     1.0  0.11955  0.41459  0.72167  1.0000
  C   C1300     1.0  0.99986  0.27561  0.58559  1.0000
  C   C1301     1.0  0.10232  0.40499  0.71916  1.0000
  C   C1302     1.0  0.01858  0.36048  0.63155  1.0000
  C   C1303     1.0  0.01641  0.40150  0.71599  1.0000
  C   C1304     1.0  0.12056  0.47535  0.69129  1.0000
  C   C1305     1.0  0.01070  0.35426  0.61514  1.0000
  C   C1306     1.0  0.02700  0.41080  0.67680  1.0000
  S   S185      1.0  0.05348  0.25846  0.51230  1.0000
  H   H1043     1.0  0.07127  0.46291  0.71433  1.0000
  C   C1307     1.0  0.02084  0.40431  0.72401  1.0000
  C   C1308     1.0  0.00575  0.45298  0.61152  1.0000
  C   C1309     1.0  0.01355  0.45329  0.70824  1.0000
  H   H1044     1.0  0.01890  0.33984  0.51171  1.0000
  H   H1045     1.0  0.00122  0.25596  0.50063  1.0000
  C   C1310     1.0  0.12593  0.47265  0.72758  1.0000
  S   S186      1.0  0.02205  0.26433  0.50307  1.0000
  C   C1311     1.0  0.99783  0.37818  0.59269  1.0000
  C   C1312     1.0  0.04209  0.29867  0.49884  1.0000
  H   H1046     1.0  0.11921  0.46231  0.70736  1.0000
  C   C1313     1.0  0.00943  0.40896  0.67269  1.0000
  C   C1314     1.0  0.04968  0.43805  0.73473  1.0000
  C   C1315     1.0  0.99713  0.36375  0.51118  1.0000
  H   H1047     1.0  0.05565  0.49156  0.66111  1.0000
  Fe  Fe101     1.0  0.05724  0.40983  0.71393  1.0000
  C   C1316     1.0  0.00532  0.48273  0.72825  1.0000
  C   C1317     1.0  0.02056  0.32745  0.50135  1.0000
  H   H1048     1.0  0.04243  0.48293  0.65567  1.0000
  C   C1318     1.0  0.00771  0.40051  0.68313  1.0000
  H   H1049     1.0  0.12550  0.39774  0.73226  1.0000
  H   H1050     1.0  0.00014  0.39674  0.68537  1.0000
  H   H1051     1.0  0.03627  0.41070  0.53846  1.0000
  H   H1052     1.0  0.02249  0.47219  0.72960  1.0000
  C   C1319     1.0  0.03835  0.43874  0.73364  1.0000
  H   H1053     1.0  0.01655  0.32152  0.50881  1.0000
  C   C1320     1.0  0.07940  0.37821  0.72894  1.0000
  H   H1054     1.0  0.02852  0.44810  0.52625  1.0000
  Fe  Fe102     1.0  0.99696  0.35512  0.56602  1.0000
  H   H1055     1.0  0.04217  0.42863  0.52569  1.0000
  C   C1321     1.0  0.03020  0.41911  0.53887  1.0000
  H   H1056     1.0  0.03430  0.41500  0.67451  1.0000
  S   S187      1.0  0.04432  0.41185  0.70302  1.0000
  C   C1322     1.0  0.09921  0.46022  0.72851  1.0000
  C   C1323     1.0  0.11774  0.36192  0.72596  1.0000
  H   H1057     1.0  0.12632  0.46919  0.68607  1.0000
  C   C1324     1.0  0.03357  0.42927  0.53157  1.0000
  P   P42       1.0  0.01364  0.38628  0.70411  1.0000
  C   C1325     1.0  0.00348  0.39072  0.55389  1.0000
  S   S188      1.0  0.03567  0.48628  0.63408  1.0000
  C   C1326     1.0  0.09009  0.48482  0.73025  1.0000
  C   C1327     1.0  0.07917  0.48403  0.72922  1.0000
  C   C1328     1.0  0.09487  0.38125  0.73601  1.0000
  C   C1329     1.0  0.00279  0.35678  0.62551  1.0000
  H   H1058     1.0  0.02798  0.35377  0.49498  1.0000
  H   H1059     1.0  0.00313  0.41182  0.66718  1.0000
  C   C1330     1.0  0.06839  0.48361  0.61238  1.0000
  H   H1060     1.0  0.01181  0.31697  0.60217  1.0000
  C   C1331     1.0  0.01550  0.47917  0.73268  1.0000
  S   S189      1.0  0.01687  0.24985  0.55741  1.0000
  C   C1332     1.0  0.00084  0.45463  0.59313  1.0000
  C   C1333     1.0  0.99832  0.38589  0.71001  1.0000
  Fe  Fe103     1.0  0.03134  0.25134  0.54149  1.0000
  C   C1334     1.0  0.00273  0.48024  0.66761  1.0000
  C   C1335     1.0  0.00581  0.29331  0.59721  1.0000
  S   S190      1.0  0.03860  0.48985  0.60057  1.0000
  C   C1336     1.0  0.00566  0.48514  0.65561  1.0000
  S   S191      1.0  0.99830  0.33559  0.57090  1.0000
  C   C1337     1.0  0.99849  0.30320  0.56189  1.0000
  S   S192      1.0  0.00099  0.33687  0.54264  1.0000
  C   C1338     1.0  0.07182  0.37858  0.73991  1.0000
  H   H1061     1.0  0.00171  0.37846  0.49760  1.0000
  C   C1339     1.0  0.01657  0.48468  0.74091  1.0000
  C   C1340     1.0  0.99943  0.37007  0.49952  1.0000
  H   H1062     1.0  0.00267  0.43167  0.55242  1.0000
  H   H1063     1.0  0.08886  0.43114  0.73499  1.0000
  C   C1341     1.0  0.11683  0.48708  0.68587  1.0000
  S   S193      1.0  0.99836  0.36933  0.52259  1.0000
  H   H1064     1.0  0.08528  0.48750  0.65525  1.0000
  H   H1065     1.0  0.00600  0.42633  0.58909  1.0000
  C   C1342     1.0  0.99677  0.35421  0.49275  1.0000
  C   C1343     1.0  0.05249  0.46662  0.74043  1.0000
  C   C1344     1.0  0.99720  0.38657  0.54854  1.0000
  C   C1345     1.0  0.00322  0.42074  0.58537  1.0000
  H   H1066     1.0  0.06062  0.49147  0.73198  1.0000
  C   C1346     1.0  0.02721  0.34562  0.49365  1.0000
  H   H1067     1.0  0.99620  0.43406  0.71366  1.0000
  S   S194      1.0  0.06352  0.48982  0.68082  1.0000
  H   H1068     1.0  0.99715  0.45975  0.73260  1.0000
  C   C1347     1.0  0.10499  0.49115  0.70457  1.0000
  H   H1069     1.0  0.05883  0.48991  0.57161  1.0000
  H   H1070     1.0  0.99729  0.45135  0.58780  1.0000
  C   C1348     1.0  0.99615  0.40602  0.57603  1.0000
  C   C1349     1.0  0.99601  0.49150  0.73228  1.0000
  H   H1071     1.0  0.05704  0.24268  0.49343  1.0000
  H   H1072     1.0  0.48862  0.30951  0.98951  1.0000
  H   H1073     1.0  0.46573  0.27292  0.90384  1.0000
  C   C1350     1.0  0.22485  0.45854  0.98273  1.0000
  C   C1351     1.0  0.49053  0.27999  0.88503  1.0000
  P   P43       1.0  0.02984  0.48072  0.74638  1.0000
  C   C1352     1.0  0.03569  0.35448  0.83098  1.0000
  H   H1074     1.0  0.23305  0.46482  0.88046  1.0000
  C   C1353     1.0  0.01130  0.48262  0.91703  1.0000
  C   C1354     1.0  0.01260  0.40228  0.76524  1.0000
  C   C1355     1.0  0.03471  0.36657  0.82682  1.0000
  S   S195      1.0  0.48002  0.31511  0.93528  1.0000
  C   C1356     1.0  0.48702  0.36474  0.91411  1.0000
  Fe  Fe104     1.0  0.48155  0.30174  0.92505  1.0000
  S   S196      1.0  0.46455  0.29750  0.92553  1.0000
  H   H1075     1.0  0.10055  0.45497  0.74673  1.0000
  S   S197      1.0  0.48719  0.34340  0.91109  1.0000
  C   C1357     1.0  0.29264  0.46121  0.93886  1.0000
  C   C1358     1.0  0.02793  0.35023  0.84116  1.0000
  H   H1076     1.0  0.26310  0.39976  0.90271  1.0000
  Fe  Fe105     1.0  0.07279  0.44743  0.77662  1.0000
  S   S198      1.0  0.08883  0.43296  0.77709  1.0000
  S   S199      1.0  0.07563  0.46354  0.76313  1.0000
  Fe  Fe106     1.0  0.05767  0.43289  0.79554  1.0000
  S   S200      1.0  0.07262  0.41711  0.79743  1.0000
  S   S201      1.0  0.04003  0.43252  0.80776  1.0000
  Fe  Fe107     1.0  0.08272  0.43034  0.79661  1.0000
  S   S202      1.0  0.09618  0.42714  0.80736  1.0000
  Fe  Fe108     1.0  0.07705  0.42160  0.77766  1.0000
  S   S203      1.0  0.08408  0.40996  0.76451  1.0000
  S   S204      1.0  0.06746  0.44578  0.79610  1.0000
  S   S205      1.0  0.06135  0.43640  0.77586  1.0000
  H   H1077     1.0  0.47796  0.26487  0.96078  1.0000
  C   C1359     1.0  0.41954  0.47084  0.92084  1.0000
  H   H1078     1.0  0.12239  0.37359  0.77725  1.0000
  C   C1360     1.0  0.01714  0.46649  0.76481  1.0000
  H   H1079     1.0  0.27122  0.45550  0.93397  1.0000
  H   H1080     1.0  0.32447  0.44866  0.94713  1.0000
  C   C1361     1.0  0.30312  0.40079  0.92741  1.0000
  C   C1362     1.0  0.00244  0.45024  0.74898  1.0000
  Fe  Fe109     1.0  0.08597  0.46889  0.85223  1.0000
  H   H1081     1.0  0.00099  0.42825  0.80888  1.0000
  S   S206      1.0  0.09017  0.45014  0.85010  1.0000
  H   H1082     1.0  0.09637  0.45476  0.77099  1.0000
  C   C1363     1.0  0.20584  0.48733  0.96214  1.0000
  C   C1364     1.0  0.10497  0.48953  0.88616  1.0000
  H   H1083     1.0  0.45849  0.24528  0.95434  1.0000
  H   H1084     1.0  0.15002  0.47087  0.83828  1.0000
  S   S207      1.0  0.07548  0.47335  0.86951  1.0000
  C   C1365     1.0  0.47479  0.27181  0.89900  1.0000
  H   H1085     1.0  0.30107  0.41955  0.92151  1.0000
  C   C1366     1.0  0.44489  0.27519  0.96026  1.0000
  H   H1086     1.0  0.03170  0.41733  0.74512  1.0000
  H   H1087     1.0  0.00001  0.47472  0.79146  1.0000
  H   H1088     1.0  0.29645  0.40088  0.96698  1.0000
  C   C1367     1.0  0.47887  0.28143  0.89136  1.0000
  C   C1368     1.0  0.18578  0.49000  0.97375  1.0000
  C   C1369     1.0  0.46328  0.24512  0.99046  1.0000
  C   C1370     1.0  0.24908  0.42175  0.97818  1.0000
  C   C1371     1.0  0.16761  0.46653  0.95367  1.0000
  C   C1372     1.0  0.23175  0.46403  0.96164  1.0000
  H   H1089     1.0  0.14161  0.47381  0.97608  1.0000
  H   H1090     1.0  0.42345  0.47452  0.93559  1.0000
  C   C1373     1.0  0.02463  0.44605  0.86376  1.0000
  H   H1091     1.0  0.44930  0.29133  0.94935  1.0000
  H   H1092     1.0  0.04434  0.41856  0.83124  1.0000
  C   C1374     1.0  0.13122  0.47112  0.74578  1.0000
  C   C1375     1.0  0.19566  0.48309  0.96760  1.0000
  C   C1376     1.0  0.33082  0.48782  0.87493  1.0000
  H   H1093     1.0  0.08039  0.48601  0.75765  1.0000
  H   H1094     1.0  0.13696  0.48486  0.95691  1.0000
  C   C1377     1.0  0.11049  0.44802  0.78008  1.0000
  C   C1378     1.0  0.49259  0.27220  0.97377  1.0000
  C   C1379     1.0  0.11662  0.45037  0.78696  1.0000
  C   C1380     1.0  0.31635  0.46057  0.95881  1.0000
  H   H1095     1.0  0.11283  0.43949  0.77788  1.0000
  C   C1381     1.0  0.03724  0.45996  0.81646  1.0000
  Fe  Fe110     1.0  0.41360  0.44818  0.97118  1.0000
  C   C1382     1.0  0.02315  0.40454  0.75784  1.0000
  C   C1383     1.0  0.09762  0.46735  0.77966  1.0000
  H   H1096     1.0  0.31927  0.47745  0.98320  1.0000
  S   S208      1.0  0.00314  0.42217  0.78680  1.0000
  C   C1384     1.0  0.27995  0.40475  0.92486  1.0000
  C   C1385     1.0  0.25802  0.37493  0.93035  1.0000
  C   C1386     1.0  0.07464  0.41058  0.75561  1.0000
  H   H1097     1.0  0.48705  0.38175  0.91613  1.0000
  C   C1387     1.0  0.00243  0.41122  0.76558  1.0000
  C   C1388     1.0  0.11024  0.46550  0.98492  1.0000
  C   C1389     1.0  0.05594  0.40894  0.75354  1.0000
  C   C1390     1.0  0.06283  0.41026  0.76042  1.0000
  C   C1391     1.0  0.29729  0.42716  0.98402  1.0000
  C   C1392     1.0  0.28180  0.48253  0.97536  1.0000
  C   C1393     1.0  0.07572  0.38021  0.74896  1.0000
  H   H1098     1.0  0.05915  0.41057  0.76955  1.0000
  C   C1394     1.0  0.06783  0.47610  0.76848  1.0000
  C   C1395     1.0  0.05733  0.47618  0.77697  1.0000
  H   H1099     1.0  0.48722  0.36764  0.90482  1.0000
  C   C1396     1.0  0.02591  0.37452  0.83281  1.0000
  C   C1397     1.0  0.44970  0.44615  0.97306  1.0000
  C   C1398     1.0  0.11633  0.46551  0.96405  1.0000
  H   H1100     1.0  0.05429  0.46817  0.78085  1.0000
  P   P44       1.0  0.46657  0.24558  0.97489  1.0000
  H   H1101     1.0  0.39764  0.47907  0.93724  1.0000
  H   H1102     1.0  0.46319  0.45569  0.98004  1.0000
  C   C1399     1.0  0.09476  0.43507  0.81806  1.0000
  C   C1400     1.0  0.10258  0.43056  0.82557  1.0000
  C   C1401     1.0  0.10128  0.43564  0.83499  1.0000
  C   C1402     1.0  0.09237  0.44557  0.83689  1.0000
  C   C1403     1.0  0.08478  0.45052  0.82909  1.0000
  C   C1404     1.0  0.08591  0.44519  0.81973  1.0000
  H   H1103     1.0  0.10940  0.42275  0.82440  1.0000
  H   H1104     1.0  0.10707  0.43166  0.84103  1.0000
  H   H1105     1.0  0.07769  0.45803  0.83064  1.0000
  H   H1106     1.0  0.07967  0.44857  0.81414  1.0000
  C   C1405     1.0  0.01318  0.42524  0.79273  1.0000
  C   C1406     1.0  0.00991  0.42787  0.80385  1.0000
  C   C1407     1.0  0.01829  0.42982  0.80856  1.0000
  C   C1408     1.0  0.02993  0.42909  0.80217  1.0000
  C   C1409     1.0  0.03321  0.42628  0.79114  1.0000
  C   C1410     1.0  0.02482  0.42451  0.78637  1.0000
  C   C1411     1.0  0.31001  0.44338  0.89719  1.0000
  H   H1107     1.0  0.01571  0.43203  0.81709  1.0000
  H   H1108     1.0  0.04218  0.42552  0.78624  1.0000
  H   H1109     1.0  0.02738  0.42240  0.77779  1.0000
  C   C1412     1.0  0.21977  0.45026  0.98131  1.0000
  C   C1413     1.0  0.46437  0.27902  0.95486  1.0000
  C   C1414     1.0  0.10082  0.47465  0.81483  1.0000
  C   C1415     1.0  0.27125  0.42858  0.88997  1.0000
  C   C1416     1.0  0.11580  0.45952  0.97575  1.0000
  H   H1110     1.0  0.28086  0.42298  0.91928  1.0000
  H   H1111     1.0  0.39682  0.47230  0.91612  1.0000
  H   H1112     1.0  0.01142  0.37612  0.84793  1.0000
  H   H1113     1.0  0.01178  0.40964  0.83972  1.0000
  H   H1114     1.0  0.01393  0.39652  0.80680  1.0000
  C   C1417     1.0  0.25481  0.41311  0.93504  1.0000
  H   H1115     1.0  0.12371  0.44362  0.79011  1.0000
  C   C1418     1.0  0.03606  0.40589  0.82967  1.0000
  C   C1419     1.0  0.46263  0.28342  0.92645  1.0000
  C   C1420     1.0  0.45145  0.28261  0.92631  1.0000
  C   C1421     1.0  0.44919  0.27177  0.92706  1.0000
  C   C1422     1.0  0.45808  0.26155  0.92791  1.0000
  C   C1423     1.0  0.46928  0.26220  0.92838  1.0000
  C   C1424     1.0  0.47158  0.27319  0.92759  1.0000
  H   H1116     1.0  0.44449  0.29044  0.92553  1.0000
  H   H1117     1.0  0.44053  0.27133  0.92676  1.0000
  H   H1118     1.0  0.47618  0.25432  0.92909  1.0000
  H   H1119     1.0  0.48022  0.27377  0.92777  1.0000
  C   C1425     1.0  0.04437  0.40397  0.84615  1.0000
  H   H1120     1.0  0.44726  0.28408  0.97828  1.0000
  H   H1121     1.0  0.03400  0.41096  0.82138  1.0000
  C   C1426     1.0  0.35038  0.40198  0.98681  1.0000
  C   C1427     1.0  0.45250  0.28273  0.95446  1.0000
  H   H1122     1.0  0.00326  0.38617  0.82409  1.0000
  H   H1123     1.0  0.26062  0.38605  0.93989  1.0000
  S   S209      1.0  0.21961  0.45211  0.91338  1.0000
  Fe  Fe111     1.0  0.46788  0.37684  0.98282  1.0000
  Fe  Fe112     1.0  0.24342  0.48258  0.90688  1.0000
  S   S210      1.0  0.25648  0.47495  0.91827  1.0000
  C   C1428     1.0  0.48672  0.36909  0.93250  1.0000
  C   C1429     1.0  0.48649  0.35740  0.93815  1.0000
  C   C1430     1.0  0.48650  0.34938  0.93171  1.0000
  C   C1431     1.0  0.48689  0.35304  0.91965  1.0000
  S   S211      1.0  0.39540  0.44694  0.98160  1.0000
  C   C1432     1.0  0.00067  0.39323  0.82873  1.0000
  C   C1433     1.0  0.05144  0.43917  0.74518  1.0000
  H   H1124     1.0  0.00192  0.48160  0.94048  1.0000
  H   H1125     1.0  0.11943  0.48385  0.86337  1.0000
  H   H1126     1.0  0.06026  0.43818  0.74619  1.0000
  H   H1127     1.0  0.05075  0.47332  0.87374  1.0000
  C   C1434     1.0  0.25675  0.42222  0.93871  1.0000
  H   H1128     1.0  0.09427  0.43651  0.75060  1.0000
  C   C1435     1.0  0.30207  0.45990  0.90664  1.0000
  C   C1436     1.0  0.44342  0.41380  0.96529  1.0000
  H   H1129     1.0  0.44764  0.41688  0.95627  1.0000
  C   C1437     1.0  0.03281  0.39512  0.83471  1.0000
  H   H1130     1.0  0.24194  0.40316  0.93679  1.0000
  C   C1438     1.0  0.44857  0.40296  0.97169  1.0000
  H   H1131     1.0  0.27203  0.48448  0.94746  1.0000
  C   C1439     1.0  0.28906  0.44861  0.90533  1.0000
  C   C1440     1.0  0.08719  0.38152  0.74705  1.0000
  H   H1132     1.0  0.45666  0.39773  0.96757  1.0000
  H   H1133     1.0  0.18149  0.48110  0.91931  1.0000
  C   C1441     1.0  0.38842  0.42071  0.97194  1.0000
  H   H1134     1.0  0.26450  0.42570  0.93456  1.0000
  C   C1442     1.0  0.29692  0.41219  0.92364  1.0000
  C   C1443     1.0  0.27810  0.47603  0.94827  1.0000
  C   C1444     1.0  0.10940  0.48600  0.89640  1.0000
  P   P45       1.0  0.02456  0.39017  0.82756  1.0000
  H   H1135     1.0  0.31208  0.39929  0.92828  1.0000
  P   P46       1.0  0.17233  0.48483  0.98001  1.0000
  H   H1136     1.0  0.22695  0.45499  0.95142  1.0000
  H   H1137     1.0  0.21623  0.44282  0.96890  1.0000
  H   H1138     1.0  0.42582  0.44343  0.91536  1.0000
  S   S212      1.0  0.34565  0.47433  0.89954  1.0000
  C   C1445     1.0  0.29781  0.39134  0.92985  1.0000
  C   C1446     1.0  0.04104  0.39328  0.85135  1.0000
  C   C1447     1.0  0.28542  0.41413  0.92238  1.0000
  C   C1448     1.0  0.10111  0.45657  0.77632  1.0000
  C   C1449     1.0  0.32854  0.49019  0.98302  1.0000
  H   H1139     1.0  0.00801  0.45468  0.92151  1.0000
  H   H1140     1.0  0.30134  0.44655  0.95032  1.0000
  C   C1450     1.0  0.43299  0.42075  0.97054  1.0000
  H   H1141     1.0  0.17521  0.47962  0.94028  1.0000
  H   H1142     1.0  0.25654  0.36797  0.93803  1.0000
  Fe  Fe113     1.0  0.49075  0.32397  0.91885  1.0000
  C   C1451     1.0  0.28628  0.39330  0.92859  1.0000
  C   C1452     1.0  0.40920  0.41249  0.96510  1.0000
  C   C1453     1.0  0.11954  0.47145  0.75175  1.0000
  S   S213      1.0  0.16389  0.46760  0.92231  1.0000
  H   H1143     1.0  0.28292  0.47695  0.92957  1.0000
  C   C1454     1.0  0.44198  0.29676  0.98914  1.0000
  C   C1455     1.0  0.00274  0.42244  0.75850  1.0000
  H   H1144     1.0  0.38804  0.48853  0.95409  1.0000
  H   H1145     1.0  0.39855  0.40499  0.98122  1.0000
  C   C1456     1.0  0.41916  0.32119  0.99007  1.0000
  C   C1457     1.0  0.00551  0.40627  0.83758  1.0000
  C   C1458     1.0  0.10993  0.38845  0.75403  1.0000
  C   C1459     1.0  0.45781  0.43589  0.97678  1.0000
  S   S214      1.0  0.39143  0.47491  0.98245  1.0000
  H   H1146     1.0  0.30850  0.46994  0.97275  1.0000
  H   H1147     1.0  0.04226  0.48702  0.78636  1.0000
  C   C1460     1.0  0.46442  0.42879  0.96877  1.0000
  C   C1461     1.0  0.12129  0.36918  0.75115  1.0000
  C   C1462     1.0  0.31052  0.48620  0.88043  1.0000
  H   H1148     1.0  0.48735  0.24454  0.98364  1.0000
  C   C1463     1.0  0.14489  0.48152  0.88457  1.0000
  H   H1149     1.0  0.34098  0.40302  0.99029  1.0000
  H   H1150     1.0  0.32977  0.43146  0.96286  1.0000
  C   C1464     1.0  0.04147  0.47697  0.87434  1.0000
  H   H1151     1.0  0.03259  0.38066  0.84991  1.0000
  C   C1465     1.0  0.17024  0.47782  0.96970  1.0000
  H   H1152     1.0  0.38381  0.39881  0.97372  1.0000
  C   C1466     1.0  0.27439  0.47963  0.88734  1.0000
  C   C1467     1.0  0.31320  0.46161  0.97050  1.0000
  C   C1468     1.0  0.11403  0.37999  0.74712  1.0000
  S   S215      1.0  0.23893  0.47313  0.94959  1.0000
  C   C1469     1.0  0.17375  0.48207  0.95757  1.0000
  C   C1470     1.0  0.22716  0.47311  0.88182  1.0000
  H   H1153     1.0  0.28620  0.48125  0.89663  1.0000
  C   C1471     1.0  0.04187  0.41024  0.83531  1.0000
  C   C1472     1.0  0.03061  0.45495  0.82716  1.0000
  H   H1154     1.0  0.04843  0.39075  0.81342  1.0000
  H   H1155     1.0  0.29071  0.45386  0.96817  1.0000
  C   C1473     1.0  0.38824  0.48112  0.90191  1.0000
  C   C1474     1.0  0.21527  0.47355  0.88695  1.0000
  H   H1156     1.0  0.08125  0.41951  0.83751  1.0000
  S   S216      1.0  0.36885  0.45919  0.91920  1.0000
  C   C1475     1.0  0.46122  0.28363  0.98605  1.0000
  H   H1157     1.0  0.24491  0.42633  0.91671  1.0000
  C   C1476     1.0  0.10492  0.47750  0.98217  1.0000
  C   C1477     1.0  0.25915  0.41717  0.98288  1.0000
  C   C1478     1.0  0.26217  0.39427  0.92145  1.0000
  C   C1479     1.0  0.28904  0.42700  0.97810  1.0000
  C   C1480     1.0  0.04694  0.48045  0.83851  1.0000
  P   P47       1.0  0.37501  0.42041  0.98314  1.0000
  C   C1481     1.0  0.36803  0.40938  0.98257  1.0000
  C   C1482     1.0  0.18598  0.47218  0.91876  1.0000
  Fe  Fe114     1.0  0.32478  0.47286  0.93013  1.0000
  C   C1483     1.0  0.31658  0.45204  0.97930  1.0000
  S   S217      1.0  0.31798  0.48100  0.91369  1.0000
  C   C1484     1.0  0.12013  0.37537  0.76883  1.0000
  S   S218      1.0  0.27521  0.44547  0.90794  1.0000
  C   C1485     1.0  0.25237  0.42678  0.90934  1.0000
  C   C1486     1.0  0.03341  0.46978  0.88000  1.0000
  C   C1487     1.0  0.27050  0.46184  0.98403  1.0000
  H   H1158     1.0  0.39069  0.45992  0.94721  1.0000
  S   S219      1.0  0.31277  0.47307  0.94788  1.0000
  H   H1159     1.0  0.16228  0.46462  0.98301  1.0000
  H   H1160     1.0  0.25905  0.38169  0.90105  1.0000
  H   H1161     1.0  0.41927  0.42181  0.98613  1.0000
  C   C1488     1.0  0.01215  0.46203  0.91910  1.0000
  P   P48       1.0  0.26512  0.40751  0.92283  1.0000
  C   C1489     1.0  0.46107  0.26018  0.96699  1.0000
  C   C1490     1.0  0.26032  0.38518  0.93137  1.0000
  C   C1491     1.0  0.25757  0.37367  0.91942  1.0000
  C   C1492     1.0  0.25943  0.38265  0.90952  1.0000
  H   H1162     1.0  0.02790  0.45290  0.86503  1.0000
  H   H1163     1.0  0.25491  0.46092  0.97941  1.0000
  C   C1493     1.0  0.03522  0.38887  0.84568  1.0000
  H   H1164     1.0  0.45362  0.44452  0.94471  1.0000
  C   C1494     1.0  0.36104  0.46812  0.95038  1.0000
  C   C1495     1.0  0.28847  0.45877  0.95992  1.0000
  H   H1165     1.0  0.19545  0.47450  0.96681  1.0000
  H   H1166     1.0  0.35321  0.47198  0.95609  1.0000
  H   H1167     1.0  0.41788  0.46413  0.90677  1.0000
  C   C1496     1.0  0.24410  0.40958  0.93994  1.0000
  C   C1497     1.0  0.23568  0.41484  0.94859  1.0000
  C   C1498     1.0  0.23775  0.42385  0.95220  1.0000
  C   C1499     1.0  0.24825  0.42756  0.94721  1.0000
  H   H1168     1.0  0.22734  0.41225  0.95219  1.0000
  H   H1169     1.0  0.23106  0.42822  0.95858  1.0000
  H   H1170     1.0  0.24961  0.43497  0.94954  1.0000
  C   C1500     1.0  0.03053  0.44203  0.75337  1.0000
  C   C1501     1.0  0.04185  0.44127  0.75445  1.0000
  Fe  Fe115     1.0  0.48392  0.35319  0.98046  1.0000
  C   C1502     1.0  0.11291  0.38614  0.76485  1.0000
  C   C1503     1.0  0.05582  0.43574  0.82950  1.0000
  H   H1171     1.0  0.02343  0.44292  0.76093  1.0000
  H   H1172     1.0  0.04316  0.44199  0.76263  1.0000
  S   S220      1.0  0.32635  0.42906  0.98784  1.0000
  H   H1173     1.0  0.28324  0.46350  0.91348  1.0000
  H   H1174     1.0  0.46794  0.42633  0.95114  1.0000
  H   H1175     1.0  0.24081  0.48281  0.87555  1.0000
  H   H1176     1.0  0.11171  0.48221  0.95237  1.0000
  C   C1504     1.0  0.36009  0.46498  0.94056  1.0000
  H   H1177     1.0  0.42560  0.48882  0.88999  1.0000
  H   H1178     1.0  0.38301  0.47466  0.90384  1.0000
  C   C1505     1.0  0.99968  0.44977  0.76107  1.0000
  H   H1179     1.0  0.42648  0.32376  0.98327  1.0000
  C   C1506     1.0  0.01331  0.43106  0.87205  1.0000
  H   H1180     1.0  0.04694  0.40830  0.75741  1.0000
  H   H1181     1.0  0.05673  0.39407  0.79210  1.0000
  H   H1182     1.0  0.18026  0.44615  0.91975  1.0000
  C   C1507     1.0  0.06529  0.47781  0.80532  1.0000
  C   C1508     1.0  0.07752  0.47608  0.80187  1.0000
  C   C1509     1.0  0.10375  0.46981  0.78655  1.0000
  C   C1510     1.0  0.11335  0.46125  0.79010  1.0000
  H   H1183     1.0  0.37663  0.48481  0.93043  1.0000
  H   H1184     1.0  0.21199  0.46559  0.88965  1.0000
  C   C1511     1.0  0.02419  0.46024  0.91402  1.0000
  Fe  Fe116     1.0  0.48421  0.37372  0.95960  1.0000
  C   C1512     1.0  0.02611  0.47247  0.84631  1.0000
  H   H1185     1.0  0.30097  0.43480  0.98194  1.0000
  C   C1513     1.0  0.32250  0.44112  0.97663  1.0000
  H   H1186     1.0  0.28247  0.38582  0.93041  1.0000
  C   C1514     1.0  0.01766  0.43996  0.87338  1.0000
  H   H1187     1.0  0.11813  0.46276  0.79559  1.0000
  H   H1188     1.0  0.07059  0.42344  0.82177  1.0000
  C   C1515     1.0  0.44321  0.39891  0.98335  1.0000
  H   H1189     1.0  0.30437  0.48079  0.88196  1.0000
  C   C1516     1.0  0.26949  0.39926  0.96525  1.0000
  S   S221      1.0  0.48125  0.38672  0.97071  1.0000
  H   H1190     1.0  0.28115  0.41373  0.90012  1.0000
  C   C1517     1.0  0.03367  0.46020  0.77866  1.0000
  C   C1518     1.0  0.02349  0.45586  0.78271  1.0000
  H   H1191     1.0  0.27380  0.47083  0.89230  1.0000
  H   H1192     1.0  0.05331  0.44364  0.85502  1.0000
  C   C1519     1.0  0.02733  0.47100  0.76065  1.0000
  C   C1520     1.0  0.03544  0.46802  0.76781  1.0000
  C   C1521     1.0  0.42646  0.49155  0.90656  1.0000
  Fe  Fe117     1.0  0.33045  0.46547  0.90722  1.0000
  C   C1522     1.0  0.49375  0.27143  0.98509  1.0000
  H   H1193     1.0  0.30335  0.46713  0.90929  1.0000
  C   C1523     1.0  0.04265  0.39250  0.80751  1.0000
  C   C1524     1.0  0.05085  0.44145  0.83888  1.0000
  H   H1194     1.0  0.00431  0.44268  0.76689  1.0000
  H   H1195     1.0  0.47031  0.28477  0.95006  1.0000
  H   H1196     1.0  0.02541  0.43160  0.84314  1.0000
  H   H1197     1.0  0.01546  0.44230  0.88183  1.0000
  C   C1525     1.0  0.43032  0.34678  0.96936  1.0000
  C   C1526     1.0  0.02604  0.48379  0.84687  1.0000
  H   H1198     1.0  0.11714  0.47095  0.76110  1.0000
  P   P49       1.0  0.41360  0.48605  0.91493  1.0000
  C   C1527     1.0  0.48696  0.37272  0.92050  1.0000
  H   H1199     1.0  0.45100  0.26203  0.98965  1.0000
  C   C1528     1.0  0.17247  0.47640  0.94962  1.0000
  H   H1200     1.0  0.04009  0.45753  0.78403  1.0000
  H   H1201     1.0  0.02182  0.45029  0.79132  1.0000
  C   C1529     1.0  0.03227  0.46481  0.80666  1.0000
  H   H1202     1.0  0.16657  0.46225  0.94743  1.0000
  H   H1203     1.0  0.04307  0.47181  0.76504  1.0000
  S   S222      1.0  0.22768  0.47886  0.92098  1.0000
  C   C1530     1.0  0.31174  0.45262  0.90073  1.0000
  C   C1531     1.0  0.40975  0.35652  0.97081  1.0000
  C   C1532     1.0  0.11531  0.48547  0.80226  1.0000
  H   H1204     1.0  0.04884  0.40744  0.85051  1.0000
  C   C1533     1.0  0.44912  0.26401  0.96663  1.0000
  C   C1534     1.0  0.29876  0.44132  0.89957  1.0000
  H   H1205     1.0  0.10947  0.39270  0.77019  1.0000
  C   C1535     1.0  0.37016  0.46080  0.93262  1.0000
  C   C1536     1.0  0.42916  0.44732  0.93016  1.0000
  H   H1206     1.0  0.44435  0.45165  0.97914  1.0000
  H   H1207     1.0  0.06969  0.38095  0.75733  1.0000
  C   C1537     1.0  0.25835  0.48473  0.97253  1.0000
  H   H1208     1.0  0.31743  0.43776  0.89259  1.0000
  C   C1538     1.0  0.14583  0.47299  0.89488  1.0000
  C   C1539     1.0  0.42526  0.45026  0.91974  1.0000
  H   H1209     1.0  0.47930  0.25340  0.90675  1.0000
  H   H1210     1.0  0.34363  0.44984  0.96560  1.0000
  S   S223      1.0  0.33918  0.48262  0.92453  1.0000
  C   C1540     1.0  0.37203  0.46639  0.95277  1.0000
  C   C1541     1.0  0.22651  0.45587  0.96015  1.0000
  C   C1542     1.0  0.03666  0.46497  0.84209  1.0000
  H   H1211     1.0  0.00732  0.45567  0.77923  1.0000
  H   H1212     1.0  0.43262  0.43823  0.93400  1.0000
  C   C1543     1.0  0.23083  0.46539  0.97293  1.0000
  H   H1213     1.0  0.01674  0.46855  0.79992  1.0000
  C   C1544     1.0  0.28000  0.46942  0.95931  1.0000
  C   C1545     1.0  0.32793  0.48457  0.96569  1.0000
  C   C1546     1.0  0.01820  0.37017  0.84308  1.0000
  H   H1214     1.0  0.10127  0.45423  0.88749  1.0000
  H   H1215     1.0  0.09887  0.44463  0.87305  1.0000
  S   S224      1.0  0.32611  0.45480  0.89728  1.0000
  H   H1216     1.0  0.48959  0.26545  0.97208  1.0000
  S   S225      1.0  0.42713  0.43445  0.96225  1.0000
  H   H1217     1.0  0.09002  0.47368  0.77702  1.0000
  H   H1218     1.0  0.36670  0.49143  0.91375  1.0000
  C   C1547     1.0  0.25097  0.43556  0.89928  1.0000
  S   S226      1.0  0.48856  0.33362  0.98352  1.0000
  C   C1548     1.0  0.26042  0.43653  0.88965  1.0000
  Fe  Fe118     1.0  0.33359  0.48923  0.90749  1.0000
  H   H1219     1.0  0.24257  0.44175  0.89909  1.0000
  C   C1549     1.0  0.26172  0.39292  0.91050  1.0000
  H   H1220     1.0  0.27862  0.42947  0.88257  1.0000
  C   C1550     1.0  0.25176  0.48517  0.96459  1.0000
  C   C1551     1.0  0.37451  0.39978  0.97748  1.0000
  H   H1221     1.0  0.37394  0.38409  0.97294  1.0000
  H   H1222     1.0  0.11980  0.45023  0.97763  1.0000
  H   H1223     1.0  0.05497  0.48358  0.83548  1.0000
  C   C1552     1.0  0.32471  0.48350  0.97783  1.0000
  C   C1553     1.0  0.35686  0.39251  0.98165  1.0000
  H   H1224     1.0  0.11863  0.46231  0.88368  1.0000
  H   H1225     1.0  0.11398  0.44322  0.85469  1.0000
  C   C1554     1.0  0.23795  0.42116  0.98527  1.0000
  H   H1226     1.0  0.10194  0.47283  0.75040  1.0000
  C   C1555     1.0  0.02819  0.39698  0.79185  1.0000
  H   H1227     1.0  0.12457  0.36249  0.74602  1.0000
  H   H1228     1.0  0.24979  0.42572  0.96902  1.0000
  C   C1556     1.0  0.02347  0.41571  0.75075  1.0000
  C   C1557     1.0  0.36475  0.44312  0.98639  1.0000
  H   H1229     1.0  0.23024  0.42469  0.98155  1.0000
  H   H1230     1.0  0.46234  0.33896  0.98414  1.0000
  H   H1231     1.0  0.14779  0.47504  0.90215  1.0000
  C   C1558     1.0  0.42385  0.46784  0.93107  1.0000
  C   C1559     1.0  0.12434  0.36691  0.76196  1.0000
  C   C1560     1.0  0.38889  0.42983  0.96186  1.0000
  C   C1561     1.0  0.39944  0.43025  0.95351  1.0000
  C   C1562     1.0  0.40958  0.42161  0.95514  1.0000
  H   H1232     1.0  0.46115  0.30621  0.96930  1.0000
  H   H1233     1.0  0.34008  0.48386  0.87245  1.0000
  H   H1234     1.0  0.03901  0.46827  0.90611  1.0000
  H   H1235     1.0  0.01347  0.45147  0.83606  1.0000
  S   S227      1.0  0.24404  0.45232  0.92761  1.0000
  H   H1236     1.0  0.48641  0.35453  0.94742  1.0000
  C   C1563     1.0  0.46868  0.26773  0.96096  1.0000
  H   H1237     1.0  0.08981  0.38313  0.75413  1.0000
  S   S228      1.0  0.48681  0.37948  0.94002  1.0000
  H   H1238     1.0  0.05528  0.46357  0.83445  1.0000
  C   C1564     1.0  0.28975  0.39756  0.96550  1.0000
  C   C1565     1.0  0.27267  0.41974  0.89999  1.0000
  H   H1239     1.0  0.29771  0.45812  0.93100  1.0000
  C   C1566     1.0  0.04744  0.39423  0.79543  1.0000
  H   H1240     1.0  0.07277  0.42992  0.85393  1.0000
  H   H1241     1.0  0.23458  0.47186  0.97418  1.0000
  C   C1567     1.0  0.01523  0.45901  0.77586  1.0000
  C   C1568     1.0  0.39619  0.47974  0.90878  1.0000
  H   H1242     1.0  0.38121  0.43677  0.96047  1.0000
  H   H1243     1.0  0.39980  0.43743  0.94589  1.0000
  H   H1244     1.0  0.41784  0.42217  0.94887  1.0000
  C   C1569     1.0  0.35674  0.45392  0.98489  1.0000
  H   H1245     1.0  0.46735  0.27662  0.98212  1.0000
  C   C1570     1.0  0.28433  0.47186  0.93810  1.0000
  C   C1571     1.0  0.01893  0.45485  0.82787  1.0000
  H   H1246     1.0  0.03738  0.46884  0.79850  1.0000
  H   H1247     1.0  0.01276  0.42121  0.86008  1.0000
  Fe  Fe119     1.0  0.23194  0.46184  0.91534  1.0000
  S   S229      1.0  0.49090  0.31157  0.90816  1.0000
  H   H1248     1.0  0.32528  0.47229  0.87574  1.0000
  C   C1572     1.0  0.07268  0.42547  0.83802  1.0000
  H   H1249     1.0  0.30223  0.38270  0.95958  1.0000
  H   H1250     1.0  0.35758  0.43064  0.96829  1.0000
  C   C1573     1.0  0.27908  0.43730  0.93989  1.0000
  C   C1574     1.0  0.27174  0.44815  0.94142  1.0000
  C   C1575     1.0  0.26529  0.44961  0.95259  1.0000
  C   C1576     1.0  0.26581  0.44012  0.96218  1.0000
  C   C1577     1.0  0.27285  0.42906  0.96068  1.0000
  C   C1578     1.0  0.27970  0.42778  0.94949  1.0000
  H   H1251     1.0  0.01319  0.35478  0.85511  1.0000
  C   C1579     1.0  0.12085  0.48307  0.81156  1.0000
  P   P50       1.0  0.27356  0.41686  0.97318  1.0000
  C   C1580     1.0  0.44991  0.28784  0.98389  1.0000
  C   C1581     1.0  0.34896  0.45620  0.97762  1.0000
  C   C1582     1.0  0.18525  0.45250  0.91898  1.0000
  C   C1583     1.0  0.41908  0.35014  0.97619  1.0000
  S   S230      1.0  0.10038  0.47719  0.85194  1.0000
  H   H1252     1.0  0.25940  0.44355  0.88200  1.0000
  C   C1584     1.0  0.32521  0.43988  0.96500  1.0000
  C   C1585     1.0  0.22043  0.44903  0.97001  1.0000
  H   H1253     1.0  0.48621  0.34038  0.93606  1.0000
  H   H1254     1.0  0.20342  0.47496  0.91641  1.0000
  C   C1586     1.0  0.01921  0.35807  0.84722  1.0000
  H   H1255     1.0  0.44314  0.25824  0.97108  1.0000
  H   H1256     1.0  0.26629  0.38569  0.95919  1.0000
  H   H1257     1.0  0.01794  0.46956  0.84910  1.0000
  C   C1587     1.0  0.00919  0.39727  0.83131  1.0000
  H   H1258     1.0  0.28643  0.43462  0.97150  1.0000
  H   H1259     1.0  0.28427  0.43634  0.93122  1.0000
  H   H1260     1.0  0.00763  0.42660  0.87944  1.0000
  H   H1261     1.0  0.05130  0.43735  0.82255  1.0000
  H   H1262     1.0  0.26063  0.44141  0.97073  1.0000
  H   H1263     1.0  0.28548  0.41946  0.94810  1.0000
  H   H1264     1.0  0.29756  0.43412  0.89680  1.0000
  H   H1265     1.0  0.10060  0.48245  0.98892  1.0000
  C   C1588     1.0  0.16404  0.46228  0.96571  1.0000
  H   H1266     1.0  0.25990  0.45812  0.95382  1.0000
  H   H1267     1.0  0.10333  0.46650  0.83229  1.0000
  H   H1268     1.0  0.04618  0.46031  0.81577  1.0000
  C   C1589     1.0  0.20415  0.45710  0.91620  1.0000
  Fe  Fe120     1.0  0.24101  0.46977  0.93192  1.0000
  C   C1590     1.0  0.17940  0.46403  0.91979  1.0000
  C   C1591     1.0  0.02327  0.43402  0.85155  1.0000
  C   C1592     1.0  0.42062  0.46201  0.91497  1.0000
  Fe  Fe121     1.0  0.35014  0.46695  0.91719  1.0000
  H   H1269     1.0  0.09321  0.47114  0.81626  1.0000
  P   P51       1.0  0.03638  0.45092  0.84020  1.0000
  S   S231      1.0  0.09560  0.48156  0.88449  1.0000
  C   C1593     1.0  0.45873  0.33241  0.91903  1.0000
  C   C1594     1.0  0.44953  0.32761  0.91923  1.0000
  C   C1595     1.0  0.43922  0.32898  0.92795  1.0000
  C   C1596     1.0  0.43812  0.33516  0.93648  1.0000
  C   C1597     1.0  0.44730  0.34013  0.93624  1.0000
  C   C1598     1.0  0.45769  0.33847  0.92760  1.0000
  P   P52       1.0  0.44690  0.34650  0.94814  1.0000
  C   C1599     1.0  0.45656  0.33542  0.95653  1.0000
  C   C1600     1.0  0.45124  0.36040  0.94328  1.0000
  C   C1601     1.0  0.45122  0.36632  0.95169  1.0000
  C   C1602     1.0  0.45439  0.37715  0.94818  1.0000
  C   C1603     1.0  0.45759  0.38218  0.93628  1.0000
  C   C1604     1.0  0.45737  0.37650  0.92785  1.0000
  C   C1605     1.0  0.45412  0.36570  0.93131  1.0000
  C   C1606     1.0  0.46667  0.33767  0.95798  1.0000
  C   C1607     1.0  0.47462  0.32866  0.96354  1.0000
  C   C1608     1.0  0.47254  0.31738  0.96780  1.0000
  C   C1609     1.0  0.46251  0.31505  0.96636  1.0000
  C   C1610     1.0  0.45453  0.32403  0.96076  1.0000
  C   C1611     1.0  0.43228  0.34977  0.95706  1.0000
  C   C1612     1.0  0.28145  0.48553  0.88974  1.0000
  H   H1270     1.0  0.41717  0.40601  0.96650  1.0000
  C   C1613     1.0  0.13547  0.48220  0.97552  1.0000
  C   C1614     1.0  0.41169  0.35965  0.95857  1.0000
  C   C1615     1.0  0.42294  0.35638  0.95172  1.0000
  H   H1271     1.0  0.46686  0.33108  0.91247  1.0000
  H   H1272     1.0  0.45057  0.32248  0.91286  1.0000
  H   H1273     1.0  0.43225  0.32495  0.92825  1.0000
  H   H1274     1.0  0.43028  0.33568  0.94342  1.0000
  H   H1275     1.0  0.46517  0.34155  0.92769  1.0000
  H   H1276     1.0  0.44891  0.36249  0.96097  1.0000
  H   H1277     1.0  0.45463  0.38158  0.95469  1.0000
  H   H1278     1.0  0.46049  0.39035  0.93359  1.0000
  H   H1279     1.0  0.46000  0.38033  0.91862  1.0000
  H   H1280     1.0  0.45396  0.36159  0.92458  1.0000
  H   H1281     1.0  0.46865  0.34625  0.95457  1.0000
  H   H1282     1.0  0.48255  0.33038  0.96438  1.0000
  H   H1283     1.0  0.47882  0.31042  0.97201  1.0000
  C   C1616     1.0  0.28421  0.41714  0.98081  1.0000
  H   H1284     1.0  0.44698  0.32200  0.95939  1.0000
  C   C1617     1.0  0.40811  0.32369  0.98746  1.0000
  H   H1285     1.0  0.02249  0.39920  0.78577  1.0000
  H   H1286     1.0  0.02869  0.34085  0.84436  1.0000
  H   H1287     1.0  0.40452  0.36479  0.95438  1.0000
  H   H1288     1.0  0.42441  0.35914  0.94224  1.0000
  C   C1618     1.0  0.16446  0.43444  0.85695  1.0000
  C   C1619     1.0  0.17460  0.43888  0.85238  1.0000
  C   C1620     1.0  0.17390  0.45080  0.85121  1.0000
  C   C1621     1.0  0.16304  0.45830  0.85449  1.0000
  C   C1622     1.0  0.15276  0.45398  0.85877  1.0000
  C   C1623     1.0  0.15358  0.44192  0.86026  1.0000
  P   P53       1.0  0.13897  0.46372  0.86355  1.0000
  C   C1624     1.0  0.12673  0.45684  0.86714  1.0000
  C   C1625     1.0  0.14073  0.46772  0.87606  1.0000
  C   C1626     1.0  0.14180  0.45915  0.88640  1.0000
  C   C1627     1.0  0.14425  0.46182  0.89581  1.0000
  C   C1628     1.0  0.26127  0.45670  0.98484  1.0000
  H   H1289     1.0  0.14159  0.48572  0.86733  1.0000
  C   C1629     1.0  0.02976  0.46962  0.91039  1.0000
  C   C1630     1.0  0.12516  0.45167  0.85889  1.0000
  C   C1631     1.0  0.11527  0.44704  0.86115  1.0000
  C   C1632     1.0  0.10674  0.44782  0.87153  1.0000
  C   C1633     1.0  0.10813  0.45316  0.87968  1.0000
  C   C1634     1.0  0.11806  0.45770  0.87750  1.0000
  C   C1635     1.0  0.13544  0.47641  0.85215  1.0000
  C   C1636     1.0  0.14227  0.47895  0.87521  1.0000
  C   C1637     1.0  0.29308  0.38729  0.96121  1.0000
  S   S232      1.0  0.33613  0.45664  0.92415  1.0000
  C   C1638     1.0  0.34940  0.44785  0.97156  1.0000
  H   H1290     1.0  0.44184  0.45713  0.95879  1.0000
  H   H1291     1.0  0.16503  0.42516  0.85805  1.0000
  H   H1292     1.0  0.18303  0.43306  0.84989  1.0000
  H   H1293     1.0  0.18180  0.45421  0.84788  1.0000
  H   H1294     1.0  0.16265  0.46748  0.85377  1.0000
  H   H1295     1.0  0.14592  0.43820  0.86411  1.0000
  H   H1296     1.0  0.14084  0.45038  0.88716  1.0000
  H   H1297     1.0  0.14504  0.45522  0.90381  1.0000
  Fe  Fe122     1.0  0.49440  0.37309  0.98006  1.0000
  H   H1298     1.0  0.12072  0.47452  0.82966  1.0000
  S   S233      1.0  0.41744  0.45723  0.98297  1.0000
  H   H1299     1.0  0.13143  0.45143  0.85058  1.0000
  H   H1300     1.0  0.30269  0.38249  0.93262  1.0000
  H   H1301     1.0  0.08283  0.46722  0.80298  1.0000
  C   C1639     1.0  0.06789  0.43132  0.84727  1.0000
  H   H1302     1.0  0.01059  0.46878  0.75966  1.0000
  C   C1640     1.0  0.28753  0.49025  0.98872  1.0000
  C   C1641     1.0  0.02136  0.47431  0.88053  1.0000
  C   C1642     1.0  0.44830  0.44932  0.96150  1.0000
  H   H1303     1.0  0.43167  0.45388  0.94375  1.0000
  H   H1304     1.0  0.10711  0.47850  0.90302  1.0000
  C   C1643     1.0  0.02065  0.46459  0.80745  1.0000
  Fe  Fe123     1.0  0.40974  0.47412  0.97161  1.0000
  H   H1305     1.0  0.26035  0.40384  0.96658  1.0000
  C   C1644     1.0  0.45494  0.44223  0.95357  1.0000
  H   H1306     1.0  0.25576  0.36574  0.91863  1.0000
  C   C1645     1.0  0.35738  0.43701  0.97306  1.0000
  H   H1307     1.0  0.43323  0.29966  0.98750  1.0000
  C   C1646     1.0  0.39865  0.41200  0.97344  1.0000
  C   C1647     1.0  0.49497  0.28186  0.96476  1.0000
  H   H1308     1.0  0.01230  0.39368  0.77084  1.0000
  C   C1648     1.0  0.03054  0.39309  0.81187  1.0000
  C   C1649     1.0  0.28462  0.38295  0.95902  1.0000
  C   C1650     1.0  0.04708  0.46906  0.83807  1.0000
  C   C1651     1.0  0.26331  0.41891  0.90985  1.0000
  H   H1309     1.0  0.04246  0.34840  0.82629  1.0000
  C   C1652     1.0  0.05696  0.43922  0.84776  1.0000
  C   C1653     1.0  0.19751  0.44910  0.91706  1.0000
  C   C1654     1.0  0.02333  0.39550  0.80390  1.0000
  P   P54       1.0  0.27261  0.47472  0.97265  1.0000
  C   C1655     1.0  0.48245  0.26078  0.90061  1.0000
  H   H1310     1.0  0.06132  0.47033  0.80899  1.0000
  C   C1656     1.0  0.06668  0.42773  0.82911  1.0000
  H   H1311     1.0  0.12091  0.46095  0.95700  1.0000
  C   C1657     1.0  0.19836  0.46868  0.91713  1.0000
  C   C1658     1.0  0.01402  0.45951  0.81802  1.0000
  H   H1312     1.0  0.35152  0.46588  0.93914  1.0000
  S   S234      1.0  0.46998  0.36473  0.97104  1.0000
  C   C1659     1.0  0.20771  0.48412  0.88915  1.0000
  C   C1660     1.0  0.04022  0.39637  0.78761  1.0000
  H   H1313     1.0  0.21329  0.48212  0.95714  1.0000
  C   C1661     1.0  0.36892  0.39139  0.97701  1.0000
  S   S235      1.0  0.40732  0.46506  0.95908  1.0000
  C   C1662     1.0  0.32229  0.44965  0.95607  1.0000
  C   C1663     1.0  0.16532  0.46791  0.97371  1.0000
  H   H1314     1.0  0.04290  0.38844  0.85980  1.0000
  H   H1315     1.0  0.16016  0.45471  0.96883  1.0000
  C   C1664     1.0  0.29464  0.45463  0.94977  1.0000
  S   S236      1.0  0.37272  0.47134  0.96469  1.0000
  Fe  Fe124     1.0  0.25836  0.45832  0.91292  1.0000
  H   H1316     1.0  0.20189  0.44017  0.91631  1.0000
  C   C1665     1.0  0.27285  0.38899  0.96096  1.0000
  C   C1666     1.0  0.29069  0.45789  0.90895  1.0000
  C   C1667     1.0  0.10659  0.47196  0.82398  1.0000
  S   S237      1.0  0.24665  0.46635  0.90017  1.0000
  C   C1668     1.0  0.35593  0.41033  0.98734  1.0000
  C   C1669     1.0  0.42745  0.41659  0.98211  1.0000
  Fe  Fe125     1.0  0.38959  0.46472  0.97065  1.0000
  C   C1670     1.0  0.02720  0.44335  0.85268  1.0000
  S   S238      1.0  0.01147  0.46510  0.88779  1.0000
  C   C1671     1.0  0.38217  0.46139  0.94531  1.0000
  H   H1317     1.0  0.00498  0.45937  0.81869  1.0000
  C   C1672     1.0  0.01619  0.42803  0.86115  1.0000
  C   C1673     1.0  0.38124  0.45869  0.93514  1.0000
  H   H1318     1.0  0.38905  0.45518  0.92914  1.0000
  C   C1674     1.0  0.39867  0.48776  0.93671  1.0000
  H   H1319     1.0  0.43576  0.27794  0.95964  1.0000
  H   H1320     1.0  0.47298  0.29004  0.89045  1.0000
  H   H1321     1.0  0.47053  0.42067  0.97141  1.0000
  C   C1675     1.0  0.28093  0.48360  0.98677  1.0000
  H   H1322     1.0  0.04386  0.39789  0.77826  1.0000
  C   C1676     1.0  0.11107  0.47745  0.96142  1.0000
  H   H1323     1.0  0.34286  0.46459  0.97640  1.0000
  C   C1677     1.0  0.01332  0.42478  0.75108  1.0000
  C   C1678     1.0  0.27789  0.40351  0.96776  1.0000
  H   H1324     1.0  0.28721  0.37495  0.95576  1.0000
  H   H1325     1.0  0.40108  0.35921  0.97612  1.0000
  H   H1326     1.0  0.10425  0.39682  0.75114  1.0000
  H   H1327     1.0  0.03655  0.46064  0.88381  1.0000
  C   C1679     1.0  0.42862  0.45613  0.93570  1.0000
  H   H1328     1.0  0.12990  0.35855  0.76507  1.0000
  H   H1329     1.0  0.03111  0.39768  0.75759  1.0000
  P   P55       1.0  0.09857  0.48335  0.79170  1.0000
  C   C1680     1.0  0.40322  0.48788  0.90615  1.0000
  C   C1681     1.0  0.11650  0.47631  0.82242  1.0000
  H   H1330     1.0  0.45710  0.31981  0.99028  1.0000
  H   H1331     1.0  0.02912  0.45164  0.91253  1.0000
  H   H1332     1.0  0.04082  0.36966  0.81894  1.0000
  H   H1333     1.0  0.32504  0.47940  0.96160  1.0000
  C   C1682     1.0  0.46299  0.43198  0.95721  1.0000
  H   H1334     1.0  0.47385  0.46806  0.98387  1.0000
  H   H1335     1.0  0.43749  0.34209  0.97368  1.0000
  H   H1336     1.0  0.26223  0.48069  0.87706  1.0000
  C   C1683     1.0  0.10524  0.48338  0.97048  1.0000
  H   H1337     1.0  0.05244  0.46371  0.74964  1.0000
  S   S239      1.0  0.41735  0.49006  0.96236  1.0000
  H   H1338     1.0  0.25483  0.47924  0.95867  1.0000
  H   H1339     1.0  0.13778  0.47042  0.75053  1.0000
  S   S240      1.0  0.45468  0.24845  0.92781  1.0000
  C   C1684     1.0  0.36496  0.43450  0.98070  1.0000
  H   H1340     1.0  0.19861  0.48421  0.89353  1.0000
  H   H1341     1.0  0.35250  0.38610  0.98118  1.0000
  C   C1685     1.0  0.11100  0.47246  0.74565  1.0000
  H   H1342     1.0  0.13412  0.45279  0.98620  1.0000
  C   C1686     1.0  0.12506  0.48488  0.85466  1.0000
  C   C1687     1.0  0.43257  0.40570  0.98852  1.0000
  H   H1343     1.0  0.40692  0.32823  0.97871  1.0000
  C   C1688     1.0  0.32247  0.48129  0.87682  1.0000
  C   C1689     1.0  0.02334  0.48079  0.91198  1.0000
  C   C1690     1.0  0.23151  0.48324  0.87903  1.0000
  C   C1691     1.0  0.00556  0.47329  0.92047  1.0000
  H   H1344     1.0  0.31472  0.45325  0.98811  1.0000
  H   H1345     1.0  0.41762  0.34794  0.98567  1.0000
  C   C1692     1.0  0.13018  0.48669  0.98566  1.0000
  C   C1693     1.0  0.45369  0.33818  0.98950  1.0000
  C   C1694     1.0  0.01735  0.48615  0.87559  1.0000
  C   C1695     1.0  0.13280  0.48844  0.96466  1.0000
  C   C1696     1.0  0.07928  0.41032  0.74372  1.0000
  C   C1697     1.0  0.14225  0.47751  0.84062  1.0000
  S   S241      1.0  0.07643  0.48464  0.84110  1.0000
  H   H1346     1.0  0.19120  0.46495  0.98785  1.0000
  H   H1347     1.0  0.99846  0.48315  0.81779  1.0000
  C   C1698     1.0  0.28793  0.40737  0.98939  1.0000
  C   C1699     1.0  0.08281  0.48570  0.79678  1.0000
  C   C1700     1.0  0.10505  0.48153  0.80392  1.0000
  C   C1701     1.0  0.38682  0.49092  0.89272  1.0000
  C   C1702     1.0  0.28943  0.48820  0.96595  1.0000
  H   H1348     1.0  0.29030  0.48754  0.95704  1.0000
  C   C1703     1.0  0.03644  0.48780  0.84294  1.0000
  H   H1349     1.0  0.38053  0.49198  0.88752  1.0000
  Fe  Fe126     1.0  0.08905  0.48329  0.86810  1.0000
  Fe  Fe127     1.0  0.15343  0.48627  0.92129  1.0000
  C   C1704     1.0  0.26793  0.48515  0.87869  1.0000
  H   H1350     1.0  0.28651  0.45925  0.98992  1.0000
  H   H1351     1.0  0.35676  0.46063  0.98913  1.0000
  H   H1352     1.0  0.09257  0.45273  0.99022  1.0000
  C   C1705     1.0  0.46760  0.45231  0.98726  1.0000
  H   H1353     1.0  0.48451  0.42088  0.98755  1.0000
  C   C1706     1.0  0.07201  0.48630  0.76377  1.0000
  H   H1354     1.0  0.01459  0.48577  0.82301  1.0000
  C   C1707     1.0  0.05058  0.48678  0.78007  1.0000
  H   H1355     1.0  0.43675  0.42978  0.98975  1.0000
  H   H1356     1.0  0.44826  0.35639  0.99058  1.0000
  H   H1357     1.0  0.49370  0.28264  0.95613  1.0000
  H   H1358     1.0  0.99869  0.48525  0.90025  1.0000
  H   H1359     1.0  0.12848  0.48650  0.81036  1.0000
  H   H1360     1.0  0.49347  0.28760  0.87920  1.0000
  C   C1708     1.0  0.13884  0.48713  0.83184  1.0000
  H   H1361     1.0  0.17755  0.48969  0.95424  1.0000
  H   H1362     1.0  0.14405  0.48794  0.82294  1.0000
  H   H1363     1.0  0.49572  0.25574  0.93326  1.0000
  C   C1709     1.0  0.02862  0.44087  0.74294  1.0000
  C   C1710     1.0  0.36889  0.49191  0.93055  1.0000
  P   P56       1.0  0.01434  0.43937  0.74265  1.0000
  C   C1711     1.0  0.47367  0.45939  0.98940  1.0000
  H   H1364     1.0  0.11909  0.49034  0.79381  1.0000
  H   H1365     1.0  0.01719  0.48850  0.80137  1.0000
  H   H1366     1.0  0.10209  0.48818  0.76591  1.0000
  H   H1367     1.0  0.01790  0.48941  0.85044  1.0000
  C   C1712     1.0  0.27891  0.45585  0.99082  1.0000
  C   C1713     1.0  0.03748  0.48884  0.86949  1.0000
  H   H1368     1.0  0.12005  0.48932  0.90613  1.0000
  C   C1714     1.0  0.09495  0.44218  0.74193  1.0000
  C   C1715     1.0  0.49417  0.25932  0.89445  1.0000
  H   H1369     1.0  0.00808  0.48967  0.87592  1.0000
  S   S242      1.0  0.13381  0.49027  0.92311  1.0000
  C   C1716     1.0  0.05825  0.48916  0.80366  1.0000
  H   H1370     1.0  0.02765  0.48808  0.90898  1.0000
  C   C1717     1.0  0.06069  0.40835  0.74171  1.0000
  H   H1371     1.0  0.00636  0.49141  0.91786  1.0000
  Fe  Fe128     1.0  0.06682  0.48971  0.85837  1.0000
  H   H1372     1.0  0.04876  0.49052  0.80590  1.0000
  H   H1373     1.0  0.14608  0.49019  0.88390  1.0000
  C   C1718     1.0  0.11677  0.49212  0.89818  1.0000
  H   H1374     1.0  0.25806  0.49160  0.98733  1.0000
  C   C1719     1.0  0.25354  0.49197  0.98075  1.0000
  H   H1375     1.0  0.02454  0.49204  0.76643  1.0000
  C   C1720     1.0  0.43034  0.49180  0.89448  1.0000
  H   H1376     1.0  0.06609  0.49190  0.88543  1.0000
  H   H1377     1.0  0.06277  0.37806  0.74127  1.0000
  C   C1721     1.0  0.33489  0.49235  0.95870  1.0000
  S   S243      1.0  0.47641  0.62183  0.99201  1.0000
  C   C1722     1.0  0.14573  0.60982  0.00235  1.0000
  H   H1378     1.0  0.14521  0.54498  0.00136  1.0000
  Fe  Fe129     1.0  0.10879  0.49255  0.03534  1.0000
  C   C1723     1.0  0.48366  0.71354  0.06410  1.0000
  Fe  Fe130     1.0  0.27482  0.55510  0.02144  1.0000
  S   S244      1.0  0.28075  0.53897  0.01399  1.0000
  S   S245      1.0  0.25572  0.56428  0.02578  1.0000
  Fe  Fe131     1.0  0.29999  0.55730  0.01820  1.0000
  S   S246      1.0  0.30796  0.54151  0.01028  1.0000
  S   S247      1.0  0.31047  0.56747  0.02246  1.0000
  C   C1724     1.0  0.38794  0.57413  0.00709  1.0000
  H   H1379     1.0  0.44653  0.72099  0.07259  1.0000
  Fe  Fe132     1.0  0.29459  0.53332  0.02456  1.0000
  S   S248      1.0  0.30006  0.51513  0.03520  1.0000
  S   S249      1.0  0.28662  0.56521  0.00713  1.0000
  S   S250      1.0  0.28754  0.54864  0.03331  1.0000
  Fe  Fe133     1.0  0.46992  0.68664  0.02191  1.0000
  S   S251      1.0  0.45647  0.68346  0.03867  1.0000
  C   C1725     1.0  0.16211  0.50084  0.04953  1.0000
  Fe  Fe134     1.0  0.45445  0.70980  0.01238  1.0000
  S   S252      1.0  0.43984  0.70841  0.02835  1.0000
  C   C1726     1.0  0.48702  0.60989  0.01751  1.0000
  Fe  Fe135     1.0  0.45422  0.70256  0.03820  1.0000
  H   H1380     1.0  0.49090  0.71760  0.00611  1.0000
  Fe  Fe136     1.0  0.44354  0.68952  0.02705  1.0000
  S   S253      1.0  0.42868  0.68088  0.02938  1.0000
  S   S254      1.0  0.46863  0.70523  0.02231  1.0000
  S   S255      1.0  0.45703  0.69141  0.01026  1.0000
  Fe  Fe137     1.0  0.20947  0.53995  0.01495  1.0000
  C   C1727     1.0  0.48810  0.70527  0.03809  1.0000
  S   S256      1.0  0.22186  0.53282  0.02718  1.0000
  Fe  Fe138     1.0  0.18379  0.54681  0.01306  1.0000
  H   H1381     1.0  0.39120  0.54714  0.02521  1.0000
  S   S257      1.0  0.16547  0.55075  0.02404  1.0000
  H   H1382     1.0  0.47977  0.68884  0.99839  1.0000
  H   H1383     1.0  0.26350  0.58000  0.99671  1.0000
  H   H1384     1.0  0.99982  0.59184  0.19937  1.0000
  C   C1728     1.0  0.40581  0.72804  0.01695  1.0000
  S   S258      1.0  0.19650  0.52960  0.01603  1.0000
  S   S259      1.0  0.19620  0.55694  0.01383  1.0000
  C   C1729     1.0  0.17754  0.60594  0.99783  1.0000
  S   S260      1.0  0.06400  0.50409  0.18235  1.0000
  S   S261      1.0  0.03630  0.49552  0.20515  1.0000
  H   H1385     1.0  0.09228  0.51348  0.05712  1.0000
  H   H1386     1.0  0.11330  0.53911  0.04455  1.0000
  H   H1387     1.0  0.38350  0.68987  0.00282  1.0000
  Fe  Fe139     1.0  0.06128  0.52343  0.18043  1.0000
  S   S262      1.0  0.07464  0.53091  0.18377  1.0000
  H   H1388     1.0  0.25900  0.54667  0.00337  1.0000
  H   H1389     1.0  0.15151  0.56569  0.00273  1.0000
  C   C1730     1.0  0.44882  0.72716  0.06445  1.0000
  H   H1390     1.0  0.19285  0.59201  0.00035  1.0000
  S   S263      1.0  0.04300  0.49531  0.11595  1.0000
  C   C1731     1.0  0.12997  0.61980  0.01589  1.0000
  P   P57       1.0  0.48968  0.63060  0.02156  1.0000
  C   C1732     1.0  0.46578  0.73342  0.08456  1.0000
  S   S264      1.0  0.12736  0.52570  0.02244  1.0000
  C   C1733     1.0  1.00000  0.54663  0.17414  1.0000
  H   H1391     1.0  0.11750  0.50077  0.99280  1.0000
  H   H1392     1.0  0.39246  0.58124  0.00307  1.0000
  C   C1734     1.0  0.23691  0.50489  0.04704  1.0000
  C   C1735     1.0  0.26561  0.51553  0.99675  1.0000
  C   C1736     1.0  0.30289  0.59038  0.99686  1.0000
  C   C1737     1.0  0.00408  0.52149  0.14394  1.0000
  C   C1738     1.0  0.04668  0.55215  0.22235  1.0000
  H   H1393     1.0  0.07297  0.49349  0.09353  1.0000
  H   H1394     1.0  0.48192  0.66960  0.99516  1.0000
  C   C1739     1.0  0.00021  0.56076  0.19984  1.0000
  H   H1395     1.0  0.30602  0.61788  0.99434  1.0000
  H   H1396     1.0  0.24902  0.56749  0.00236  1.0000
  C   C1740     1.0  0.07713  0.52925  0.19781  1.0000
  C   C1741     1.0  0.49311  0.73526  0.00371  1.0000
  H   H1397     1.0  0.16429  0.62147  0.99293  1.0000
  C   C1742     1.0  0.01648  0.51709  0.12559  1.0000
  H   H1398     1.0  0.09213  0.53703  0.19037  1.0000
  H   H1399     1.0  0.22249  0.51070  0.06066  1.0000
  H   H1400     1.0  0.39835  0.49828  0.02679  1.0000
  H   H1401     1.0  0.00750  0.50908  0.23258  1.0000
  C   C1743     1.0  0.40277  0.62307  0.99138  1.0000
  H   H1402     1.0  0.10369  0.52564  0.04071  1.0000
  H   H1403     1.0  0.02881  0.55396  0.23203  1.0000
  H   H1404     1.0  0.27444  0.52388  0.03942  1.0000
  S   S265      1.0  0.44318  0.62456  0.99342  1.0000
  C   C1744     1.0  0.27168  0.49686  0.05597  1.0000
  C   C1745     1.0  0.32721  0.56894  0.00138  1.0000
  H   H1405     1.0  0.17696  0.60542  0.02185  1.0000
  H   H1406     1.0  0.32866  0.52439  0.05342  1.0000
  S   S266      1.0  0.04060  0.51004  0.17151  1.0000
  Fe  Fe140     1.0  0.04450  0.50718  0.18909  1.0000
  C   C1746     1.0  0.34677  0.50767  0.03426  1.0000
  H   H1407     1.0  0.40416  0.61806  0.99995  1.0000
  C   C1747     1.0  0.21764  0.50659  0.00594  1.0000
  Fe  Fe141     1.0  0.12794  0.50644  0.02575  1.0000
  S   S267      1.0  0.45328  0.70864  0.05439  1.0000
  C   C1748     1.0  0.00711  0.51455  0.12301  1.0000
  H   H1408     1.0  0.21792  0.51521  0.00647  1.0000
  C   C1749     1.0  0.15534  0.54319  0.02368  1.0000
  C   C1750     1.0  0.15885  0.53204  0.02106  1.0000
  C   C1751     1.0  0.15035  0.52610  0.02130  1.0000
  C   C1752     1.0  0.13840  0.53167  0.02360  1.0000
  C   C1753     1.0  0.13502  0.54293  0.02591  1.0000
  C   C1754     1.0  0.14341  0.54854  0.02624  1.0000
  H   H1409     1.0  0.16808  0.52804  0.01889  1.0000
  H   H1410     1.0  0.15304  0.51743  0.01940  1.0000
  H   H1411     1.0  0.12585  0.54743  0.02732  1.0000
  H   H1412     1.0  0.14067  0.55719  0.02818  1.0000
  C   C1755     1.0  0.10813  0.53397  0.05182  1.0000
  C   C1756     1.0  0.18065  0.49411  0.03028  1.0000
  C   C1757     1.0  0.33798  0.51262  0.00178  1.0000
  H   H1413     1.0  0.20126  0.49897  0.03310  1.0000
  C   C1758     1.0  0.13767  0.50952  0.05522  1.0000
  C   C1759     1.0  0.33816  0.58252  0.00812  1.0000
  C   C1760     1.0  0.01325  0.52192  0.21743  1.0000
  Fe  Fe142     1.0  0.05989  0.50880  0.16458  1.0000
  C   C1761     1.0  0.03468  0.55318  0.22360  1.0000
  C   C1762     1.0  0.24615  0.55560  0.02640  1.0000
  C   C1763     1.0  0.24981  0.54338  0.02872  1.0000
  C   C1764     1.0  0.24229  0.53650  0.02883  1.0000
  C   C1765     1.0  0.23115  0.54179  0.02648  1.0000
  C   C1766     1.0  0.22744  0.55402  0.02415  1.0000
  C   C1767     1.0  0.23488  0.56092  0.02427  1.0000
  H   H1414     1.0  0.25836  0.53923  0.03062  1.0000
  H   H1415     1.0  0.24514  0.52708  0.03060  1.0000
  H   H1416     1.0  0.21877  0.55811  0.02251  1.0000
  H   H1417     1.0  0.20492  0.59007  0.02042  1.0000
  S   S268      1.0  0.07069  0.49751  0.15176  1.0000
  C   C1768     1.0  0.30663  0.60983  0.99183  1.0000
  C   C1769     1.0  0.38497  0.49605  0.00583  1.0000
  H   H1418     1.0  0.44536  0.65831  0.99784  1.0000
  C   C1770     1.0  0.33179  0.52046  0.04582  1.0000
  C   C1771     1.0  0.43753  0.66241  0.00343  1.0000
  C   C1772     1.0  0.43849  0.66799  0.01179  1.0000
  C   C1773     1.0  0.42830  0.67352  0.01889  1.0000
  C   C1774     1.0  0.41729  0.67326  0.01772  1.0000
  H   H1419     1.0  0.06262  0.52130  0.20788  1.0000
  H   H1420     1.0  0.40508  0.51525  0.01225  1.0000
  H   H1421     1.0  0.44705  0.66805  0.01271  1.0000
  H   H1422     1.0  0.40940  0.67740  0.02321  1.0000
  H   H1423     1.0  0.34551  0.55608  0.06844  1.0000
  H   H1424     1.0  0.21781  0.60405  0.01585  1.0000
  H   H1425     1.0  0.05336  0.49324  0.09186  1.0000
  C   C1775     1.0  0.25478  0.52097  0.99370  1.0000
  C   C1776     1.0  0.32281  0.57192  0.01240  1.0000
  C   C1777     1.0  0.32835  0.57868  0.01571  1.0000
  C   C1778     1.0  0.32069  0.52058  0.99336  1.0000
  C   C1779     1.0  0.15030  0.54497  0.99250  1.0000
  C   C1780     1.0  0.99601  0.51590  0.13069  1.0000
  H   H1426     1.0  0.32495  0.58108  0.02416  1.0000
  H   H1427     1.0  0.34224  0.58792  0.01073  1.0000
  H   H1428     1.0  0.47225  0.73802  0.06586  1.0000
  C   C1781     1.0  0.30017  0.49914  0.01026  1.0000
  C   C1782     1.0  0.29856  0.50765  0.01661  1.0000
  C   C1783     1.0  0.30104  0.50434  0.02775  1.0000
  H   H1429     1.0  0.07733  0.49419  0.20718  1.0000
  P   P58       1.0  0.17777  0.49528  0.04531  1.0000
  H   H1430     1.0  0.40218  0.51099  0.99450  1.0000
  H   H1431     1.0  0.29585  0.51680  0.01267  1.0000
  H   H1432     1.0  0.27699  0.59027  0.99924  1.0000
  H   H1433     1.0  0.08920  0.49553  0.10603  1.0000
  C   C1784     1.0  0.16638  0.58671  0.99934  1.0000
  C   C1785     1.0  0.34602  0.56034  0.04992  1.0000
  C   C1786     1.0  0.05377  0.50654  0.13871  1.0000
  H   H1434     1.0  0.09586  0.53632  0.20948  1.0000
  H   H1435     1.0  0.01780  0.58183  0.17599  1.0000
  H   H1436     1.0  0.36549  0.52114  0.03866  1.0000
  C   C1787     1.0  0.38919  0.52778  0.01744  1.0000
  C   C1788     1.0  0.38877  0.68537  0.99589  1.0000
  S   S269      1.0  0.08418  0.52906  0.23297  1.0000
  H   H1437     1.0  0.08364  0.50028  0.12554  1.0000
  C   C1789     1.0  0.05030  0.55035  0.20226  1.0000
  C   C1790     1.0  0.05062  0.49605  0.12592  1.0000
  C   C1791     1.0  0.03035  0.55341  0.21397  1.0000
  H   H1438     1.0  0.06378  0.55007  0.21068  1.0000
  C   C1792     1.0  0.45223  0.72353  0.05382  1.0000
  S   S270      1.0  0.05850  0.52807  0.16199  1.0000
  H   H1439     1.0  0.47945  0.70341  0.04184  1.0000
  H   H1440     1.0  0.34829  0.51079  0.05031  1.0000
  H   H1441     1.0  0.37290  0.53395  0.04812  1.0000
  C   C1793     1.0  0.23236  0.58853  0.99456  1.0000
  H   H1442     1.0  0.04024  0.52629  0.22299  1.0000
  C   C1794     1.0  0.08649  0.53341  0.19838  1.0000
  C   C1795     1.0  0.02015  0.49708  0.16130  1.0000
  H   H1443     1.0  0.21227  0.49507  0.06254  1.0000
  C   C1796     1.0  0.07186  0.52437  0.21922  1.0000
  C   C1797     1.0  0.10836  0.49364  0.08641  1.0000
  H   H1444     1.0  0.06622  0.52086  0.22726  1.0000
  H   H1445     1.0  0.20953  0.57524  0.00841  1.0000
  C   C1798     1.0  0.36168  0.54351  0.00450  1.0000
  H   H1446     1.0  0.04300  0.50915  0.07814  1.0000
  S   S271      1.0  0.48697  0.67293  0.02023  1.0000
  C   C1799     1.0  0.01471  0.53345  0.21314  1.0000
  C   C1800     1.0  0.00656  0.56569  0.22476  1.0000
  C   C1801     1.0  0.37814  0.52963  0.02515  1.0000
  H   H1447     1.0  0.27441  0.50439  0.01028  1.0000
  C   C1802     1.0  0.37694  0.57511  0.00504  1.0000
  C   C1803     1.0  0.22504  0.58066  0.99725  1.0000
  C   C1804     1.0  0.17781  0.57239  0.03519  1.0000
  C   C1805     1.0  0.05750  0.50033  0.08648  1.0000
  C   C1806     1.0  0.21250  0.58974  0.01317  1.0000
  C   C1807     1.0  0.00985  0.49789  0.17011  1.0000
  S   S272      1.0  0.08950  0.49631  0.04380  1.0000
  C   C1808     1.0  0.15739  0.57160  0.99850  1.0000
  C   C1809     1.0  0.24472  0.51268  0.01319  1.0000
  C   C1810     1.0  0.32465  0.52286  0.03788  1.0000
  H   H1448     1.0  0.17049  0.57263  0.02112  1.0000
  C   C1811     1.0  0.17289  0.58982  0.02024  1.0000
  H   H1449     1.0  0.02679  0.49428  0.18642  1.0000
  H   H1450     1.0  0.10928  0.49919  0.09152  1.0000
  H   H1451     1.0  0.42397  0.71929  0.01248  1.0000
  H   H1452     1.0  0.49279  0.69558  0.01087  1.0000
  C   C1812     1.0  0.00541  0.52567  0.23697  1.0000
  C   C1813     1.0  0.22199  0.49676  0.01402  1.0000
  C   C1814     1.0  0.26734  0.51189  0.03484  1.0000
  C   C1815     1.0  0.18196  0.57879  0.04042  1.0000
  H   H1453     1.0  0.47452  0.71445  0.06411  1.0000
  C   C1816     1.0  0.14234  0.49743  0.05674  1.0000
  C   C1817     1.0  0.34641  0.54328  0.02232  1.0000
  C   C1818     1.0  0.48898  0.70478  0.07240  1.0000
  C   C1819     1.0  0.22964  0.59704  0.00128  1.0000
  C   C1820     1.0  0.39792  0.73835  0.01949  1.0000
  C   C1821     1.0  0.05164  0.50934  0.07878  1.0000
  H   H1454     1.0  0.32932  0.54317  0.02061  1.0000
  H   H1455     1.0  0.22536  0.49787  0.02085  1.0000
  C   C1822     1.0  0.03989  0.50828  0.22494  1.0000
  C   C1823     1.0  0.01652  0.57040  0.19317  1.0000
  H   H1456     1.0  0.02420  0.57217  0.19455  1.0000
  H   H1457     1.0  0.16421  0.49871  0.99822  1.0000
  H   H1458     1.0  0.48176  0.72153  0.02684  1.0000
  C   C1824     1.0  0.37123  0.56580  0.00985  1.0000
  S   S273      1.0  0.45434  0.72641  0.99851  1.0000
  H   H1459     1.0  0.04420  0.50815  0.21586  1.0000
  C   C1825     1.0  0.00171  0.52715  0.19277  1.0000
  H   H1460     1.0  0.46361  0.72547  0.08429  1.0000
  C   C1826     1.0  0.13436  0.61670  0.00498  1.0000
  H   H1461     1.0  0.38855  0.73888  0.02159  1.0000
  C   C1827     1.0  0.24437  0.51957  0.00194  1.0000
  H   H1462     1.0  0.37845  0.50124  0.03979  1.0000
  H   H1463     1.0  0.32280  0.51964  0.02217  1.0000
  C   C1828     1.0  0.09848  0.49651  0.08153  1.0000
  H   H1464     1.0  0.40260  0.72056  0.01707  1.0000
  H   H1465     1.0  0.48607  0.72774  0.04914  1.0000
  C   C1829     1.0  0.22059  0.49544  0.05633  1.0000
  H   H1466     1.0  0.13352  0.61835  0.03266  1.0000
  C   C1830     1.0  0.13695  0.61601  0.02418  1.0000
  H   H1467     1.0  0.45767  0.72888  0.03502  1.0000
  H   H1468     1.0  0.32287  0.56384  0.99871  1.0000
  C   C1831     1.0  0.01178  0.52934  0.18432  1.0000
  C   C1832     1.0  0.26643  0.49349  0.04897  1.0000
  C   C1833     1.0  0.03831  0.55138  0.20348  1.0000
  H   H1469     1.0  0.35527  0.50161  0.03314  1.0000
  C   C1834     1.0  0.15282  0.60599  0.01061  1.0000
  P   P59       1.0  0.08797  0.51019  0.08250  1.0000
  Fe  Fe143     1.0  0.20240  0.53303  0.99646  1.0000
  C   C1835     1.0  0.36119  0.54757  0.03837  1.0000
  C   C1836     1.0  0.42640  0.66250  0.00213  1.0000
  S   S274      1.0  0.12028  0.49732  0.04380  1.0000
  C   C1837     1.0  0.41788  0.72731  0.01441  1.0000
  H   H1470     1.0  0.41126  0.63645  0.99118  1.0000
  S   S275      1.0  0.11543  0.50283  0.01746  1.0000
  C   C1838     1.0  0.05692  0.51856  0.07196  1.0000
  C   C1839     1.0  0.10068  0.52779  0.07273  1.0000
  C   C1840     1.0  0.17333  0.57788  0.02513  1.0000
  C   C1841     1.0  0.22632  0.50424  0.05526  1.0000
  C   C1842     1.0  0.25553  0.50716  0.01628  1.0000
  H   H1471     1.0  0.14767  0.51561  0.00165  1.0000
  C   C1843     1.0  0.39654  0.51655  0.01821  1.0000
  C   C1844     1.0  0.48292  0.72951  0.99248  1.0000
  C   C1845     1.0  0.34210  0.54261  0.00435  1.0000
  H   H1472     1.0  0.36089  0.51842  0.00847  1.0000
  H   H1473     1.0  0.45918  0.73159  0.10321  1.0000
  C   C1846     1.0  0.03234  0.51868  0.24068  1.0000
  H   H1474     1.0  0.26575  0.51788  0.02673  1.0000
  C   C1847     1.0  0.36044  0.50043  0.00990  1.0000
  H   H1475     1.0  0.48391  0.69895  0.07892  1.0000
  C   C1848     1.0  0.26598  0.50864  0.00801  1.0000
  C   C1849     1.0  0.03772  0.51851  0.22896  1.0000
  H   H1476     1.0  0.23655  0.51169  0.01943  1.0000
  P   P60       1.0  0.01477  0.55554  0.21540  1.0000
  H   H1477     1.0  0.02497  0.51616  0.11954  1.0000
  H   H1478     1.0  0.15282  0.57980  0.01316  1.0000
  H   H1479     1.0  0.07804  0.53222  0.09057  1.0000
  C   C1850     1.0  0.07635  0.52780  0.10925  1.0000
  C   C1851     1.0  0.25278  0.56434  0.99432  1.0000
  H   H1480     1.0  0.22698  0.57398  0.99223  1.0000
  H   H1481     1.0  0.05170  0.51435  0.14216  1.0000
  C   C1852     1.0  0.41635  0.66792  0.00932  1.0000
  C   C1853     1.0  0.34278  0.57939  0.99724  1.0000
  H   H1482     1.0  0.32176  0.50673  0.00872  1.0000
  H   H1483     1.0  0.18483  0.59566  0.03965  1.0000
  C   C1854     1.0  0.09499  0.52031  0.07060  1.0000
  H   H1484     1.0  0.01610  0.51587  0.21157  1.0000
  C   C1855     1.0  0.06988  0.52452  0.20826  1.0000
  C   C1856     1.0  0.00848  0.51806  0.22931  1.0000
  H   H1485     1.0  0.00300  0.52395  0.15216  1.0000
  C   C1857     1.0  0.01150  0.57449  0.22553  1.0000
  H   H1486     1.0  0.05236  0.52556  0.06600  1.0000
  H   H1487     1.0  0.17822  0.56310  0.03876  1.0000
  C   C1858     1.0  0.32643  0.51264  0.00186  1.0000
  H   H1488     1.0  0.38238  0.51473  0.00404  1.0000
  H   H1489     1.0  0.31596  0.52860  0.03933  1.0000
  C   C1859     1.0  0.38151  0.50869  0.03369  1.0000
  C   C1860     1.0  0.27218  0.51539  0.04207  1.0000
  S   S276      1.0  0.04208  0.52617  0.18887  1.0000
  C   C1861     1.0  0.03656  0.49823  0.23259  1.0000
  C   C1862     1.0  0.38726  0.55479  0.01937  1.0000
  C   C1863     1.0  0.21313  0.49399  0.99636  1.0000
  C   C1864     1.0  0.39272  0.50701  0.02636  1.0000
  C   C1865     1.0  0.00267  0.57427  0.18093  1.0000
  H   H1490     1.0  0.02870  0.49259  0.14452  1.0000
  H   H1491     1.0  0.44557  0.74140  0.07298  1.0000
  H   H1492     1.0  0.41853  0.68909  0.99126  1.0000
  C   C1866     1.0  0.01165  0.54113  0.22079  1.0000
  H   H1493     1.0  0.23203  0.57038  0.02252  1.0000
  H   H1494     1.0  0.27871  0.51047  0.05783  1.0000
  C   C1867     1.0  0.49130  0.59893  0.01448  1.0000
  C   C1868     1.0  0.25847  0.55253  0.99492  1.0000
  H   H1495     1.0  0.24118  0.51179  0.04640  1.0000
  C   C1869     1.0  0.01279  0.57608  0.18273  1.0000
  H   H1496     1.0  0.01847  0.53628  0.20390  1.0000
  C   C1870     1.0  0.17710  0.59621  0.02554  1.0000
  C   C1871     1.0  0.08475  0.51365  0.09673  1.0000
  C   C1872     1.0  0.15843  0.50228  0.99215  1.0000
  P   P61       1.0  0.25630  0.49704  0.03013  1.0000
  H   H1497     1.0  0.39443  0.49425  0.00440  1.0000
  H   H1498     1.0  0.37065  0.54376  0.99982  1.0000
  H   H1499     1.0  0.43830  0.71491  0.99486  1.0000
  C   C1873     1.0  0.14833  0.60912  0.02157  1.0000
  H   H1500     1.0  0.10042  0.52811  0.08160  1.0000
  C   C1874     1.0  0.10714  0.53468  0.06335  1.0000
  C   C1875     1.0  0.26438  0.50092  0.03827  1.0000
  H   H1501     1.0  0.05642  0.54895  0.19409  1.0000
  C   C1876     1.0  0.06258  0.49695  0.14217  1.0000
  C   C1877     1.0  0.37822  0.50748  0.00574  1.0000
  C   C1878     1.0  0.08277  0.50725  0.11783  1.0000
  H   H1502     1.0  0.07186  0.52614  0.06771  1.0000
  C   C1879     1.0  0.08121  0.52875  0.21968  1.0000
  C   C1880     1.0  0.09615  0.51957  0.05898  1.0000
  C   C1881     1.0  0.06866  0.50046  0.08735  1.0000
  C   C1882     1.0  0.07967  0.52523  0.09809  1.0000
  H   H1503     1.0  0.11157  0.54042  0.06500  1.0000
  H   H1504     1.0  0.15351  0.60621  0.02818  1.0000
  C   C1883     1.0  0.18156  0.59071  0.03562  1.0000
  C   C1884     1.0  0.49314  0.64160  0.00843  1.0000
  C   C1885     1.0  0.07407  0.50962  0.08045  1.0000
  H   H1505     1.0  0.17343  0.51153  0.06084  1.0000
  P   P62       1.0  0.16742  0.59701  0.00704  1.0000
  H   H1506     1.0  0.03529  0.55068  0.19618  1.0000
  C   C1886     1.0  0.10266  0.52641  0.04965  1.0000
  C   C1887     1.0  0.15826  0.57952  0.00445  1.0000
  H   H1507     1.0  0.36270  0.53920  0.06719  1.0000
  H   H1508     1.0  0.04996  0.55227  0.22971  1.0000
  H   H1509     1.0  0.07232  0.53672  0.11031  1.0000
  C   C1888     1.0  0.08603  0.50463  0.10672  1.0000
  H   H1510     1.0  0.99983  0.57856  0.17279  1.0000
  C   C1889     1.0  0.08859  0.53303  0.20922  1.0000
  C   C1890     1.0  0.48804  0.66119  0.99650  1.0000
  C   C1891     1.0  0.34393  0.52023  0.99268  1.0000
  H   H1511     1.0  0.49031  0.61632  0.04497  1.0000
  H   H1512     1.0  0.12823  0.51286  0.05718  1.0000
  H   H1513     1.0  0.04148  0.51373  0.12743  1.0000
  S   S277      1.0  0.42439  0.65673  0.99121  1.0000
  H   H1514     1.0  0.02223  0.52254  0.13807  1.0000
  H   H1515     1.0  0.48527  0.59450  0.01335  1.0000
  S   S278      1.0  0.21629  0.54220  0.99552  1.0000
  C   C1892     1.0  0.99627  0.56679  0.18958  1.0000
  H   H1516     1.0  0.00238  0.51953  0.19990  1.0000
  C   C1893     1.0  0.21975  0.59761  0.01057  1.0000
  C   C1894     1.0  0.36601  0.50962  0.00801  1.0000
  C   C1895     1.0  0.33735  0.57252  0.99386  1.0000
  H   H1517     1.0  0.34336  0.54319  0.03158  1.0000
  H   H1518     1.0  0.33578  0.54258  0.99964  1.0000
  C   C1896     1.0  0.33844  0.54292  0.01621  1.0000
  C   C1897     1.0  0.47391  0.63451  0.02696  1.0000
  C   C1898     1.0  0.46639  0.63543  0.01970  1.0000
  C   C1899     1.0  0.45429  0.63977  0.02310  1.0000
  C   C1900     1.0  0.44961  0.64362  0.03361  1.0000
  C   C1901     1.0  0.45702  0.64297  0.04080  1.0000
  C   C1902     1.0  0.46913  0.63846  0.03750  1.0000
  H   H1519     1.0  0.34869  0.56268  0.03128  1.0000
  H   H1520     1.0  0.29863  0.50185  0.00148  1.0000
  Fe  Fe144     1.0  0.29345  0.54862  0.00045  1.0000
  C   C1903     1.0  0.00020  0.49428  0.16928  1.0000
  H   H1521     1.0  0.40155  0.56329  0.01598  1.0000
  C   C1904     1.0  0.27451  0.50784  0.05253  1.0000
  C   C1905     1.0  0.39307  0.56399  0.01430  1.0000
  P   P63       1.0  0.36852  0.54407  0.02426  1.0000
  H   H1522     1.0  0.36273  0.56673  0.00811  1.0000
  C   C1906     1.0  0.49481  0.61610  0.01824  1.0000
  C   C1907     1.0  0.30202  0.60079  0.00007  1.0000
  H   H1523     1.0  0.23521  0.60312  0.99949  1.0000
  H   H1524     1.0  0.12894  0.61959  0.99856  1.0000
  S   S279      1.0  0.18841  0.54951  0.99342  1.0000
  C   C1908     1.0  0.37422  0.51996  0.03306  1.0000
  H   H1525     1.0  0.46993  0.63318  0.01118  1.0000
  H   H1526     1.0  0.44859  0.64046  0.01741  1.0000
  H   H1527     1.0  0.44027  0.64740  0.03602  1.0000
  H   H1528     1.0  0.45341  0.64631  0.04876  1.0000
  H   H1529     1.0  0.47473  0.63857  0.04294  1.0000
  C   C1909     1.0  0.33967  0.51017  0.02616  1.0000
  C   C1910     1.0  0.46324  0.73692  0.09519  1.0000
  H   H1530     1.0  0.35290  0.52028  0.99216  1.0000
  C   C1911     1.0  0.01041  0.56248  0.20167  1.0000
  C   C1912     1.0  0.48540  0.65266  0.00660  1.0000
  C   C1913     1.0  0.35172  0.55737  0.03910  1.0000
  H   H1531     1.0  0.33861  0.56782  0.05041  1.0000
  C   C1914     1.0  0.07793  0.51881  0.11912  1.0000
  C   C1915     1.0  0.06805  0.51878  0.07287  1.0000
  H   H1532     1.0  0.00941  0.50141  0.17752  1.0000
  C   C1916     1.0  0.01101  0.53919  0.17508  1.0000
  C   C1917     1.0  0.35373  0.54278  0.99851  1.0000
  P   P64       1.0  0.34463  0.50326  0.01371  1.0000
  H   H1533     1.0  0.02016  0.52345  0.18510  1.0000
  H   H1534     1.0  0.47736  0.65486  0.01300  1.0000
  H   H1535     1.0  0.37292  0.58302  0.99952  1.0000
  C   C1918     1.0  0.04796  0.50616  0.13040  1.0000
  C   C1919     1.0  0.00716  0.53709  0.23276  1.0000
  C   C1920     1.0  0.45507  0.73162  0.04329  1.0000
  C   C1921     1.0  0.37646  0.55548  0.01686  1.0000
  C   C1922     1.0  0.18435  0.50295  0.00946  1.0000
  C   C1923     1.0  0.18231  0.50384  0.02111  1.0000
  C   C1924     1.0  0.38714  0.67450  0.99578  1.0000
  C   C1925     1.0  0.48913  0.72661  0.00131  1.0000
  C   C1926     1.0  0.49019  0.72102  0.05563  1.0000
  C   C1927     1.0  0.18625  0.50466  0.04653  1.0000
  H   H1536     1.0  0.29792  0.60173  0.00901  1.0000
  C   C1928     1.0  0.15733  0.51299  0.04782  1.0000
  C   C1929     1.0  0.14517  0.51729  0.05073  1.0000
  H   H1537     1.0  0.07512  0.52071  0.12783  1.0000
  C   C1930     1.0  0.15449  0.49311  0.05367  1.0000
  C   C1931     1.0  0.00519  0.58234  0.23280  1.0000
  C   C1932     1.0  0.18190  0.51171  0.05488  1.0000
  C   C1933     1.0  0.18843  0.51921  0.05548  1.0000
  C   C1934     1.0  0.19944  0.51950  0.04794  1.0000
  C   C1935     1.0  0.20403  0.51208  0.04001  1.0000
  C   C1936     1.0  0.19753  0.50462  0.03935  1.0000
  C   C1937     1.0  0.35956  0.54419  0.05936  1.0000
  Fe  Fe145     1.0  0.20184  0.55838  0.99440  1.0000
  H   H1538     1.0  0.40775  0.66801  0.00837  1.0000
  C   C1938     1.0  0.34285  0.51283  0.04403  1.0000
  C   C1939     1.0  0.34991  0.55373  0.06007  1.0000
  H   H1539     1.0  0.16371  0.52988  0.99760  1.0000
  S   S280      1.0  0.02385  0.54230  0.16500  1.0000
  H   H1540     1.0  0.02031  0.57521  0.22069  1.0000
  H   H1541     1.0  0.18586  0.51043  0.00240  1.0000
  H   H1542     1.0  0.18228  0.51201  0.02296  1.0000
  C   C1940     1.0  0.21297  0.50527  0.99725  1.0000
  H   H1543     1.0  0.16295  0.51919  0.04394  1.0000
  H   H1544     1.0  0.14155  0.52668  0.04914  1.0000
  C   C1941     1.0  0.35804  0.54387  0.01644  1.0000
  C   C1942     1.0  0.36526  0.54116  0.04854  1.0000
  H   H1545     1.0  0.29951  0.58331  0.00334  1.0000
  H   H1546     1.0  0.39211  0.53492  0.01064  1.0000
  H   H1547     1.0  0.18492  0.52491  0.06168  1.0000
  H   H1548     1.0  0.20446  0.52543  0.04822  1.0000
  H   H1549     1.0  0.21263  0.51221  0.03425  1.0000
  Fe  Fe146     1.0  0.03943  0.52894  0.17068  1.0000
  C   C1943     1.0  0.05446  0.55092  0.21163  1.0000
  C   C1944     1.0  0.01495  0.52066  0.13601  1.0000
  H   H1550     1.0  0.18556  0.57447  0.04813  1.0000
  C   C1945     1.0  0.32857  0.51775  0.02809  1.0000
  C   C1946     1.0  0.21513  0.58133  0.00647  1.0000
  H   H1551     1.0  0.12115  0.62510  0.01794  1.0000
  H   H1552     1.0  0.23599  0.52382  0.99964  1.0000
  H   H1553     1.0  0.38066  0.67054  0.00264  1.0000
  H   H1554     1.0  0.02761  0.49979  0.16200  1.0000
  H   H1555     1.0  0.06919  0.49614  0.06245  1.0000
  C   C1947     1.0  0.02078  0.49301  0.15144  1.0000
  C   C1948     1.0  0.26323  0.58903  0.99207  1.0000
  C   C1949     1.0  0.24200  0.49663  0.03990  1.0000
  C   C1950     1.0  0.27093  0.59484  0.99356  1.0000
  H   H1556     1.0  0.00865  0.51145  0.11507  1.0000
  C   C1951     1.0  0.18965  0.60105  0.99620  1.0000
  H   H1557     1.0  0.43151  0.73591  0.01266  1.0000
  C   C1952     1.0  0.47076  0.74040  0.07418  1.0000
  H   H1558     1.0  0.47768  0.61350  0.01894  1.0000
  C   C1953     1.0  0.14911  0.51188  0.99411  1.0000
  H   H1559     1.0  0.31162  0.52085  0.99370  1.0000
  C   C1954     1.0  0.42212  0.73682  0.01449  1.0000
  C   C1955     1.0  0.17357  0.61751  0.99196  1.0000
  H   H1560     1.0  0.00928  0.58872  0.23379  1.0000
  H   H1561     1.0  0.00524  0.54265  0.23890  1.0000
  H   H1562     1.0  0.43500  0.69043  0.99832  1.0000
  H   H1563     1.0  0.99937  0.55424  0.16697  1.0000
  C   C1956     1.0  0.48948  0.71549  0.02952  1.0000
  H   H1564     1.0  0.14900  0.60746  0.99385  1.0000
  C   C1957     1.0  0.44830  0.73872  0.06468  1.0000
  H   H1565     1.0  0.03603  0.54342  0.37397  1.0000
  C   C1958     1.0  0.06073  0.62459  0.43141  1.0000
  H   H1566     1.0  0.12310  0.66621  0.46673  1.0000
  H   H1567     1.0  0.02094  0.56977  0.44346  1.0000
  Fe  Fe147     1.0  0.99593  0.55084  0.36651  1.0000
  C   C1959     1.0  0.14269  0.69221  0.37221  1.0000
  C   C1960     1.0  0.01187  0.54753  0.29123  1.0000
  C   C1961     1.0  0.01227  0.64722  0.36647  1.0000
  S   S281      1.0  0.10807  0.73389  0.47938  1.0000
  S   S282      1.0  0.11725  0.63418  0.47003  1.0000
  H   H1568     1.0  0.07678  0.66079  0.46004  1.0000
  S   S283      1.0  0.02159  0.53529  0.33258  1.0000
  C   C1962     1.0  0.06671  0.63243  0.42278  1.0000
  H   H1569     1.0  0.00503  0.56734  0.31342  1.0000
  Fe  Fe148     1.0  0.02954  0.60863  0.42998  1.0000
  S   S284      1.0  0.03537  0.60693  0.41111  1.0000
  S   S285      1.0  0.03959  0.59628  0.44336  1.0000
  Fe  Fe149     1.0  0.00973  0.62961  0.42512  1.0000
  S   S286      1.0  0.01381  0.62986  0.40591  1.0000
  H   H1570     1.0  0.00820  0.51825  0.32718  1.0000
  Fe  Fe150     1.0  0.01624  0.61024  0.41128  1.0000
  S   S287      1.0  0.00715  0.60044  0.40431  1.0000
  Fe  Fe151     1.0  0.03258  0.62660  0.40712  1.0000
  S   S288      1.0  0.04527  0.63490  0.39191  1.0000
  S   S289      1.0  0.01057  0.61024  0.43061  1.0000
  S   S290      1.0  0.02835  0.62805  0.42590  1.0000
  C   C1963     1.0  0.00208  0.61692  0.36449  1.0000
  C   C1964     1.0  0.10429  0.73576  0.37339  1.0000
  C   C1965     1.0  0.05451  0.49673  0.30365  1.0000
  Fe  Fe152     1.0  0.06174  0.53495  0.27370  1.0000
  S   S291      1.0  0.04331  0.53407  0.27524  1.0000
  S   S292      1.0  0.06485  0.53922  0.28933  1.0000
  Fe  Fe153     1.0  0.05141  0.51878  0.26660  1.0000
  C   C1966     1.0  0.13765  0.65825  0.45470  1.0000
  Fe  Fe154     1.0  0.04513  0.54511  0.25712  1.0000
  S   S293      1.0  0.06990  0.51865  0.26641  1.0000
  S   S294      1.0  0.06307  0.54726  0.25601  1.0000
  C   C1967     1.0  0.06828  0.65880  0.46420  1.0000
  H   H1571     1.0  0.03578  0.56526  0.29220  1.0000
  C   C1968     1.0  0.01886  0.54217  0.25903  1.0000
  H   H1572     1.0  0.08659  0.58634  0.48381  1.0000
  C   C1969     1.0  0.99637  0.55663  0.26214  1.0000
  C   C1970     1.0  0.00716  0.73886  0.48771  1.0000
  C   C1971     1.0  0.12338  0.70383  0.47432  1.0000
  C   C1972     1.0  0.01359  0.55894  0.28723  1.0000
  H   H1573     1.0  0.07130  0.59384  0.44804  1.0000
  S   S295      1.0  0.01259  0.72660  0.44355  1.0000
  H   H1574     1.0  0.05782  0.54310  0.36663  1.0000
  H   H1575     1.0  0.10459  0.73613  0.45677  1.0000
  Fe  Fe155     1.0  0.07338  0.67790  0.40804  1.0000
  S   S296      1.0  0.07788  0.66758  0.42519  1.0000
  S   S297      1.0  0.07367  0.67068  0.39279  1.0000
  Fe  Fe156     1.0  0.07387  0.70119  0.41271  1.0000
  S   S298      1.0  0.07862  0.69291  0.43015  1.0000
  S   S299      1.0  0.07022  0.72051  0.40483  1.0000
  Fe  Fe157     1.0  0.09085  0.67868  0.42129  1.0000
  S   S300      1.0  0.10952  0.67024  0.42272  1.0000
  Fe  Fe158     1.0  0.06521  0.68263  0.43249  1.0000
  S   S301      1.0  0.05151  0.68050  0.44904  1.0000
  S   S302      1.0  0.08735  0.68803  0.40356  1.0000
  S   S303      1.0  0.05947  0.69195  0.41569  1.0000
  C   C1973     1.0  0.02384  0.71450  0.44673  1.0000
  C   C1974     1.0  0.03536  0.71453  0.44046  1.0000
  C   C1975     1.0  0.04408  0.70415  0.44154  1.0000
  C   C1976     1.0  0.04129  0.69387  0.44915  1.0000
  C   C1977     1.0  0.02991  0.69407  0.45599  1.0000
  C   C1978     1.0  0.02113  0.70433  0.45455  1.0000
  H   H1576     1.0  0.03734  0.72235  0.43422  1.0000
  H   H1577     1.0  0.05286  0.70402  0.43623  1.0000
  H   H1578     1.0  0.02774  0.68620  0.46198  1.0000
  H   H1579     1.0  0.01221  0.70433  0.45939  1.0000
  C   C1979     1.0  0.05233  0.64528  0.39279  1.0000
  C   C1980     1.0  0.06103  0.64863  0.38308  1.0000
  C   C1981     1.0  0.06723  0.65661  0.38323  1.0000
  C   C1982     1.0  0.06479  0.66142  0.39306  1.0000
  C   C1983     1.0  0.05571  0.65854  0.40264  1.0000
  C   C1984     1.0  0.04952  0.65036  0.40256  1.0000
  H   H1580     1.0  0.06316  0.64485  0.37548  1.0000
  H   H1581     1.0  0.07413  0.65890  0.37576  1.0000
  H   H1582     1.0  0.05360  0.66246  0.41015  1.0000
  H   H1583     1.0  0.04267  0.64795  0.41004  1.0000
  H   H1584     1.0  0.06901  0.54967  0.37663  1.0000
  C   C1985     1.0  0.04664  0.51451  0.37262  1.0000
  H   H1585     1.0  0.01590  0.58299  0.42514  1.0000
  C   C1986     1.0  0.01722  0.56671  0.43805  1.0000
  C   C1987     1.0  0.02139  0.55704  0.39659  1.0000
  C   C1988     1.0  0.09699  0.73983  0.40543  1.0000
  H   H1586     1.0  0.03959  0.58294  0.48523  1.0000
  C   C1989     1.0  0.04403  0.73720  0.48057  1.0000
  H   H1587     1.0  0.08549  0.63356  0.47248  1.0000
  C   C1990     1.0  0.09045  0.68390  0.45927  1.0000
  C   C1991     1.0  0.03320  0.53708  0.32026  1.0000
  C   C1992     1.0  0.03832  0.54677  0.31703  1.0000
  C   C1993     1.0  0.04804  0.54745  0.30747  1.0000
  C   C1994     1.0  0.05244  0.53862  0.30100  1.0000
  C   C1995     1.0  0.04713  0.52910  0.30413  1.0000
  C   C1996     1.0  0.03764  0.52827  0.31380  1.0000
  H   H1588     1.0  0.03488  0.55363  0.32194  1.0000
  H   H1589     1.0  0.05206  0.55488  0.30495  1.0000
  H   H1590     1.0  0.05050  0.52227  0.29918  1.0000
  H   H1591     1.0  0.03373  0.52076  0.31630  1.0000
  C   C1997     1.0  0.01932  0.58331  0.37229  1.0000
  C   C1998     1.0  0.02688  0.58873  0.37472  1.0000
  C   C1999     1.0  0.02338  0.59400  0.38451  1.0000
  C   C2000     1.0  0.01221  0.59402  0.39184  1.0000
  C   C2001     1.0  0.00624  0.56143  0.25948  1.0000
  C   C2002     1.0  0.00826  0.58318  0.37975  1.0000
  H   H1592     1.0  0.03547  0.58888  0.36901  1.0000
  H   H1593     1.0  0.02929  0.59808  0.38635  1.0000
  C   C2003     1.0  0.11968  0.58634  0.48007  1.0000
  H   H1594     1.0  0.01073  0.66207  0.38313  1.0000
  C   C2004     1.0  0.11460  0.64416  0.45701  1.0000
  C   C2005     1.0  0.12356  0.64399  0.44685  1.0000
  C   C2006     1.0  0.12196  0.65213  0.43641  1.0000
  C   C2007     1.0  0.11116  0.66005  0.43590  1.0000
  C   C2008     1.0  0.10194  0.65980  0.44585  1.0000
  C   C2009     1.0  0.10376  0.65209  0.45654  1.0000
  H   H1595     1.0  0.13189  0.63776  0.44715  1.0000
  H   H1596     1.0  0.12908  0.65221  0.42871  1.0000
  H   H1597     1.0  0.09349  0.66563  0.44528  1.0000
  H   H1598     1.0  0.09676  0.65211  0.46435  1.0000
  H   H1599     1.0  0.00394  0.67053  0.44471  1.0000
  H   H1600     1.0  0.15391  0.67283  0.43049  1.0000
  H   H1601     1.0  0.03005  0.51020  0.37472  1.0000
  H   H1602     1.0  0.05189  0.68407  0.48552  1.0000
  H   H1603     1.0  0.08107  0.60801  0.45015  1.0000
  C   C2010     1.0  0.02328  0.59497  0.48251  1.0000
  C   C2011     1.0  0.08796  0.68858  0.47797  1.0000
  H   H1604     1.0  0.00700  0.69907  0.48128  1.0000
  H   H1605     1.0  0.02149  0.73458  0.36064  1.0000
  H   H1606     1.0  0.01336  0.67771  0.45605  1.0000
  H   H1607     1.0  0.00673  0.53428  0.30630  1.0000
  C   C2012     1.0  0.01683  0.60185  0.47408  1.0000
  C   C2013     1.0  0.02176  0.60242  0.46204  1.0000
  C   C2014     1.0  0.03310  0.59591  0.45837  1.0000
  C   C2015     1.0  0.03944  0.58882  0.46682  1.0000
  H   H1608     1.0  0.08681  0.68174  0.45322  1.0000
  H   H1609     1.0  0.00804  0.60684  0.47687  1.0000
  H   H1610     1.0  0.01678  0.60786  0.45560  1.0000
  H   H1611     1.0  0.04816  0.58371  0.46404  1.0000
  H   H1612     1.0  0.99653  0.57600  0.27891  1.0000
  H   H1613     1.0  0.00882  0.60177  0.32760  1.0000
  C   C2016     1.0  0.13242  0.68304  0.47792  1.0000
  H   H1614     1.0  0.05828  0.49736  0.35044  1.0000
  H   H1615     1.0  0.07793  0.62841  0.45400  1.0000
  C   C2017     1.0  0.07071  0.63508  0.48705  1.0000
  H   H1616     1.0  0.01254  0.65078  0.44000  1.0000
  C   C2018     1.0  0.01750  0.55421  0.25770  1.0000
  C   C2019     1.0  0.01097  0.71640  0.39166  1.0000
  C   C2020     1.0  0.03141  0.61905  0.48587  1.0000
  C   C2021     1.0  0.02751  0.66231  0.45727  1.0000
  C   C2022     1.0  0.08634  0.51058  0.31983  1.0000
  H   H1617     1.0  0.01385  0.49845  0.36159  1.0000
  C   C2023     1.0  0.09943  0.72754  0.40842  1.0000
  C   C2024     1.0  0.09119  0.72151  0.40839  1.0000
  C   C2025     1.0  0.08070  0.72776  0.40494  1.0000
  C   C2026     1.0  0.01859  0.72953  0.36934  1.0000
  C   C2027     1.0  0.00763  0.55890  0.42391  1.0000
  H   H1618     1.0  0.10754  0.72272  0.41107  1.0000
  H   H1619     1.0  0.09288  0.71205  0.41106  1.0000
  C   C2028     1.0  0.01045  0.55145  0.43434  1.0000
  Fe  Fe159     1.0  0.01212  0.56786  0.35554  1.0000
  C   C2029     1.0  0.01178  0.66507  0.44759  1.0000
  H   H1620     1.0  0.06145  0.61934  0.46408  1.0000
  C   C2030     1.0  0.02210  0.58870  0.30432  1.0000
  C   C2031     1.0  0.06532  0.49942  0.29764  1.0000
  C   C2032     1.0  0.08880  0.72547  0.37745  1.0000
  C   C2033     1.0  0.02941  0.50854  0.24848  1.0000
  C   C2034     1.0  0.14678  0.74140  0.48651  1.0000
  H   H1621     1.0  0.06513  0.66818  0.47774  1.0000
  H   H1622     1.0  0.00197  0.52268  0.24625  1.0000
  C   C2035     1.0  0.07490  0.59214  0.45570  1.0000
  H   H1623     1.0  0.01702  0.56203  0.27797  1.0000
  H   H1624     1.0  0.10243  0.70755  0.44697  1.0000
  C   C2036     1.0  0.12288  0.59265  0.48621  1.0000
  C   C2037     1.0  0.02447  0.51498  0.29671  1.0000
  C   C2038     1.0  0.14722  0.67146  0.43846  1.0000
  H   H1625     1.0  0.05532  0.56242  0.27880  1.0000
  C   C2039     1.0  0.99990  0.69459  0.48436  1.0000
  P   P65       1.0  0.00410  0.49649  0.32406  1.0000
  H   H1626     1.0  0.06710  0.49333  0.27274  1.0000
  H   H1627     1.0  0.10773  0.58639  0.47007  1.0000
  H   H1628     1.0  0.09947  0.54472  0.34862  1.0000
  Fe  Fe160     1.0  0.99780  0.71966  0.44261  1.0000
  C   C2040     1.0  0.12591  0.69286  0.47137  1.0000
  H   H1629     1.0  0.03060  0.52664  0.24371  1.0000
  H   H1630     1.0  0.06574  0.56779  0.30953  1.0000
  C   C2041     1.0  0.99976  0.59697  0.31743  1.0000
  H   H1631     1.0  0.02789  0.74189  0.38127  1.0000
  H   H1632     1.0  0.00746  0.57619  0.41279  1.0000
  H   H1633     1.0  0.10225  0.72580  0.43200  1.0000
  H   H1634     1.0  0.00830  0.60276  0.35529  1.0000
  C   C2042     1.0  0.08506  0.54726  0.36344  1.0000
  C   C2043     1.0  0.09048  0.54402  0.35268  1.0000
  C   C2044     1.0  0.08420  0.54019  0.34702  1.0000
  C   C2045     1.0  0.07255  0.53923  0.35226  1.0000
  C   C2046     1.0  0.06704  0.54294  0.36284  1.0000
  P   P66       1.0  0.06407  0.53539  0.34449  1.0000
  C   C2047     1.0  0.05305  0.52790  0.35438  1.0000
  C   C2048     1.0  0.05803  0.54919  0.33568  1.0000
  C   C2049     1.0  0.04718  0.55619  0.34010  1.0000
  C   C2050     1.0  0.04301  0.56723  0.33343  1.0000
  C   C2051     1.0  0.04967  0.57140  0.32242  1.0000
  C   C2052     1.0  0.06056  0.56457  0.31807  1.0000
  C   C2053     1.0  0.06475  0.55353  0.32468  1.0000
  C   C2054     1.0  0.04294  0.52828  0.35081  1.0000
  C   C2055     1.0  0.03468  0.52195  0.35817  1.0000
  C   C2056     1.0  0.03651  0.51507  0.36906  1.0000
  C   C2057     1.0  0.03919  0.49763  0.34056  1.0000
  C   C2058     1.0  0.05493  0.52084  0.36528  1.0000
  C   C2059     1.0  0.07276  0.52543  0.33508  1.0000
  C   C2060     1.0  0.08310  0.51749  0.33759  1.0000
  H   H1635     1.0  0.06659  0.50372  0.28848  1.0000
  C   C2061     1.0  0.03457  0.58835  0.47884  1.0000
  H   H1636     1.0  0.13790  0.70641  0.44815  1.0000
  C   C2062     1.0  0.06898  0.52541  0.32521  1.0000
  C   C2063     1.0  0.00469  0.58863  0.38936  1.0000
  H   H1637     1.0  0.16083  0.68519  0.36480  1.0000
  H   H1638     1.0  0.00702  0.50215  0.25756  1.0000
  H   H1639     1.0  0.08839  0.53821  0.33845  1.0000
  H   H1640     1.0  0.12545  0.71340  0.48584  1.0000
  H   H1641     1.0  0.04199  0.55325  0.34873  1.0000
  H   H1642     1.0  0.03464  0.57263  0.33686  1.0000
  H   H1643     1.0  0.04646  0.57994  0.31729  1.0000
  C   C2064     1.0  0.10987  0.59128  0.47506  1.0000
  H   H1644     1.0  0.07328  0.54843  0.32118  1.0000
  H   H1645     1.0  0.04146  0.53343  0.34232  1.0000
  H   H1646     1.0  0.02678  0.52248  0.35543  1.0000
  C   C2065     1.0  0.15274  0.69128  0.36312  1.0000
  H   H1647     1.0  0.07148  0.60274  0.48921  1.0000
  C   C2066     1.0  0.00784  0.54322  0.30318  1.0000
  H   H1648     1.0  0.08594  0.51700  0.34541  1.0000
  H   H1649     1.0  0.02594  0.50869  0.25769  1.0000
  C   C2067     1.0  0.02789  0.50200  0.34667  1.0000
  Fe  Fe161     1.0  0.01215  0.54950  0.34270  1.0000
  H   H1650     1.0  0.06082  0.53115  0.32330  1.0000
  C   C2068     1.0  0.14178  0.70575  0.34963  1.0000
  C   C2069     1.0  0.15229  0.69808  0.35184  1.0000
  C   C2070     1.0  0.09254  0.73597  0.37427  1.0000
  H   H1651     1.0  0.00586  0.60641  0.28224  1.0000
  C   C2071     1.0  0.13219  0.70011  0.37011  1.0000
  C   C2072     1.0  0.13172  0.70670  0.35870  1.0000
  P   P67       1.0  0.11917  0.70071  0.38176  1.0000
  C   C2073     1.0  0.12268  0.70101  0.39512  1.0000
  H   H1652     1.0  0.00386  0.62800  0.46520  1.0000
  P   P68       1.0  0.12102  0.69151  0.45917  1.0000
  H   H1653     1.0  0.13688  0.64941  0.45942  1.0000
  H   H1654     1.0  0.04184  0.58998  0.25196  1.0000
  S   S304      1.0  0.99608  0.69554  0.41603  1.0000
  S   S305      1.0  0.05145  0.52974  0.24846  1.0000
  C   C2074     1.0  0.13191  0.70599  0.39469  1.0000
  C   C2075     1.0  0.13438  0.70647  0.40508  1.0000
  C   C2076     1.0  0.12762  0.70205  0.41592  1.0000
  C   C2077     1.0  0.11826  0.69733  0.41641  1.0000
  C   C2078     1.0  0.11570  0.69697  0.40604  1.0000
  C   C2079     1.0  0.11398  0.68783  0.38292  1.0000
  C   C2080     1.0  0.10743  0.68781  0.37510  1.0000
  C   C2081     1.0  0.10298  0.67802  0.37635  1.0000
  C   C2082     1.0  0.10536  0.66806  0.38515  1.0000
  C   C2083     1.0  0.11245  0.66776  0.39251  1.0000
  C   C2084     1.0  0.11688  0.67754  0.39132  1.0000
  H   H1655     1.0  0.14138  0.71089  0.34085  1.0000
  H   H1656     1.0  0.16006  0.69731  0.34479  1.0000
  H   H1657     1.0  0.00604  0.65488  0.36315  1.0000
  C   C2085     1.0  0.02089  0.59388  0.31366  1.0000
  H   H1658     1.0  0.12358  0.71248  0.35677  1.0000
  C   C2086     1.0  0.07811  0.57992  0.47446  1.0000
  C   C2087     1.0  0.02108  0.53873  0.38710  1.0000
  H   H1659     1.0  0.00552  0.62373  0.48581  1.0000
  H   H1660     1.0  0.02535  0.50553  0.31428  1.0000
  H   H1661     1.0  0.07699  0.57221  0.48138  1.0000
  H   H1662     1.0  0.13712  0.70962  0.38637  1.0000
  H   H1663     1.0  0.14146  0.71037  0.40474  1.0000
  H   H1664     1.0  0.12949  0.70242  0.42395  1.0000
  H   H1665     1.0  0.11292  0.69397  0.42480  1.0000
  H   H1666     1.0  0.10825  0.69353  0.40660  1.0000
  H   H1667     1.0  0.10550  0.69545  0.36823  1.0000
  H   H1668     1.0  0.09740  0.67820  0.37074  1.0000
  H   H1669     1.0  0.10153  0.66066  0.38639  1.0000
  H   H1670     1.0  0.11421  0.66009  0.39944  1.0000
  H   H1671     1.0  0.12229  0.67708  0.39719  1.0000
  H   H1672     1.0  0.02665  0.65603  0.35984  1.0000
  C   C2088     1.0  0.02948  0.58665  0.26847  1.0000
  C   C2089     1.0  0.01802  0.51857  0.28800  1.0000
  H   H1673     1.0  0.07124  0.63032  0.41432  1.0000
  C   C2090     1.0  0.11120  0.62606  0.44052  1.0000
  C   C2091     1.0  0.04737  0.69303  0.48263  1.0000
  C   C2092     1.0  0.03600  0.69537  0.48086  1.0000
  C   C2093     1.0  0.03013  0.70694  0.47719  1.0000
  C   C2094     1.0  0.03565  0.71613  0.47509  1.0000
  C   C2095     1.0  0.04704  0.71384  0.47689  1.0000
  C   C2096     1.0  0.05287  0.70224  0.48074  1.0000
  P   P69       1.0  0.05415  0.72585  0.47340  1.0000
  C   C2097     1.0  0.05798  0.73077  0.45760  1.0000
  C   C2098     1.0  0.02971  0.54523  0.38190  1.0000
  C   C2099     1.0  0.14626  0.66004  0.44442  1.0000
  C   C2100     1.0  0.13961  0.68108  0.44282  1.0000
  H   H1674     1.0  0.04569  0.66353  0.48753  1.0000
  H   H1675     1.0  0.05900  0.65507  0.43666  1.0000
  H   H1676     1.0  0.01274  0.52934  0.42188  1.0000
  C   C2101     1.0  0.08773  0.71633  0.48774  1.0000
  C   C2102     1.0  0.00341  0.66034  0.41930  1.0000
  C   C2103     1.0  0.07375  0.58201  0.46444  1.0000
  C   C2104     1.0  0.05850  0.72944  0.43786  1.0000
  C   C2105     1.0  0.05500  0.72575  0.45004  1.0000
  C   C2106     1.0  0.06729  0.72157  0.47914  1.0000
  H   H1677     1.0  0.13753  0.72477  0.43289  1.0000
  H   H1678     1.0  0.01317  0.73037  0.48868  1.0000
  H   H1679     1.0  0.07446  0.68454  0.47254  1.0000
  C   C2107     1.0  0.08857  0.71668  0.47597  1.0000
  C   C2108     1.0  0.07843  0.71905  0.47172  1.0000
  H   H1680     1.0  0.00553  0.53673  0.40036  1.0000
  H   H1681     1.0  0.03171  0.68823  0.48238  1.0000
  H   H1682     1.0  0.02137  0.70883  0.47573  1.0000
  H   H1683     1.0  0.03111  0.72499  0.47183  1.0000
  H   H1684     1.0  0.06164  0.70027  0.48222  1.0000
  C   C2109     1.0  0.02857  0.62804  0.37579  1.0000
  C   C2110     1.0  0.00912  0.50576  0.31015  1.0000
  H   H1685     1.0  0.03304  0.51693  0.29474  1.0000
  H   H1686     1.0  0.07231  0.49982  0.36019  1.0000
  H   H1687     1.0  0.14536  0.72891  0.47776  1.0000
  H   H1688     1.0  0.08988  0.55038  0.36775  1.0000
  C   C2111     1.0  0.00905  0.53744  0.26120  1.0000
  C   C2112     1.0  0.00538  0.55044  0.31112  1.0000
  H   H1689     1.0  0.05643  0.72543  0.43201  1.0000
  H   H1690     1.0  0.05021  0.71885  0.45341  1.0000
  H   H1691     1.0  0.04749  0.49885  0.29907  1.0000
  H   H1692     1.0  0.11415  0.61193  0.45518  1.0000
  H   H1693     1.0  0.03183  0.66601  0.46149  1.0000
  H   H1694     1.0  0.09712  0.71525  0.47009  1.0000
  H   H1695     1.0  0.07937  0.71907  0.46260  1.0000
  C   C2113     1.0  0.07942  0.61737  0.47945  1.0000
  H   H1696     1.0  0.07300  0.51855  0.30969  1.0000
  H   H1697     1.0  0.04969  0.62142  0.44851  1.0000
  C   C2114     1.0  0.02262  0.49503  0.35688  1.0000
  H   H1698     1.0  0.03830  0.72266  0.39109  1.0000
  Fe  Fe162     1.0  0.06933  0.53084  0.24876  1.0000
  C   C2115     1.0  0.07490  0.49302  0.35523  1.0000
  C   C2116     1.0  0.03098  0.74121  0.38899  1.0000
  C   C2117     1.0  0.07129  0.61182  0.48829  1.0000
  C   C2118     1.0  0.05994  0.64632  0.43550  1.0000
  C   C2119     1.0  0.05465  0.62746  0.44220  1.0000
  C   C2120     1.0  0.00874  0.63677  0.37281  1.0000
  C   C2121     1.0  0.05070  0.66042  0.47966  1.0000
  C   C2122     1.0  0.02666  0.64694  0.44869  1.0000
  C   C2123     1.0  0.01662  0.65401  0.44491  1.0000
  C   C2124     1.0  0.02394  0.64795  0.36462  1.0000
  C   C2125     1.0  0.05123  0.60910  0.47831  1.0000
  C   C2126     1.0  0.00963  0.57028  0.42072  1.0000
  C   C2127     1.0  0.10753  0.61830  0.45095  1.0000
  H   H1699     1.0  0.11824  0.71155  0.46959  1.0000
  H   H1700     1.0  0.07082  0.64390  0.48704  1.0000
  C   C2128     1.0  0.00735  0.68001  0.38467  1.0000
  C   C2129     1.0  0.00974  0.59797  0.32023  1.0000
  C   C2130     1.0  0.11010  0.72141  0.43541  1.0000
  C   C2131     1.0  0.03138  0.49825  0.24445  1.0000
  C   C2132     1.0  0.10208  0.68506  0.45621  1.0000
  C   C2133     1.0  0.99841  0.50463  0.33555  1.0000
  C   C2134     1.0  0.03232  0.65109  0.45474  1.0000
  C   C2135     1.0  0.11233  0.72502  0.37549  1.0000
  H   H1701     1.0  0.04807  0.50914  0.38106  1.0000
  C   C2136     1.0  0.09956  0.68984  0.47496  1.0000
  C   C2137     1.0  0.13660  0.68425  0.48699  1.0000
  S   S306      1.0  0.02991  0.56017  0.25382  1.0000
  H   H1702     1.0  0.00778  0.71141  0.40027  1.0000
  C   C2138     1.0  0.12001  0.72620  0.43122  1.0000
  S   S307      1.0  0.10625  0.65922  0.48773  1.0000
  H   H1703     1.0  0.06935  0.57585  0.46350  1.0000
  H   H1704     1.0  0.00236  0.57905  0.37801  1.0000
  H   H1705     1.0  0.10743  0.68368  0.44771  1.0000
  H   H1706     1.0  0.12135  0.72502  0.37498  1.0000
  C   C2139     1.0  0.99780  0.54472  0.26255  1.0000
  C   C2140     1.0  0.06491  0.73816  0.43316  1.0000
  H   H1707     1.0  0.00626  0.69691  0.38750  1.0000
  C   C2141     1.0  0.01440  0.57416  0.42773  1.0000
  C   C2142     1.0  0.01249  0.54148  0.39691  1.0000
  H   H1708     1.0  0.01021  0.52818  0.26172  1.0000
  C   C2143     1.0  0.10867  0.71441  0.37857  1.0000
  C   C2144     1.0  0.99627  0.50659  0.38654  1.0000
  H   H1709     1.0  0.00250  0.54705  0.32041  1.0000
  C   C2145     1.0  0.00242  0.59023  0.28132  1.0000
  C   C2146     1.0  0.13083  0.67933  0.45308  1.0000
  C   C2147     1.0  0.07332  0.54680  0.36847  1.0000
  H   H1710     1.0  0.02859  0.59468  0.31587  1.0000
  H   H1711     1.0  0.02327  0.51086  0.34352  1.0000
  H   H1712     1.0  0.02152  0.56438  0.39987  1.0000
  H   H1713     1.0  0.03618  0.55982  0.38227  1.0000
  C   C2148     1.0  0.04371  0.62929  0.46914  1.0000
  C   C2149     1.0  0.02981  0.55443  0.38659  1.0000
  H   H1714     1.0  0.07957  0.72567  0.37874  1.0000
  S   S308      1.0  0.01068  0.56897  0.33710  1.0000
  C   C2150     1.0  0.00091  0.59186  0.30809  1.0000
  H   H1715     1.0  0.03081  0.58550  0.29940  1.0000
  H   H1716     1.0  0.01741  0.54961  0.44939  1.0000
  C   C2151     1.0  0.01710  0.66912  0.45398  1.0000
  C   C2152     1.0  0.08043  0.60019  0.45698  1.0000
  P   P70       1.0  0.01323  0.58103  0.28954  1.0000
  C   C2153     1.0  0.13015  0.71045  0.44453  1.0000
  C   C2154     1.0  0.00384  0.67223  0.41552  1.0000
  C   C2155     1.0  0.05296  0.61931  0.46998  1.0000
  H   H1717     1.0  0.10147  0.61754  0.48335  1.0000
  H   H1718     1.0  0.00897  0.54266  0.43712  1.0000
  H   H1719     1.0  0.00992  0.65390  0.41488  1.0000
  C   C2156     1.0  0.01693  0.62726  0.37761  1.0000
  H   H1720     1.0  0.04543  0.72102  0.40882  1.0000
  C   C2157     1.0  0.01523  0.55536  0.44136  1.0000
  C   C2158     1.0  0.00690  0.56197  0.30710  1.0000
  C   C2159     1.0  0.10292  0.63467  0.43502  1.0000
  C   C2160     1.0  0.00763  0.49644  0.26605  1.0000
  C   C2161     1.0  0.09096  0.63541  0.43987  1.0000
  Fe  Fe163     1.0  0.10837  0.64060  0.48673  1.0000
  C   C2162     1.0  0.00695  0.51616  0.29041  1.0000
  C   C2163     1.0  0.06162  0.66312  0.47412  1.0000
  C   C2164     1.0  0.05258  0.64998  0.46458  1.0000
  H   H1721     1.0  0.15215  0.65257  0.44110  1.0000
  C   C2165     1.0  0.06635  0.64325  0.42486  1.0000
  H   H1722     1.0  0.11985  0.73419  0.42446  1.0000
  S   S309      1.0  0.01543  0.54819  0.36029  1.0000
  H   H1723     1.0  0.10578  0.64091  0.42712  1.0000
  H   H1724     1.0  0.12049  0.62563  0.43689  1.0000
  H   H1725     1.0  0.13426  0.67439  0.47618  1.0000
  C   C2166     1.0  0.08990  0.51014  0.32994  1.0000
  C   C2167     1.0  0.00249  0.50977  0.30145  1.0000
  C   C2168     1.0  0.08723  0.62766  0.45029  1.0000
  H   H1726     1.0  0.02749  0.53649  0.25823  1.0000
  H   H1727     1.0  0.09172  0.50508  0.31376  1.0000
  C   C2169     1.0  0.02767  0.57971  0.27991  1.0000
  H   H1728     1.0  0.01072  0.67485  0.40827  1.0000
  C   C2170     1.0  0.03683  0.73035  0.39455  1.0000
  P   P71       1.0  0.09065  0.60920  0.46954  1.0000
  C   C2171     1.0  0.14329  0.73808  0.47814  1.0000
  C   C2172     1.0  0.11027  0.71098  0.44394  1.0000
  H   H1729     1.0  0.10289  0.69213  0.48119  1.0000
  H   H1730     1.0  0.99880  0.52208  0.37284  1.0000
  C   C2173     1.0  0.99784  0.52055  0.34416  1.0000
  C   C2174     1.0  0.09676  0.71474  0.37983  1.0000
  C   C2175     1.0  0.06380  0.65225  0.45944  1.0000
  C   C2176     1.0  0.07582  0.51814  0.31753  1.0000
  C   C2177     1.0  0.04085  0.72946  0.40451  1.0000
  C   C2178     1.0  0.08361  0.58795  0.47578  1.0000
  H   H1731     1.0  0.09345  0.70683  0.38304  1.0000
  C   C2179     1.0  0.11629  0.60390  0.48730  1.0000
  H   H1732     1.0  0.09798  0.50415  0.33177  1.0000
  H   H1733     1.0  0.06284  0.52011  0.36808  1.0000
  H   H1734     1.0  0.03479  0.62079  0.37979  1.0000
  H   H1735     1.0  0.04323  0.50342  0.33295  1.0000
  C   C2180     1.0  0.05456  0.63821  0.44451  1.0000
  H   H1736     1.0  0.06905  0.64927  0.45166  1.0000
  H   H1737     1.0  0.12485  0.57766  0.47915  1.0000
  H   H1738     1.0  0.07075  0.64943  0.41802  1.0000
  P   P72       1.0  0.04609  0.64229  0.45820  1.0000
  H   H1739     1.0  0.99680  0.64516  0.35080  1.0000
  S   S310      1.0  0.02383  0.57709  0.35970  1.0000
  C   C2181     1.0  0.10662  0.68835  0.46394  1.0000
  C   C2182     1.0  0.02008  0.50855  0.30773  1.0000
  H   H1740     1.0  0.01054  0.61923  0.36178  1.0000
  C   C2183     1.0  0.02151  0.71168  0.38444  1.0000
  C   C2184     1.0  0.02519  0.71829  0.37316  1.0000
  P   P73       1.0  0.02981  0.69698  0.38921  1.0000
  C   C2185     1.0  0.02905  0.69332  0.40483  1.0000
  C   C2186     1.0  0.02409  0.68639  0.38589  1.0000
  C   C2187     1.0  0.03125  0.67531  0.38454  1.0000
  C   C2188     1.0  0.02646  0.66666  0.38334  1.0000
  C   C2189     1.0  0.01450  0.66897  0.38351  1.0000
  C   C2190     1.0  0.01271  0.55051  0.40191  1.0000
  C   C2191     1.0  0.01211  0.68869  0.38589  1.0000
  C   C2192     1.0  0.03129  0.68151  0.41078  1.0000
  C   C2193     1.0  0.03130  0.67858  0.42272  1.0000
  C   C2194     1.0  0.02900  0.68741  0.42882  1.0000
  C   C2195     1.0  0.02667  0.69917  0.42303  1.0000
  C   C2196     1.0  0.02684  0.70214  0.41106  1.0000
  C   C2197     1.0  0.04508  0.69637  0.38198  1.0000
  C   C2198     1.0  0.04971  0.69296  0.37116  1.0000
  C   C2199     1.0  0.06149  0.69274  0.36556  1.0000
  C   C2200     1.0  0.06866  0.69612  0.37060  1.0000
  C   C2201     1.0  0.06403  0.69976  0.38123  1.0000
  C   C2202     1.0  0.05232  0.69983  0.38691  1.0000
  H   H1741     1.0  0.08461  0.64212  0.43560  1.0000
  C   C2203     1.0  0.08341  0.68562  0.47014  1.0000
  H   H1742     1.0  0.03313  0.71479  0.36729  1.0000
  H   H1743     1.0  0.04042  0.67313  0.38495  1.0000
  H   H1744     1.0  0.03193  0.65801  0.38272  1.0000
  H   H1745     1.0  0.05817  0.60122  0.47863  1.0000
  C   C2204     1.0  0.10639  0.60878  0.48245  1.0000
  C   C2205     1.0  0.12998  0.72083  0.43590  1.0000
  H   H1746     1.0  0.03307  0.67449  0.40629  1.0000
  H   H1747     1.0  0.03308  0.66945  0.42726  1.0000
  H   H1748     1.0  0.02908  0.68514  0.43803  1.0000
  H   H1749     1.0  0.02471  0.70601  0.42781  1.0000
  H   H1750     1.0  0.02524  0.71130  0.40679  1.0000
  H   H1751     1.0  0.04426  0.69042  0.36709  1.0000
  H   H1752     1.0  0.06512  0.68977  0.35740  1.0000
  H   H1753     1.0  0.07784  0.69568  0.36643  1.0000
  H   H1754     1.0  0.06961  0.70215  0.38531  1.0000
  H   H1755     1.0  0.04899  0.70246  0.39524  1.0000
  H   H1756     1.0  0.14067  0.68978  0.43817  1.0000
  H   H1757     1.0  0.02235  0.59317  0.26522  1.0000
  C   C2206     1.0  0.03293  0.62919  0.47725  1.0000
  H   H1758     1.0  0.05838  0.57462  0.25867  1.0000
  C   C2207     1.0  0.09549  0.61908  0.45596  1.0000
  H   H1759     1.0  0.02574  0.63687  0.47695  1.0000
  C   C2208     1.0  0.04628  0.65370  0.47502  1.0000
  C   C2209     1.0  0.12041  0.70527  0.44842  1.0000
  C   C2210     1.0  0.10302  0.60246  0.47640  1.0000
  H   H1760     1.0  0.01425  0.61933  0.38300  1.0000
  H   H1761     1.0  0.04106  0.63900  0.36812  1.0000
  H   H1762     1.0  0.02170  0.52311  0.27931  1.0000
  H   H1763     1.0  0.03013  0.63833  0.44665  1.0000
  C   C2211     1.0  0.07906  0.62912  0.47888  1.0000
  C   C2212     1.0  0.04814  0.56930  0.27599  1.0000
  C   C2213     1.0  0.04057  0.60907  0.48640  1.0000
  C   C2214     1.0  0.04055  0.58487  0.26088  1.0000
  H   H1764     1.0  0.03778  0.65171  0.47937  1.0000
  S   S311      1.0  0.04226  0.50387  0.27323  1.0000
  H   H1765     1.0  0.14308  0.68672  0.38087  1.0000
  C   C2215     1.0  0.03209  0.63836  0.36925  1.0000
  H   H1766     1.0  0.06051  0.61641  0.42964  1.0000
  C   C2216     1.0  0.01092  0.56632  0.29508  1.0000
  C   C2217     1.0  0.12982  0.66783  0.45886  1.0000
  C   C2218     1.0  0.09730  0.74205  0.46114  1.0000
  C   C2219     1.0  0.03708  0.57098  0.28358  1.0000
  C   C2220     1.0  0.01208  0.58772  0.30144  1.0000
  C   C2221     1.0  0.04988  0.57620  0.26464  1.0000
  C   C2222     1.0  0.08474  0.59822  0.46709  1.0000
  H   H1767     1.0  0.00480  0.51163  0.43158  1.0000
  C   C2223     1.0  0.99885  0.52016  0.43013  1.0000
  C   C2224     1.0  0.06477  0.73921  0.45273  1.0000
  H   H1768     1.0  0.00194  0.51903  0.28363  1.0000
  C   C2225     1.0  0.07455  0.49638  0.30337  1.0000
  C   C2226     1.0  0.00207  0.51478  0.33483  1.0000
  P   P74       1.0  0.00152  0.55406  0.41460  1.0000
  H   H1769     1.0  0.13049  0.58888  0.49007  1.0000
  C   C2227     1.0  0.00823  0.73421  0.37671  1.0000
  H   H1770     1.0  0.04272  0.73862  0.41632  1.0000
  C   C2228     1.0  0.00075  0.60249  0.27905  1.0000
  H   H1771     1.0  0.02070  0.53187  0.38325  1.0000
  H   H1772     1.0  0.99800  0.68169  0.38524  1.0000
  C   C2229     1.0  0.00141  0.63250  0.48182  1.0000
  C   C2230     1.0  0.13416  0.69520  0.48978  1.0000
  H   H1773     1.0  0.00518  0.57070  0.25874  1.0000
  C   C2231     1.0  0.00331  0.53020  0.42463  1.0000
  H   H1774     1.0  0.00065  0.52836  0.34359  1.0000
  H   H1775     1.0  0.00022  0.50050  0.38078  1.0000
  H   H1776     1.0  0.08242  0.68992  0.48637  1.0000
  C   C2232     1.0  0.00082  0.60763  0.36065  1.0000
  C   C2233     1.0  0.00443  0.72763  0.38787  1.0000
  H   H1777     1.0  0.01379  0.54208  0.28497  1.0000
  C   C2234     1.0  0.12749  0.70496  0.48350  1.0000
  H   H1778     1.0  0.99602  0.58871  0.39491  1.0000
  H   H1779     1.0  0.06753  0.74106  0.42376  1.0000
  H   H1780     1.0  0.99635  0.73116  0.39363  1.0000
  C   C2235     1.0  0.07853  0.74000  0.40139  1.0000
  H   H1781     1.0  0.08296  0.49834  0.29855  1.0000
  H   H1782     1.0  0.02484  0.74135  0.45017  1.0000
  C   C2236     1.0  0.00048  0.63487  0.47015  1.0000
  C   C2237     1.0  0.09656  0.74248  0.47268  1.0000
  C   C2238     1.0  0.03916  0.73946  0.40885  1.0000
  S   S312      1.0  0.99737  0.70073  0.44555  1.0000
  C   C2239     1.0  0.99682  0.64136  0.48829  1.0000
  C   C2240     1.0  0.99815  0.49805  0.27560  1.0000
  H   H1783     1.0  0.00808  0.54054  0.69825  1.0000
  S   S313      1.0  0.10943  0.73173  0.52936  1.0000
  H   H1784     1.0  0.04830  0.50457  0.62104  1.0000
  H   H1785     1.0  0.11097  0.67840  0.50692  1.0000
  H   H1786     1.0  0.02009  0.54723  0.59333  1.0000
  H   H1787     1.0  0.03526  0.70068  0.51881  1.0000
  S   S314      1.0  0.12608  0.70022  0.52604  1.0000
  H   H1788     1.0  0.03832  0.64763  0.50826  1.0000
  H   H1789     1.0  0.09217  0.55088  0.70740  1.0000
  H   H1790     1.0  0.10922  0.52474  0.71450  1.0000
  C   C2241     1.0  0.03998  0.72207  0.54641  1.0000
  C   C2242     1.0  0.10070  0.52517  0.71312  1.0000
  C   C2243     1.0  0.07876  0.52619  0.70937  1.0000
  H   H1791     1.0  0.02861  0.57093  0.69466  1.0000
  C   C2244     1.0  0.01694  0.70893  0.56886  1.0000
  Fe  Fe164     1.0  0.05215  0.58390  0.51718  1.0000
  S   S315      1.0  0.03618  0.59887  0.51763  1.0000
  S   S316      1.0  0.07086  0.58573  0.50970  1.0000
  Fe  Fe165     1.0  0.03801  0.56513  0.52745  1.0000
  S   S317      1.0  0.02091  0.57849  0.52874  1.0000
  S   S318      1.0  0.03735  0.54596  0.53272  1.0000
  Fe  Fe166     1.0  0.02876  0.58775  0.51075  1.0000
  H   H1792     1.0  0.05124  0.52624  0.60421  1.0000
  Fe  Fe167     1.0  0.02972  0.58828  0.53544  1.0000
  S   S319      1.0  0.02002  0.59405  0.55231  1.0000
  S   S320      1.0  0.04524  0.57363  0.50890  1.0000
  S   S321      1.0  0.04629  0.57418  0.53556  1.0000
  C   C2245     1.0  0.05703  0.50693  0.63304  1.0000
  H   H1793     1.0  0.07197  0.52826  0.72730  1.0000
  H   H1794     1.0  0.03580  0.62709  0.51388  1.0000
  C   C2246     1.0  0.07899  0.55772  0.72132  1.0000
  S   S322      1.0  0.00963  0.68807  0.53381  1.0000
  C   C2247     1.0  0.01452  0.54296  0.62415  1.0000
  C   C2248     1.0  0.06105  0.57302  0.67505  1.0000
  S   S323      1.0  0.01327  0.66083  0.53135  1.0000
  H   H1795     1.0  0.02289  0.55900  0.55038  1.0000
  Fe  Fe168     1.0  0.01706  0.66991  0.54303  1.0000
  S   S324      1.0  0.03511  0.66396  0.54669  1.0000
  C   C2249     1.0  0.07973  0.52711  0.72035  1.0000
  H   H1796     1.0  0.04664  0.69656  0.57949  1.0000
  C   C2250     1.0  0.02274  0.70424  0.50818  1.0000
  H   H1797     1.0  0.00770  0.57295  0.58757  1.0000
  C   C2251     1.0  0.01903  0.63176  0.50914  1.0000
  Fe  Fe169     1.0  0.09770  0.63307  0.51291  1.0000
  C   C2252     1.0  0.07390  0.56208  0.66059  1.0000
  S   S325      1.0  0.08991  0.61951  0.52756  1.0000
  H   H1798     1.0  0.07025  0.52667  0.70791  1.0000
  C   C2253     1.0  0.03878  0.55533  0.59602  1.0000
  S   S326      1.0  0.09022  0.63939  0.49694  1.0000
  H   H1799     1.0  0.09882  0.60855  0.50776  1.0000
  C   C2254     1.0  0.11682  0.68808  0.51585  1.0000
  H   H1800     1.0  0.01171  0.53716  0.58389  1.0000
  S   S327      1.0  0.09524  0.65104  0.51602  1.0000
  C   C2255     1.0  0.06968  0.50139  0.73714  1.0000
  S   S328      1.0  0.09917  0.72081  0.51321  1.0000
  C   C2256     1.0  0.08296  0.55474  0.71036  1.0000
  Fe  Fe170     1.0  0.02973  0.49573  0.61741  1.0000
  C   C2257     1.0  0.05653  0.56251  0.57015  1.0000
  H   H1801     1.0  0.06659  0.54360  0.68675  1.0000
  H   H1802     1.0  0.04809  0.68326  0.50599  1.0000
  C   C2258     1.0  0.05900  0.50342  0.64443  1.0000
  S   S329      1.0  0.08684  0.50136  0.67157  1.0000
  S   S330      1.0  0.99658  0.74180  0.56249  1.0000
  C   C2259     1.0  0.04508  0.66532  0.53310  1.0000
  H   H1803     1.0  0.01026  0.55129  0.53593  1.0000
  H   H1804     1.0  0.07121  0.58015  0.54720  1.0000
  C   C2260     1.0  0.05153  0.71157  0.56641  1.0000
  C   C2261     1.0  0.08875  0.52516  0.70018  1.0000
  C   C2262     1.0  0.05592  0.65732  0.53150  1.0000
  H   H1805     1.0  0.00410  0.52561  0.65779  1.0000
  C   C2263     1.0  0.00657  0.55720  0.52875  1.0000
  C   C2264     1.0  0.06665  0.55180  0.68031  1.0000
  H   H1806     1.0  0.05807  0.65002  0.53860  1.0000
  C   C2265     1.0  0.03771  0.55875  0.60645  1.0000
  H   H1807     1.0  0.06828  0.58092  0.65721  1.0000
  C   C2266     1.0  0.02805  0.50123  0.70241  1.0000
  H   H1808     1.0  0.05891  0.49656  0.60012  1.0000
  S   S331      1.0  0.05171  0.51688  0.58046  1.0000
  C   C2267     1.0  0.07332  0.55159  0.66892  1.0000
  H   H1809     1.0  0.06136  0.51338  0.62662  1.0000
  C   C2268     1.0  0.07587  0.59516  0.51490  1.0000
  C   C2269     1.0  0.06938  0.59966  0.52480  1.0000
  C   C2270     1.0  0.07372  0.60710  0.52874  1.0000
  C   C2271     1.0  0.08431  0.61041  0.52252  1.0000
  C   C2272     1.0  0.09062  0.60609  0.51250  1.0000
  C   C2273     1.0  0.08654  0.59832  0.50884  1.0000
  H   H1810     1.0  0.06111  0.59733  0.52947  1.0000
  H   H1811     1.0  0.06879  0.61044  0.53649  1.0000
  C   C2274     1.0  0.02222  0.55650  0.55976  1.0000
  H   H1812     1.0  0.04990  0.56769  0.72168  1.0000
  C   C2275     1.0  0.01195  0.60857  0.55196  1.0000
  C   C2276     1.0  0.03702  0.50185  0.73776  1.0000
  C   C2277     1.0  0.00218  0.61067  0.56110  1.0000
  H   H1813     1.0  0.04156  0.55236  0.72254  1.0000
  H   H1814     1.0  0.08512  0.55614  0.72684  1.0000
  C   C2278     1.0  0.01490  0.61794  0.54285  1.0000
  C   C2279     1.0  0.03670  0.59676  0.70109  1.0000
  H   H1815     1.0  0.00011  0.56767  0.55604  1.0000
  H   H1816     1.0  0.01016  0.63660  0.53581  1.0000
  H   H1817     1.0  0.02254  0.61638  0.53584  1.0000
  C   C2280     1.0  0.04184  0.53780  0.54574  1.0000
  C   C2281     1.0  0.06292  0.61784  0.49635  1.0000
  C   C2282     1.0  0.04798  0.52484  0.56705  1.0000
  C   C2283     1.0  0.05241  0.53482  0.56092  1.0000
  C   C2284     1.0  0.04925  0.54136  0.55033  1.0000
  C   C2285     1.0  0.04640  0.53881  0.61519  1.0000
  H   H1818     1.0  0.05815  0.53758  0.56443  1.0000
  H   H1819     1.0  0.05260  0.54910  0.54571  1.0000
  H   H1820     1.0  0.05726  0.71060  0.54276  1.0000
  H   H1821     1.0  0.02217  0.74029  0.50507  1.0000
  Fe  Fe171     1.0  0.03691  0.50905  0.59269  1.0000
  C   C2286     1.0  0.06419  0.57749  0.55440  1.0000
  C   C2287     1.0  0.00924  0.56859  0.72460  1.0000
  H   H1822     1.0  0.99806  0.52247  0.72282  1.0000
  S   S332      1.0  0.01946  0.51141  0.58873  1.0000
  Fe  Fe172     1.0  0.00446  0.67882  0.52312  1.0000
  C   C2288     1.0  0.12535  0.68786  0.52168  1.0000
  C   C2289     1.0  0.13396  0.67760  0.52380  1.0000
  C   C2290     1.0  0.13443  0.66779  0.51973  1.0000
  H   H1823     1.0  0.02311  0.55438  0.51622  1.0000
  C   C2291     1.0  0.05039  0.71721  0.53910  1.0000
  H   H1824     1.0  0.03384  0.56770  0.60735  1.0000
  H   H1825     1.0  0.14056  0.67737  0.52830  1.0000
  C   C2292     1.0  0.99686  0.60764  0.52861  1.0000
  C   C2293     1.0  0.06296  0.56085  0.70739  1.0000
  C   C2294     1.0  0.07500  0.55621  0.70346  1.0000
  C   C2295     1.0  0.05352  0.58552  0.55686  1.0000
  C   C2296     1.0  0.06708  0.56245  0.72526  1.0000
  C   C2297     1.0  0.99968  0.58988  0.73180  1.0000
  C   C2298     1.0  0.09075  0.52648  0.72226  1.0000
  H   H1826     1.0  0.04463  0.54062  0.58737  1.0000
  C   C2299     1.0  0.05347  0.70139  0.57518  1.0000
  P   P75       1.0  0.99669  0.63822  0.50376  1.0000
  H   H1827     1.0  0.07387  0.55970  0.55893  1.0000
  C   C2300     1.0  0.04335  0.72941  0.52197  1.0000
  C   C2301     1.0  0.03768  0.52764  0.55172  1.0000
  C   C2302     1.0  0.02916  0.63416  0.51032  1.0000
  C   C2303     1.0  0.04430  0.55140  0.70437  1.0000
  C   C2304     1.0  0.03981  0.54836  0.71651  1.0000
  C   C2305     1.0  0.03289  0.54005  0.72108  1.0000
  C   C2306     1.0  0.03067  0.53445  0.71363  1.0000
  C   C2307     1.0  0.03505  0.53744  0.70155  1.0000
  C   C2308     1.0  0.04164  0.54603  0.69689  1.0000
  S   S333      1.0  0.06112  0.51823  0.67872  1.0000
  H   H1828     1.0  0.06031  0.71752  0.52137  1.0000
  H   H1829     1.0  0.11014  0.69597  0.51415  1.0000
  H   H1830     1.0  0.01100  0.68332  0.56867  1.0000
  C   C2309     1.0  0.01599  0.54416  0.57861  1.0000
  H   H1831     1.0  0.02577  0.52761  0.71718  1.0000
  H   H1832     1.0  0.03352  0.53285  0.69585  1.0000
  H   H1833     1.0  0.04467  0.54833  0.68748  1.0000
  H   H1834     1.0  0.07177  0.51033  0.59521  1.0000
  H   H1835     1.0  0.07837  0.55344  0.69520  1.0000
  S   S334      1.0  0.02932  0.51476  0.60976  1.0000
  C   C2310     1.0  0.01017  0.72208  0.52016  1.0000
  C   C2311     1.0  0.99859  0.52744  0.55967  1.0000
  C   C2312     1.0  0.02925  0.70608  0.56529  1.0000
  C   C2313     1.0  0.02279  0.58879  0.69664  1.0000
  C   C2314     1.0  0.03489  0.69496  0.56285  1.0000
  H   H1836     1.0  0.05659  0.58142  0.67730  1.0000
  C   C2315     1.0  0.02345  0.72668  0.58110  1.0000
  H   H1837     1.0  0.02291  0.73406  0.54683  1.0000
  C   C2316     1.0  0.04493  0.58608  0.70088  1.0000
  H   H1838     1.0  0.03200  0.52482  0.54818  1.0000
  H   H1839     1.0  0.99861  0.51503  0.63087  1.0000
  Fe  Fe173     1.0  0.01197  0.51542  0.60655  1.0000
  C   C2317     1.0  0.06384  0.65854  0.52058  1.0000
  H   H1840     1.0  0.00037  0.60631  0.59660  1.0000
  Fe  Fe174     1.0  0.07814  0.51287  0.68451  1.0000
  C   C2318     1.0  0.01122  0.55729  0.63974  1.0000
  Fe  Fe175     1.0  0.06926  0.50511  0.66727  1.0000
  H   H1841     1.0  0.01924  0.60639  0.69923  1.0000
  H   H1842     1.0  0.01825  0.62274  0.51154  1.0000
  H   H1843     1.0  0.10739  0.52407  0.69499  1.0000
  C   C2319     1.0  0.01192  0.65240  0.50132  1.0000
  H   H1844     1.0  0.03603  0.72494  0.49523  1.0000
  C   C2320     1.0  0.01186  0.58596  0.72860  1.0000
  C   C2321     1.0  0.05909  0.56403  0.71836  1.0000
  C   C2322     1.0  0.02562  0.59811  0.69901  1.0000
  H   H1845     1.0  0.01420  0.51506  0.70858  1.0000
  C   C2323     1.0  0.06040  0.56250  0.68346  1.0000
  H   H1846     1.0  0.05780  0.55349  0.57494  1.0000
  H   H1847     1.0  0.05223  0.59437  0.55154  1.0000
  C   C2324     1.0  0.09967  0.52475  0.70208  1.0000
  H   H1848     1.0  0.02389  0.71613  0.52981  1.0000
  H   H1849     1.0  0.05352  0.58526  0.70235  1.0000
  H   H1850     1.0  0.00093  0.70290  0.57305  1.0000
  H   H1851     1.0  0.03137  0.56916  0.55960  1.0000
  C   C2325     1.0  0.07116  0.71391  0.56461  1.0000
  H   H1852     1.0  0.00548  0.72904  0.52479  1.0000
  H   H1853     1.0  0.99710  0.53748  0.54239  1.0000
  H   H1854     1.0  0.04476  0.73264  0.51256  1.0000
  H   H1855     1.0  0.06577  0.68962  0.58533  1.0000
  H   H1856     1.0  0.07192  0.65202  0.51928  1.0000
  H   H1857     1.0  0.01227  0.71765  0.57013  1.0000
  H   H1858     1.0  0.07926  0.56189  0.65183  1.0000
  C   C2326     1.0  0.02831  0.68678  0.56416  1.0000
  C   C2327     1.0  0.02714  0.70624  0.51667  1.0000
  S   S335      1.0  0.01709  0.59508  0.49751  1.0000
  C   C2328     1.0  0.02083  0.54987  0.58393  1.0000
  S   S336      1.0  0.03896  0.50662  0.70465  1.0000
  H   H1859     1.0  0.14139  0.66003  0.52110  1.0000
  C   C2329     1.0  0.06772  0.57279  0.66364  1.0000
  H   H1860     1.0  0.00677  0.55858  0.61294  1.0000
  H   H1861     1.0  0.03374  0.68047  0.52488  1.0000
  C   C2330     1.0  0.00603  0.52457  0.73559  1.0000
  C   C2331     1.0  0.00949  0.55493  0.62120  1.0000
  S   S337      1.0  0.99741  0.53136  0.60824  1.0000
  H   H1862     1.0  0.07613  0.71849  0.50431  1.0000
  S   S338      1.0  0.07151  0.67034  0.49808  1.0000
  S   S339      1.0  0.12366  0.73038  0.50285  1.0000
  P   P76       1.0  0.02069  0.53907  0.65656  1.0000
  C   C2332     1.0  0.03471  0.54253  0.65427  1.0000
  C   C2333     1.0  0.02133  0.52360  0.66082  1.0000
  C   C2334     1.0  0.03055  0.51577  0.66568  1.0000
  C   C2335     1.0  0.03021  0.50397  0.67009  1.0000
  H   H1863     1.0  0.10611  0.50404  0.68830  1.0000
  C   C2336     1.0  0.99816  0.57361  0.51005  1.0000
  C   C2337     1.0  0.01162  0.51955  0.66085  1.0000
  C   C2338     1.0  0.03568  0.55163  0.65868  1.0000
  C   C2339     1.0  0.04660  0.55438  0.65658  1.0000
  C   C2340     1.0  0.05652  0.54824  0.64985  1.0000
  C   C2341     1.0  0.05554  0.53936  0.64524  1.0000
  C   C2342     1.0  0.04470  0.53646  0.64748  1.0000
  C   C2343     1.0  0.01603  0.54522  0.64286  1.0000
  C   C2344     1.0  0.01015  0.49291  0.69927  1.0000
  C   C2345     1.0  0.00981  0.56728  0.50828  1.0000
  H   H1864     1.0  0.09892  0.49748  0.70944  1.0000
  H   H1865     1.0  0.00585  0.72767  0.54474  1.0000
  C   C2346     1.0  0.01782  0.53810  0.63490  1.0000
  H   H1866     1.0  0.00297  0.51932  0.55675  1.0000
  C   C2347     1.0  0.07358  0.50206  0.60144  1.0000
  S   S340      1.0  0.11623  0.63243  0.50254  1.0000
  H   H1867     1.0  0.08866  0.50543  0.60470  1.0000
  H   H1868     1.0  0.02283  0.53726  0.68012  1.0000
  H   H1869     1.0  0.03787  0.51872  0.66634  1.0000
  H   H1870     1.0  0.03725  0.49795  0.67394  1.0000
  Fe  Fe176     1.0  0.11599  0.71802  0.51861  1.0000
  C   C2348     1.0  0.07670  0.71856  0.49525  1.0000
  C   C2349     1.0  0.99697  0.57233  0.72804  1.0000
  H   H1871     1.0  0.02803  0.55662  0.66370  1.0000
  H   H1872     1.0  0.04739  0.56127  0.66015  1.0000
  H   H1873     1.0  0.06500  0.55029  0.64821  1.0000
  H   H1874     1.0  0.06326  0.53456  0.64008  1.0000
  H   H1875     1.0  0.04414  0.52937  0.64404  1.0000
  C   C2350     1.0  0.01764  0.73589  0.58688  1.0000
  C   C2351     1.0  0.99911  0.52857  0.72724  1.0000
  H   H1876     1.0  0.00995  0.56294  0.64567  1.0000
  H   H1877     1.0  0.99594  0.58061  0.68439  1.0000
  H   H1878     1.0  0.02176  0.52880  0.63694  1.0000
  C   C2352     1.0  0.01198  0.71106  0.50574  1.0000
  H   H1879     1.0  0.03743  0.51340  0.56694  1.0000
  C   C2353     1.0  0.09077  0.49425  0.73435  1.0000
  C   C2354     1.0  0.03064  0.64567  0.50706  1.0000
  C   C2355     1.0  0.01043  0.70063  0.57037  1.0000
  H   H1880     1.0  0.03892  0.60400  0.70288  1.0000
  S   S341      1.0  0.08781  0.52544  0.68593  1.0000
  C   C2356     1.0  0.06568  0.56598  0.56103  1.0000
  H   H1881     1.0  0.02274  0.71781  0.58562  1.0000
  C   C2357     1.0  0.04966  0.50191  0.62986  1.0000
  C   C2358     1.0  0.04065  0.52123  0.56241  1.0000
  P   P77       1.0  0.05261  0.56274  0.69848  1.0000
  H   H1882     1.0  0.07798  0.71883  0.56047  1.0000
  C   C2359     1.0  0.04205  0.57659  0.69876  1.0000
  C   C2360     1.0  0.03901  0.51225  0.73873  1.0000
  S   S342      1.0  0.06832  0.50976  0.64820  1.0000
  H   H1883     1.0  0.01574  0.56908  0.49979  1.0000
  C   C2361     1.0  0.04377  0.54354  0.59529  1.0000
  H   H1884     1.0  0.03261  0.67833  0.56199  1.0000
  C   C2362     1.0  0.99781  0.63133  0.55178  1.0000
  H   H1885     1.0  0.01419  0.58985  0.69503  1.0000
  C   C2363     1.0  0.06117  0.66802  0.51140  1.0000
  C   C2364     1.0  0.09419  0.70162  0.54514  1.0000
  C   C2365     1.0  0.10310  0.69709  0.55139  1.0000
  C   C2366     1.0  0.10539  0.68521  0.55691  1.0000
  C   C2367     1.0  0.09893  0.67780  0.55599  1.0000
  C   C2368     1.0  0.09027  0.68220  0.54933  1.0000
  C   C2369     1.0  0.08774  0.69425  0.54417  1.0000
  P   P78       1.0  0.08274  0.67241  0.54712  1.0000
  C   C2370     1.0  0.07744  0.67942  0.53388  1.0000
  C   C2371     1.0  0.09294  0.65871  0.54474  1.0000
  C   C2372     1.0  0.10496  0.65835  0.53993  1.0000
  C   C2373     1.0  0.11274  0.64784  0.53778  1.0000
  C   C2374     1.0  0.10860  0.63765  0.54020  1.0000
  C   C2375     1.0  0.09668  0.63793  0.54486  1.0000
  C   C2376     1.0  0.08887  0.64839  0.54712  1.0000
  C   C2377     1.0  0.06585  0.68600  0.53430  1.0000
  C   C2378     1.0  0.06211  0.69193  0.52392  1.0000
  C   C2379     1.0  0.06995  0.69151  0.51308  1.0000
  C   C2380     1.0  0.08156  0.68518  0.51263  1.0000
  C   C2381     1.0  0.08528  0.67916  0.52298  1.0000
  C   C2382     1.0  0.07081  0.66939  0.55947  1.0000
  C   C2383     1.0  0.07071  0.67073  0.57059  1.0000
  C   C2384     1.0  0.06169  0.66790  0.58022  1.0000
  C   C2385     1.0  0.05278  0.66362  0.57882  1.0000
  C   C2386     1.0  0.05289  0.66215  0.56781  1.0000
  C   C2387     1.0  0.06179  0.66512  0.55816  1.0000
  H   H1886     1.0  0.09247  0.71084  0.54083  1.0000
  H   H1887     1.0  0.10841  0.70275  0.55169  1.0000
  H   H1888     1.0  0.11245  0.68170  0.56157  1.0000
  H   H1889     1.0  0.10099  0.66856  0.56009  1.0000
  H   H1890     1.0  0.08104  0.69797  0.53910  1.0000
  H   H1891     1.0  0.10833  0.66623  0.53749  1.0000
  H   H1892     1.0  0.12195  0.64768  0.53385  1.0000
  H   H1893     1.0  0.11456  0.62963  0.53810  1.0000
  H   H1894     1.0  0.09340  0.63012  0.54628  1.0000
  H   H1895     1.0  0.07966  0.64838  0.55036  1.0000
  H   H1896     1.0  0.05967  0.68658  0.54259  1.0000
  H   H1897     1.0  0.05308  0.69666  0.52431  1.0000
  H   H1898     1.0  0.06696  0.69576  0.50503  1.0000
  H   H1899     1.0  0.08766  0.68462  0.50430  1.0000
  H   H1900     1.0  0.09427  0.67426  0.52244  1.0000
  H   H1901     1.0  0.07765  0.67383  0.57187  1.0000
  H   H1902     1.0  0.06168  0.66886  0.58880  1.0000
  H   H1903     1.0  0.04583  0.66134  0.58627  1.0000
  H   H1904     1.0  0.04610  0.65866  0.56671  1.0000
  H   H1905     1.0  0.06170  0.66389  0.54970  1.0000
  C   C2388     1.0  0.03289  0.73408  0.52918  1.0000
  S   S343      1.0  0.07320  0.49826  0.69933  1.0000
  C   C2389     1.0  0.02669  0.58708  0.59085  1.0000
  C   C2390     1.0  0.08308  0.49928  0.60677  1.0000
  Fe  Fe177     1.0  0.10625  0.73431  0.49813  1.0000
  C   C2391     1.0  0.00789  0.56211  0.62897  1.0000
  C   C2392     1.0  0.06428  0.69744  0.57852  1.0000
  H   H1906     1.0  0.02740  0.69705  0.50384  1.0000
  C   C2393     1.0  0.99628  0.74092  0.49566  1.0000
  C   C2394     1.0  0.01136  0.50772  0.66522  1.0000
  C   C2395     1.0  0.03111  0.74049  0.56403  1.0000
  C   C2396     1.0  0.01634  0.50718  0.70527  1.0000
  S   S344      1.0  0.09267  0.52736  0.73582  1.0000
  C   C2397     1.0  0.02075  0.49991  0.66968  1.0000
  H   H1907     1.0  0.00866  0.70936  0.49915  1.0000
  C   C2398     1.0  0.05210  0.72099  0.52693  1.0000
  C   C2399     1.0  0.03097  0.57807  0.69648  1.0000
  H   H1908     1.0  0.00375  0.50470  0.66544  1.0000
  C   C2400     1.0  0.01397  0.55903  0.51759  1.0000
  C   C2401     1.0  0.04434  0.58205  0.56591  1.0000
  H   H1909     1.0  0.07826  0.54326  0.66667  1.0000
  H   H1910     1.0  0.04054  0.55315  0.62408  1.0000
  C   C2402     1.0  0.04152  0.55050  0.61599  1.0000
  C   C2403     1.0  0.07317  0.70362  0.57314  1.0000
  Fe  Fe178     1.0  0.02039  0.49257  0.59809  1.0000
  H   H1911     1.0  0.01310  0.56042  0.72169  1.0000
  H   H1912     1.0  0.99861  0.51950  0.57786  1.0000
  C   C2404     1.0  0.11720  0.67810  0.51187  1.0000
  C   C2405     1.0  0.10910  0.49497  0.69252  1.0000
  H   H1913     1.0  0.01762  0.59102  0.72916  1.0000
  H   H1914     1.0  0.04432  0.69270  0.55964  1.0000
  C   C2406     1.0  0.02214  0.65473  0.50236  1.0000
  Fe  Fe179     1.0  0.08864  0.65729  0.49942  1.0000
  H   H1915     1.0  0.99959  0.60405  0.53687  1.0000
  H   H1916     1.0  0.01232  0.73413  0.59568  1.0000
  C   C2407     1.0  0.12613  0.66799  0.51371  1.0000
  C   C2408     1.0  0.03113  0.73038  0.54136  1.0000
  C   C2409     1.0  0.00277  0.58956  0.59247  1.0000
  C   C2410     1.0  0.01610  0.68959  0.56792  1.0000
  C   C2411     1.0  0.04581  0.57056  0.57277  1.0000
  C   C2412     1.0  0.04754  0.53533  0.60484  1.0000
  C   C2413     1.0  0.01663  0.57526  0.72514  1.0000
  H   H1917     1.0  0.08160  0.70050  0.57561  1.0000
  H   H1918     1.0  0.05891  0.72601  0.55478  1.0000
  C   C2414     1.0  0.06035  0.71794  0.56134  1.0000
  H   H1919     1.0  0.99837  0.50762  0.70606  1.0000
  C   C2415     1.0  0.02989  0.72898  0.56947  1.0000
  C   C2416     1.0  0.04216  0.67443  0.52374  1.0000
  C   C2417     1.0  0.02077  0.71503  0.52279  1.0000
  P   P79       1.0  0.03762  0.71708  0.56211  1.0000
  C   C2418     1.0  0.05026  0.67591  0.51298  1.0000
  C   C2419     1.0  0.02292  0.57826  0.58850  1.0000
  C   C2420     1.0  0.01379  0.54141  0.67963  1.0000
  Fe  Fe180     1.0  0.09311  0.73539  0.52290  1.0000
  C   C2421     1.0  0.00545  0.54312  0.68994  1.0000
  H   H1920     1.0  0.02157  0.60407  0.59526  1.0000
  C   C2422     1.0  0.00556  0.71995  0.51181  1.0000
  H   H1921     1.0  0.04920  0.53241  0.62262  1.0000
  C   C2423     1.0  0.01014  0.64093  0.50494  1.0000
  S   S345      1.0  0.07679  0.73724  0.53691  1.0000
  C   C2424     1.0  0.00794  0.62940  0.54289  1.0000
  C   C2425     1.0  0.02672  0.55873  0.57709  1.0000
  H   H1922     1.0  0.03603  0.58833  0.56728  1.0000
  H   H1923     1.0  0.99979  0.71061  0.54245  1.0000
  S   S346      1.0  0.00057  0.66844  0.55681  1.0000
  C   C2426     1.0  0.00662  0.59839  0.59457  1.0000
  C   C2427     1.0  0.02713  0.56219  0.56502  1.0000
  C   C2428     1.0  0.00741  0.50307  0.70365  1.0000
  C   C2429     1.0  0.01857  0.59713  0.59382  1.0000
  S   S347      1.0  0.00905  0.68497  0.50356  1.0000
  H   H1924     1.0  0.03595  0.58634  0.59006  1.0000
  S   S348      1.0  0.12805  0.65575  0.50783  1.0000
  C   C2430     1.0  0.01688  0.54733  0.56650  1.0000
  H   H1925     1.0  0.01571  0.53740  0.61813  1.0000
  H   H1926     1.0  0.02607  0.57208  0.72303  1.0000
  H   H1927     1.0  0.05805  0.72301  0.49691  1.0000
  H   H1928     1.0  0.01362  0.54259  0.56226  1.0000
  C   C2431     1.0  0.01087  0.57953  0.58943  1.0000
  P   P80       1.0  0.03355  0.56576  0.58372  1.0000
  H   H1929     1.0  0.06403  0.56476  0.73376  1.0000
  S   S349      1.0  0.01156  0.49679  0.61572  1.0000
  C   C2432     1.0  0.08055  0.50236  0.73795  1.0000
  H   H1930     1.0  0.00051  0.57427  0.70404  1.0000
  H   H1931     1.0  0.02946  0.53781  0.73046  1.0000
  H   H1932     1.0  0.02339  0.66362  0.49971  1.0000
  Fe  Fe181     1.0  0.05668  0.50269  0.69268  1.0000
  H   H1933     1.0  1.00000  0.62454  0.52682  1.0000
  H   H1934     1.0  0.03955  0.49969  0.72923  1.0000
  H   H1935     1.0  0.03635  0.74242  0.55522  1.0000
  H   H1936     1.0  0.00537  0.65959  0.49781  1.0000
  C   C2433     1.0  0.99819  0.72487  0.55060  1.0000
  C   C2434     1.0  0.01034  0.54420  0.66890  1.0000
  H   H1937     1.0  0.09160  0.59482  0.50122  1.0000
  C   C2435     1.0  0.99871  0.68690  0.49530  1.0000
  H   H1938     1.0  0.03937  0.60119  0.49294  1.0000
  H   H1939     1.0  0.06183  0.50763  0.74016  1.0000
  Fe  Fe182     1.0  0.99609  0.66083  0.54428  1.0000
  H   H1940     1.0  0.00001  0.60351  0.56827  1.0000
  C   C2436     1.0  0.05389  0.49461  0.65247  1.0000
  H   H1941     1.0  0.05690  0.61331  0.50329  1.0000
  H   H1942     1.0  0.04341  0.51767  0.73105  1.0000
  C   C2437     1.0  0.04441  0.49319  0.63799  1.0000
  H   H1943     1.0  0.05663  0.63399  0.50238  1.0000
  H   H1944     1.0  0.01059  0.51545  0.73745  1.0000
  H   H1945     1.0  0.15153  0.73483  0.49262  1.0000
  H   H1946     1.0  0.00397  0.57139  0.62667  1.0000
  H   H1947     1.0  0.99897  0.58539  0.56264  1.0000
  C   C2438     1.0  0.06631  0.49422  0.60420  1.0000
  H   H1948     1.0  0.99599  0.59801  0.73483  1.0000
  H   H1949     1.0  0.09912  0.49535  0.73483  1.0000
  Fe  Fe183     1.0  0.11302  0.65110  0.50419  1.0000
  C   C2439     1.0  0.06270  0.62946  0.49580  1.0000
  C   C2440     1.0  0.00129  0.54416  0.73912  1.0000
  H   H1950     1.0  0.13719  0.69606  0.49701  1.0000
  H   H1951     1.0  0.07445  0.74050  0.51330  1.0000
  C   C2441     1.0  0.99733  0.61918  0.52277  1.0000
  C   C2442     1.0  0.99840  0.54852  0.66868  1.0000
  H   H1952     1.0  0.02621  0.74069  0.52528  1.0000
  H   H1953     1.0  0.11884  0.60893  0.49186  1.0000
  H   H1954     1.0  0.02310  0.61877  0.49206  1.0000
  C   C2443     1.0  0.99613  0.52753  0.57158  1.0000
  H   H1955     1.0  0.14150  0.67661  0.49209  1.0000
  C   C2444     1.0  0.03612  0.73406  0.49122  1.0000
  H   H1956     1.0  0.09564  0.71454  0.49097  1.0000
  C   C2445     1.0  0.06650  0.72117  0.49099  1.0000
  C   C2446     1.0  0.32722  0.49933  0.87653  1.0000
  H   H1957     1.0  0.02225  0.50260  0.86652  1.0000
  C   C2447     1.0  0.40084  0.52282  0.97792  1.0000
  H   H1958     1.0  0.06844  0.50478  0.76277  1.0000
  C   C2448     1.0  0.00708  0.57239  0.75740  1.0000
  C   C2449     1.0  0.16439  0.57101  0.98730  1.0000
  H   H1959     1.0  0.04466  0.50043  0.88840  1.0000
  P   P81       1.0  0.17103  0.54418  0.95465  1.0000
  H   H1960     1.0  0.36697  0.54067  0.93408  1.0000
  H   H1961     1.0  0.34860  0.50711  0.91433  1.0000
  H   H1962     1.0  0.10094  0.50664  0.79194  1.0000
  C   C2450     1.0  0.40683  0.63339  0.98641  1.0000
  S   S350      1.0  0.33392  0.50794  0.89803  1.0000
  H   H1963     1.0  0.17180  0.58946  0.92523  1.0000
  C   C2451     1.0  0.17036  0.55872  0.94555  1.0000
  H   H1964     1.0  0.21910  0.59903  0.95475  1.0000
  Fe  Fe184     1.0  0.37562  0.56610  0.95292  1.0000
  S   S351      1.0  0.37406  0.58374  0.95639  1.0000
  S   S352      1.0  0.36804  0.56064  0.94076  1.0000
  Fe  Fe185     1.0  0.38780  0.55278  0.97302  1.0000
  H   H1965     1.0  0.04550  0.52774  0.84366  1.0000
  Fe  Fe186     1.0  0.39261  0.57676  0.95916  1.0000
  S   S353      1.0  0.40583  0.58854  0.95185  1.0000
  S   S354      1.0  0.36893  0.55809  0.97178  1.0000
  S   S355      1.0  0.39473  0.55969  0.95388  1.0000
  C   C2452     1.0  0.48101  0.74092  0.98569  1.0000
  S   S356      1.0  0.46013  0.61762  0.96895  1.0000
  C   C2453     1.0  0.34029  0.56231  0.96182  1.0000
  H   H1966     1.0  0.16850  0.55414  0.93029  1.0000
  C   C2454     1.0  0.99661  0.53459  0.83239  1.0000
  C   C2455     1.0  0.16071  0.53649  0.99038  1.0000
  H   H1967     1.0  0.33701  0.49312  0.94930  1.0000
  Fe  Fe187     1.0  0.45411  0.63656  0.96032  1.0000
  S   S357      1.0  0.46071  0.64232  0.94079  1.0000
  H   H1968     1.0  0.16380  0.50827  0.94905  1.0000
  C   C2456     1.0  0.00915  0.54247  0.80292  1.0000
  Fe  Fe188     1.0  0.30293  0.56447  0.92040  1.0000
  S   S358      1.0  0.31144  0.57375  0.90270  1.0000
  S   S359      1.0  0.30337  0.54523  0.92790  1.0000
  Fe  Fe189     1.0  0.29057  0.58714  0.92844  1.0000
  S   S360      1.0  0.29759  0.59845  0.91140  1.0000
  S   S361      1.0  0.28011  0.59293  0.94496  1.0000
  Fe  Fe190     1.0  0.29358  0.58606  0.90318  1.0000
  S   S362      1.0  0.28585  0.59192  0.88710  1.0000
  Fe  Fe191     1.0  0.31474  0.58529  0.91254  1.0000
  S   S363      1.0  0.33084  0.59211  0.91062  1.0000
  S   S364      1.0  0.28497  0.57605  0.92017  1.0000
  S   S365      1.0  0.30786  0.57484  0.93011  1.0000
  S   S366      1.0  0.47116  0.69214  0.91346  1.0000
  S   S367      1.0  0.47133  0.70486  0.94020  1.0000
  C   C2457     1.0  0.37453  0.52361  0.93014  1.0000
  Fe  Fe192     1.0  0.20075  0.56888  0.90376  1.0000
  S   S368      1.0  0.20029  0.56273  0.92300  1.0000
  S   S369      1.0  0.18643  0.56728  0.89625  1.0000
  Fe  Fe193     1.0  0.22338  0.57782  0.89867  1.0000
  S   S370      1.0  0.22453  0.57232  0.91750  1.0000
  S   S371      1.0  0.23677  0.58568  0.88380  1.0000
  Fe  Fe194     1.0  0.21969  0.55592  0.91723  1.0000
  S   S372      1.0  0.22859  0.53808  0.92614  1.0000
  Fe  Fe195     1.0  0.20508  0.57969  0.92116  1.0000
  S   S373      1.0  0.19586  0.59235  0.93287  1.0000
  S   S374      1.0  0.21987  0.56096  0.89799  1.0000
  S   S375      1.0  0.20415  0.58645  0.90226  1.0000
  H   H1969     1.0  0.39437  0.61087  0.98892  1.0000
  C   C2458     1.0  0.16383  0.60593  0.83629  1.0000
  H   H1970     1.0  0.25443  0.52636  0.98500  1.0000
  Fe  Fe196     1.0  0.07116  0.53825  0.77419  1.0000
  S   S376      1.0  0.07944  0.54232  0.78652  1.0000
  C   C2459     1.0  0.38058  0.68055  0.95994  1.0000
  C   C2460     1.0  0.24087  0.49309  0.96447  1.0000
  Fe  Fe197     1.0  0.13693  0.50513  0.90767  1.0000
  C   C2461     1.0  0.33568  0.49790  0.97606  1.0000
  C   C2462     1.0  0.11981  0.50185  0.88971  1.0000
  Fe  Fe198     1.0  0.15390  0.51198  0.91769  1.0000
  H   H1971     1.0  0.48948  0.67154  0.94560  1.0000
  S   S377      1.0  0.16655  0.52145  0.91948  1.0000
  H   H1972     1.0  0.45505  0.50208  0.88893  1.0000
  H   H1973     1.0  0.26693  0.55271  0.96575  1.0000
  Fe  Fe199     1.0  0.13306  0.50274  0.93406  1.0000
  S   S378      1.0  0.12001  0.50642  0.95069  1.0000
  S   S379      1.0  0.15668  0.50032  0.90521  1.0000
  S   S380      1.0  0.13452  0.51810  0.91879  1.0000
  C   C2463     1.0  0.00743  0.52660  0.83305  1.0000
  P   P82       1.0  0.01933  0.52552  0.82019  1.0000
  S   S381      1.0  0.24276  0.50038  0.89519  1.0000
  C   C2464     1.0  0.00465  0.56123  0.76150  1.0000
  C   C2465     1.0  0.15228  0.54164  0.94758  1.0000
  C   C2466     1.0  0.49101  0.60326  0.98247  1.0000
  C   C2467     1.0  0.20446  0.53576  0.95987  1.0000
  S   S382      1.0  0.12886  0.51002  0.89166  1.0000
  C   C2468     1.0  0.11552  0.50527  0.87940  1.0000
  C   C2469     1.0  0.05296  0.51005  0.82426  1.0000
  S   S383      1.0  0.39389  0.53504  0.98443  1.0000
  S   S384      1.0  0.07360  0.54866  0.75561  1.0000
  H   H1974     1.0  0.19633  0.50007  0.93945  1.0000
  H   H1975     1.0  0.18066  0.49806  0.93123  1.0000
  C   C2470     1.0  0.24140  0.59367  0.96867  1.0000
  H   H1976     1.0  0.11207  0.51144  0.97377  1.0000
  H   H1977     1.0  0.34377  0.57843  0.96232  1.0000
  H   H1978     1.0  0.37620  0.68920  0.96164  1.0000
  H   H1979     1.0  0.48315  0.60103  0.98211  1.0000
  C   C2471     1.0  0.01383  0.55128  0.76274  1.0000
  S   S385      1.0  0.15227  0.49730  0.93363  1.0000
  H   H1980     1.0  0.45403  0.69232  0.98456  1.0000
  C   C2472     1.0  0.04253  0.51330  0.82030  1.0000
  C   C2473     1.0  0.00883  0.51891  0.84385  1.0000
  C   C2474     1.0  0.42067  0.68935  0.94378  1.0000
  C   C2475     1.0  0.00897  0.55203  0.79335  1.0000
  C   C2476     1.0  0.02097  0.51480  0.80203  1.0000
  S   S386      1.0  0.04634  0.51042  0.77859  1.0000
  H   H1981     1.0  0.37496  0.49780  0.98014  1.0000
  C   C2477     1.0  0.16722  0.52384  0.95130  1.0000
  C   C2478     1.0  0.05403  0.51528  0.83265  1.0000
  C   C2479     1.0  0.18643  0.50108  0.97457  1.0000
  S   S387      1.0  0.20464  0.57610  0.98413  1.0000
  P   P83       1.0  0.41564  0.69096  0.96732  1.0000
  H   H1982     1.0  0.29112  0.55075  0.95934  1.0000
  C   C2480     1.0  0.44349  0.49856  0.90592  1.0000
  C   C2481     1.0  0.08505  0.53120  0.79762  1.0000
  C   C2482     1.0  0.09968  0.52384  0.80951  1.0000
  C   C2483     1.0  0.09502  0.53216  0.80051  1.0000
  H   H1983     1.0  0.10744  0.52468  0.81158  1.0000
  H   H1984     1.0  0.09917  0.53938  0.79571  1.0000
  C   C2484     1.0  0.19833  0.58731  0.94708  1.0000
  C   C2485     1.0  0.19654  0.59559  0.95374  1.0000
  C   C2486     1.0  0.19866  0.59198  0.96503  1.0000
  C   C2487     1.0  0.20192  0.57532  0.95188  1.0000
  H   H1985     1.0  0.19375  0.60484  0.95004  1.0000
  H   H1986     1.0  0.20324  0.56890  0.94675  1.0000
  C   C2488     1.0  0.23143  0.52719  0.91819  1.0000
  C   C2489     1.0  0.22793  0.52982  0.90760  1.0000
  C   C2490     1.0  0.23187  0.52173  0.90034  1.0000
  C   C2491     1.0  0.23849  0.51057  0.90413  1.0000
  C   C2492     1.0  0.24123  0.50753  0.91518  1.0000
  C   C2493     1.0  0.23788  0.51591  0.92213  1.0000
  H   H1987     1.0  0.22232  0.53812  0.90488  1.0000
  H   H1988     1.0  0.22955  0.52401  0.89192  1.0000
  H   H1989     1.0  0.24619  0.49887  0.91825  1.0000
  H   H1990     1.0  0.24043  0.51371  0.93044  1.0000
  C   C2494     1.0  0.18039  0.55489  0.90322  1.0000
  C   C2495     1.0  0.17007  0.55411  0.90077  1.0000
  C   C2496     1.0  0.16546  0.54402  0.90584  1.0000
  C   C2497     1.0  0.17117  0.53471  0.91343  1.0000
  C   C2498     1.0  0.18138  0.53557  0.91597  1.0000
  C   C2499     1.0  0.18598  0.54562  0.91093  1.0000
  H   H1991     1.0  0.16567  0.56130  0.89489  1.0000
  H   H1992     1.0  0.15757  0.54341  0.90385  1.0000
  H   H1993     1.0  0.18600  0.52822  0.92157  1.0000
  H   H1994     1.0  0.19401  0.54603  0.91278  1.0000
  H   H1995     1.0  0.37859  0.55975  0.87099  1.0000
  C   C2500     1.0  0.16952  0.57214  0.92666  1.0000
  C   C2501     1.0  0.02550  0.55256  0.75961  1.0000
  C   C2502     1.0  0.02790  0.56377  0.75521  1.0000
  C   C2503     1.0  0.00704  0.53235  0.74159  1.0000
  C   C2504     1.0  0.17196  0.56763  0.94979  1.0000
  S   S388      1.0  0.07960  0.49999  0.85808  1.0000
  H   H1996     1.0  0.03261  0.54488  0.76051  1.0000
  H   H1997     1.0  0.23586  0.49340  0.95827  1.0000
  H   H1998     1.0  0.49191  0.63851  0.97099  1.0000
  C   C2505     1.0  0.02861  0.49756  0.75861  1.0000
  H   H1999     1.0  0.17539  0.51918  0.95393  1.0000
  C   C2506     1.0  0.14554  0.53526  0.94539  1.0000
  C   C2507     1.0  0.24733  0.60182  0.94780  1.0000
  H   H2000     1.0  0.38119  0.51746  0.90323  1.0000
  C   C2508     1.0  0.27204  0.58983  0.88704  1.0000
  C   C2509     1.0  0.26941  0.59150  0.87615  1.0000
  C   C2510     1.0  0.25862  0.59012  0.87542  1.0000
  C   C2511     1.0  0.25023  0.58707  0.88558  1.0000
  C   C2512     1.0  0.25275  0.58542  0.89659  1.0000
  C   C2513     1.0  0.26367  0.58680  0.89732  1.0000
  H   H2001     1.0  0.27575  0.59393  0.86818  1.0000
  H   H2002     1.0  0.25674  0.59151  0.86690  1.0000
  H   H2003     1.0  0.24624  0.58330  0.90450  1.0000
  H   H2004     1.0  0.26550  0.58574  0.90579  1.0000
  C   C2514     1.0  0.28297  0.58037  0.95596  1.0000
  C   C2515     1.0  0.28567  0.56932  0.95332  1.0000
  C   C2516     1.0  0.28915  0.55921  0.96154  1.0000
  C   C2517     1.0  0.28341  0.58127  0.96703  1.0000
  H   H2005     1.0  0.28527  0.56850  0.94485  1.0000
  H   H2006     1.0  0.28150  0.58983  0.96901  1.0000
  C   C2518     1.0  0.46286  0.65663  0.93408  1.0000
  C   C2519     1.0  0.46380  0.66021  0.92196  1.0000
  C   C2520     1.0  0.46592  0.67127  0.91596  1.0000
  C   C2521     1.0  0.46732  0.67888  0.92195  1.0000
  C   C2522     1.0  0.46618  0.67546  0.93417  1.0000
  C   C2523     1.0  0.46392  0.66431  0.94026  1.0000
  H   H2007     1.0  0.46298  0.65435  0.91714  1.0000
  H   H2008     1.0  0.46677  0.67384  0.90656  1.0000
  H   H2009     1.0  0.46722  0.68129  0.93888  1.0000
  H   H2010     1.0  0.46321  0.66161  0.94964  1.0000
  C   C2524     1.0  0.35681  0.56995  0.93367  1.0000
  C   C2525     1.0  0.34909  0.56487  0.93108  1.0000
  C   C2526     1.0  0.34088  0.57172  0.92434  1.0000
  C   C2527     1.0  0.34040  0.58369  0.91998  1.0000
  C   C2528     1.0  0.34796  0.58886  0.92271  1.0000
  C   C2529     1.0  0.35605  0.58204  0.92967  1.0000
  H   H2011     1.0  0.34948  0.55559  0.93424  1.0000
  H   H2012     1.0  0.33517  0.56771  0.92215  1.0000
  H   H2013     1.0  0.34764  0.59813  0.91932  1.0000
  H   H2014     1.0  0.36199  0.58603  0.93157  1.0000
  C   C2530     1.0  0.41263  0.59289  0.96064  1.0000
  C   C2531     1.0  0.42106  0.59973  0.95514  1.0000
  C   C2532     1.0  0.42656  0.60344  0.96181  1.0000
  C   C2533     1.0  0.24259  0.49977  0.98068  1.0000
  C   C2534     1.0  0.41538  0.59339  0.97955  1.0000
  H   H2015     1.0  0.45614  0.69402  0.96330  1.0000
  H   H2016     1.0  0.42342  0.60209  0.94567  1.0000
  S   S389      1.0  0.35487  0.58498  0.98803  1.0000
  C   C2535     1.0  0.01859  0.51379  0.81422  1.0000
  C   C2536     1.0  0.30856  0.58884  0.98549  1.0000
  H   H2017     1.0  0.13714  0.53963  0.94311  1.0000
  C   C2537     1.0  0.14966  0.52321  0.94606  1.0000
  H   H2018     1.0  0.00055  0.51290  0.86190  1.0000
  H   H2019     1.0  0.34082  0.57015  0.98542  1.0000
  H   H2020     1.0  0.17375  0.58552  0.94573  1.0000
  H   H2021     1.0  0.43985  0.69279  0.95595  1.0000
  C   C2538     1.0  0.35311  0.50450  0.92147  1.0000
  C   C2539     1.0  0.32678  0.51806  0.90703  1.0000
  C   C2540     1.0  0.31988  0.51456  0.91812  1.0000
  C   C2541     1.0  0.31312  0.52295  0.92470  1.0000
  C   C2542     1.0  0.31336  0.53484  0.92028  1.0000
  C   C2543     1.0  0.32092  0.53823  0.90955  1.0000
  C   C2544     1.0  0.32756  0.52984  0.90287  1.0000
  H   H2022     1.0  0.31946  0.50545  0.92146  1.0000
  H   H2023     1.0  0.30742  0.52029  0.93308  1.0000
  H   H2024     1.0  0.32118  0.54737  0.90615  1.0000
  H   H2025     1.0  0.33296  0.53254  0.89432  1.0000
  C   C2545     1.0  0.14148  0.51659  0.98645  1.0000
  C   C2546     1.0  0.37729  0.53130  0.87277  1.0000
  C   C2547     1.0  0.41094  0.50263  0.96840  1.0000
  C   C2548     1.0  0.36337  0.49568  0.92111  1.0000
  C   C2549     1.0  0.40355  0.52386  0.96577  1.0000
  C   C2550     1.0  0.40892  0.51381  0.96102  1.0000
  H   H2026     1.0  0.40171  0.53241  0.96004  1.0000
  H   H2027     1.0  0.41147  0.51469  0.95163  1.0000
  H   H2028     1.0  0.41599  0.69842  0.94187  1.0000
  H   H2029     1.0  0.30930  0.58058  0.98335  1.0000
  H   H2030     1.0  0.01195  0.54263  0.76602  1.0000
  H   H2031     1.0  0.06206  0.51263  0.83585  1.0000
  C   C2551     1.0  0.10592  0.51557  0.76228  1.0000
  C   C2552     1.0  0.99952  0.51907  0.85370  1.0000
  H   H2032     1.0  0.38254  0.50787  0.92356  1.0000
  S   S390      1.0  0.29590  0.54718  0.98190  1.0000
  C   C2553     1.0  0.01781  0.49536  0.80505  1.0000
  C   C2554     1.0  0.27568  0.50246  0.87476  1.0000
  H   H2033     1.0  0.27372  0.51664  0.99041  1.0000
  C   C2555     1.0  0.37281  0.53469  0.90699  1.0000
  H   H2034     1.0  0.41436  0.55854  0.87023  1.0000
  C   C2556     1.0  0.12163  0.49443  0.84587  1.0000
  H   H2035     1.0  0.38083  0.52324  0.85806  1.0000
  C   C2557     1.0  0.25732  0.56778  0.97313  1.0000
  H   H2036     1.0  0.03643  0.49653  0.84350  1.0000
  C   C2558     1.0  0.39739  0.69031  0.98722  1.0000
  H   H2037     1.0  0.41677  0.73966  0.99043  1.0000
  C   C2559     1.0  0.40827  0.50162  0.98052  1.0000
  Fe  Fe200     1.0  0.47111  0.70682  0.92141  1.0000
  C   C2560     1.0  0.21168  0.58146  0.87060  1.0000
  C   C2561     1.0  0.21167  0.59328  0.86900  1.0000
  C   C2562     1.0  0.20248  0.60201  0.86507  1.0000
  C   C2563     1.0  0.19333  0.59892  0.86265  1.0000
  C   C2564     1.0  0.19334  0.58705  0.86411  1.0000
  C   C2565     1.0  0.20250  0.57832  0.86828  1.0000
  P   P84       1.0  0.18133  0.58329  0.86108  1.0000
  C   C2566     1.0  0.18549  0.56837  0.85902  1.0000
  C   C2567     1.0  0.16869  0.58437  0.87321  1.0000
  C   C2568     1.0  0.16821  0.58978  0.88219  1.0000
  C   C2569     1.0  0.15854  0.59021  0.89170  1.0000
  C   C2570     1.0  0.14924  0.58535  0.89230  1.0000
  C   C2571     1.0  0.14963  0.57998  0.88339  1.0000
  C   C2572     1.0  0.15934  0.57941  0.87392  1.0000
  C   C2573     1.0  0.18922  0.56590  0.84775  1.0000
  C   C2574     1.0  0.19205  0.55428  0.84642  1.0000
  C   C2575     1.0  0.19114  0.54508  0.85629  1.0000
  C   C2576     1.0  0.18749  0.54749  0.86750  1.0000
  C   C2577     1.0  0.18475  0.55905  0.86884  1.0000
  H   H2038     1.0  0.20242  0.61115  0.86404  1.0000
  H   H2039     1.0  0.18620  0.60580  0.85975  1.0000
  H   H2040     1.0  0.20249  0.56913  0.86996  1.0000
  H   H2041     1.0  0.17545  0.59327  0.88216  1.0000
  H   H2042     1.0  0.15843  0.59409  0.89876  1.0000
  H   H2043     1.0  0.14185  0.58555  0.89977  1.0000
  H   H2044     1.0  0.14251  0.57602  0.88396  1.0000
  H   H2045     1.0  0.15964  0.57500  0.86722  1.0000
  H   H2046     1.0  0.18992  0.57286  0.83999  1.0000
  H   H2047     1.0  0.19490  0.55242  0.83772  1.0000
  H   H2048     1.0  0.19329  0.53609  0.85530  1.0000
  H   H2049     1.0  0.18686  0.54041  0.87520  1.0000
  H   H2050     1.0  0.18208  0.56073  0.87758  1.0000
  H   H2051     1.0  0.34260  0.53447  0.97760  1.0000
  C   C2578     1.0  0.18167  0.62407  0.98463  1.0000
  H   H2052     1.0  0.40815  0.66860  0.97179  1.0000
  C   C2579     1.0  0.16013  0.49719  0.98256  1.0000
  H   H2053     1.0  0.42975  0.66738  0.96597  1.0000
  H   H2054     1.0  0.23891  0.50525  0.98709  1.0000
  H   H2055     1.0  0.43248  0.71532  0.97672  1.0000
  C   C2580     1.0  0.02538  0.49344  0.87028  1.0000
  H   H2056     1.0  0.01469  0.50209  0.83111  1.0000
  H   H2057     1.0  0.08062  0.50853  0.90005  1.0000
  S   S391      1.0  0.43504  0.63709  0.96863  1.0000
  H   H2058     1.0  0.36127  0.49446  0.97047  1.0000
  Fe  Fe201     1.0  0.09003  0.49333  0.84195  1.0000
  H   H2059     1.0  0.03732  0.52338  0.75044  1.0000
  H   H2060     1.0  0.33440  0.54752  0.96101  1.0000
  C   C2581     1.0  0.34057  0.56360  0.88800  1.0000
  C   C2582     1.0  0.23023  0.59423  0.96712  1.0000
  H   H2061     1.0  0.26852  0.53938  0.98505  1.0000
  H   H2062     1.0  0.36522  0.55055  0.91387  1.0000
  C   C2583     1.0  0.01796  0.55812  0.78965  1.0000
  H   H2063     1.0  0.46130  0.73784  0.97462  1.0000
  C   C2584     1.0  0.26284  0.61244  0.98059  1.0000
  C   C2585     1.0  0.39454  0.50422  0.94584  1.0000
  C   C2586     1.0  0.40104  0.51021  0.93572  1.0000
  C   C2587     1.0  0.40657  0.50488  0.92616  1.0000
  C   C2588     1.0  0.47413  0.66520  0.97371  1.0000
  C   C2589     1.0  0.43329  0.49466  0.91228  1.0000
  H   H2064     1.0  0.02172  0.50669  0.78815  1.0000
  H   H2065     1.0  0.40627  0.50468  0.89545  1.0000
  H   H2066     1.0  0.15889  0.51881  0.87574  1.0000
  H   H2067     1.0  0.26482  0.50024  0.92619  1.0000
  C   C2590     1.0  0.44442  0.72592  0.96538  1.0000
  H   H2068     1.0  0.43081  0.49398  0.92170  1.0000
  H   H2069     1.0  0.35653  0.54247  0.98933  1.0000
  S   S392      1.0  0.38712  0.56925  0.97833  1.0000
  H   H2070     1.0  0.21464  0.50509  0.92596  1.0000
  H   H2071     1.0  0.41021  0.49308  0.98622  1.0000
  H   H2072     1.0  0.18768  0.54556  0.96731  1.0000
  H   H2073     1.0  0.01209  0.52919  0.74834  1.0000
  C   C2591     1.0  0.19373  0.61914  0.98312  1.0000
  H   H2074     1.0  0.13819  0.55982  0.98482  1.0000
  C   C2592     1.0  0.15289  0.55339  0.97168  1.0000
  H   H2075     1.0  0.39057  0.50819  0.95338  1.0000
  H   H2076     1.0  0.40187  0.51894  0.93536  1.0000
  H   H2077     1.0  0.41156  0.50967  0.91841  1.0000
  H   H2078     1.0  0.47417  0.68101  0.96021  1.0000
  H   H2079     1.0  0.41321  0.59082  0.98902  1.0000
  C   C2593     1.0  0.49043  0.61872  0.95095  1.0000
  C   C2594     1.0  0.49146  0.63016  0.94969  1.0000
  H   H2080     1.0  0.39396  0.73824  0.94926  1.0000
  C   C2595     1.0  0.40360  0.51174  0.98520  1.0000
  H   H2081     1.0  0.10585  0.50546  0.75037  1.0000
  C   C2596     1.0  0.42169  0.68347  0.95529  1.0000
  H   H2082     1.0  0.02707  0.53375  0.83656  1.0000
  C   C2597     1.0  0.02708  0.55472  0.79561  1.0000
  H   H2083     1.0  0.43715  0.66775  0.92932  1.0000
  H   H2084     1.0  0.38308  0.72246  0.95411  1.0000
  C   C2598     1.0  0.49428  0.65947  0.91490  1.0000
  H   H2085     1.0  0.39862  0.69870  0.98748  1.0000
  Fe  Fe202     1.0  0.05684  0.52408  0.76974  1.0000
  H   H2086     1.0  0.39302  0.66005  0.98702  1.0000
  C   C2599     1.0  0.01869  0.57366  0.75425  1.0000
  C   C2600     1.0  0.36110  0.56494  0.89304  1.0000
  H   H2087     1.0  0.28798  0.57190  0.98349  1.0000
  C   C2601     1.0  0.49186  0.65428  0.95715  1.0000
  H   H2088     1.0  0.32180  0.53509  0.97850  1.0000
  H   H2089     1.0  0.01704  0.51262  0.84464  1.0000
  H   H2090     1.0  0.22768  0.50133  0.87978  1.0000
  C   C2602     1.0  0.43608  0.69066  0.98912  1.0000
  C   C2603     1.0  0.48677  0.66631  0.95425  1.0000
  H   H2091     1.0  0.36821  0.49352  0.94785  1.0000
  C   C2604     1.0  0.05459  0.49713  0.77491  1.0000
  H   H2092     1.0  0.48206  0.61713  0.95114  1.0000
  H   H2093     1.0  0.48374  0.63728  0.94912  1.0000
  H   H2094     1.0  0.04180  0.50912  0.81385  1.0000
  H   H2095     1.0  0.41383  0.54261  0.88815  1.0000
  H   H2096     1.0  0.47626  0.64810  0.98535  1.0000
  C   C2605     1.0  0.06348  0.49877  0.79869  1.0000
  H   H2097     1.0  0.48883  0.65749  0.91038  1.0000
  H   H2098     1.0  0.49150  0.64534  0.92955  1.0000
  C   C2606     1.0  0.39720  0.70876  0.96006  1.0000
  C   C2607     1.0  0.35178  0.57477  0.89229  1.0000
  H   H2099     1.0  0.37512  0.51934  0.93908  1.0000
  H   H2100     1.0  0.35237  0.58288  0.89393  1.0000
  C   C2608     1.0  0.19237  0.54022  0.96091  1.0000
  H   H2101     1.0  0.21436  0.50152  0.95897  1.0000
  H   H2102     1.0  0.17111  0.61508  0.81902  1.0000
  H   H2103     1.0  0.11802  0.51264  0.87272  1.0000
  C   C2609     1.0  0.38029  0.66025  0.96203  1.0000
  C   C2610     1.0  0.01614  0.49396  0.81715  1.0000
  C   C2611     1.0  0.29526  0.49569  0.97936  1.0000
  C   C2612     1.0  0.26286  0.55593  0.97375  1.0000
  H   H2104     1.0  0.06021  0.50340  0.82092  1.0000
  C   C2613     1.0  0.34154  0.57412  0.88973  1.0000
  H   H2105     1.0  0.03419  0.55929  0.79254  1.0000
  H   H2106     1.0  0.23420  0.60577  0.93770  1.0000
  H   H2107     1.0  0.44351  0.49589  0.87882  1.0000
  H   H2108     1.0  0.10447  0.52391  0.77625  1.0000
  C   C2614     1.0  0.44808  0.69250  0.96943  1.0000
  C   C2615     1.0  0.10444  0.52732  0.85199  1.0000
  C   C2616     1.0  0.09929  0.52640  0.84347  1.0000
  C   C2617     1.0  0.08732  0.52660  0.84611  1.0000
  C   C2618     1.0  0.08051  0.52752  0.85734  1.0000
  C   C2619     1.0  0.08566  0.52820  0.86605  1.0000
  C   C2620     1.0  0.09763  0.52834  0.86320  1.0000
  P   P85       1.0  0.07666  0.52947  0.88049  1.0000
  C   C2621     1.0  0.06633  0.52023  0.88394  1.0000
  C   C2622     1.0  0.08562  0.52515  0.89129  1.0000
  C   C2623     1.0  0.08575  0.51456  0.89974  1.0000
  C   C2624     1.0  0.09274  0.51148  0.90796  1.0000
  C   C2625     1.0  0.09967  0.51890  0.90783  1.0000
  C   C2626     1.0  0.09950  0.52950  0.89958  1.0000
  C   C2627     1.0  0.09242  0.53268  0.89142  1.0000
  C   C2628     1.0  0.05415  0.52498  0.88588  1.0000
  H   H2109     1.0  0.26269  0.62150  0.97613  1.0000
  H   H2110     1.0  0.10708  0.52331  0.75541  1.0000
  C   C2629     1.0  0.06272  0.50111  0.88569  1.0000
  C   C2630     1.0  0.42791  0.69068  0.97306  1.0000
  C   C2631     1.0  0.06894  0.54454  0.88038  1.0000
  C   C2632     1.0  0.06386  0.54817  0.89105  1.0000
  C   C2633     1.0  0.05778  0.55979  0.89112  1.0000
  C   C2634     1.0  0.05668  0.56786  0.88056  1.0000
  C   C2635     1.0  0.06168  0.56431  0.86990  1.0000
  C   C2636     1.0  0.06778  0.55269  0.86979  1.0000
  H   H2111     1.0  0.11374  0.52712  0.84994  1.0000
  H   H2112     1.0  0.10456  0.52541  0.83482  1.0000
  H   H2113     1.0  0.08340  0.52575  0.83950  1.0000
  H   H2114     1.0  0.07127  0.52750  0.85925  1.0000
  H   H2115     1.0  0.10183  0.52900  0.86962  1.0000
  C   C2637     1.0  0.20641  0.49831  0.96308  1.0000
  C   C2638     1.0  0.25540  0.59483  0.98463  1.0000
  H   H2116     1.0  0.10543  0.51628  0.91392  1.0000
  H   H2117     1.0  0.10508  0.53510  0.89937  1.0000
  H   H2118     1.0  0.09244  0.54092  0.88507  1.0000
  H   H2119     1.0  0.05064  0.53421  0.88579  1.0000
  H   H2120     1.0  0.36798  0.50922  0.86855  1.0000
  C   C2639     1.0  0.07053  0.50827  0.88377  1.0000
  C   C2640     1.0  0.40274  0.67351  0.97831  1.0000
  C   C2641     1.0  0.21196  0.49440  0.88609  1.0000
  H   H2121     1.0  0.06461  0.54198  0.89931  1.0000
  H   H2122     1.0  0.05196  0.57687  0.88062  1.0000
  H   H2123     1.0  0.06082  0.57056  0.86170  1.0000
  H   H2124     1.0  0.07156  0.55015  0.86143  1.0000
  C   C2642     1.0  0.28186  0.50173  0.92678  1.0000
  C   C2643     1.0  0.29303  0.50303  0.92033  1.0000
  C   C2644     1.0  0.29594  0.50387  0.90820  1.0000
  C   C2645     1.0  0.28776  0.50302  0.90251  1.0000
  P   P86       1.0  0.29139  0.50439  0.88680  1.0000
  C   C2646     1.0  0.28906  0.51971  0.87949  1.0000
  C   C2647     1.0  0.30680  0.49777  0.88212  1.0000
  S   S393      1.0  0.07609  0.52102  0.76894  1.0000
  S   S394      1.0  0.04233  0.56568  0.75071  1.0000
  H   H2125     1.0  0.43322  0.60844  0.95746  1.0000
  H   H2126     1.0  0.05808  0.50758  0.79708  1.0000
  H   H2127     1.0  0.15480  0.60963  0.83547  1.0000
  C   C2648     1.0  0.29307  0.52295  0.86729  1.0000
  C   C2649     1.0  0.29146  0.53482  0.86162  1.0000
  C   C2650     1.0  0.28590  0.54352  0.86811  1.0000
  C   C2651     1.0  0.28201  0.54035  0.88026  1.0000
  C   C2652     1.0  0.28365  0.52850  0.88593  1.0000
  H   H2128     1.0  0.27970  0.50114  0.93613  1.0000
  H   H2129     1.0  0.29944  0.50344  0.92474  1.0000
  H   H2130     1.0  0.30460  0.50510  0.90336  1.0000
  H   H2131     1.0  0.31274  0.51315  0.88159  1.0000
  C   C2653     1.0  0.39409  0.66860  0.98697  1.0000
  C   C2654     1.0  0.48145  0.71045  0.97364  1.0000
  H   H2132     1.0  0.08098  0.50928  0.74167  1.0000
  C   C2655     1.0  0.25226  0.57209  0.98343  1.0000
  C   C2656     1.0  0.20371  0.57167  0.96341  1.0000
  H   H2133     1.0  0.29455  0.53729  0.85221  1.0000
  H   H2134     1.0  0.28466  0.55272  0.86377  1.0000
  H   H2135     1.0  0.27779  0.54708  0.88533  1.0000
  H   H2136     1.0  0.28078  0.52625  0.89534  1.0000
  C   C2657     1.0  0.22763  0.59873  0.95599  1.0000
  H   H2137     1.0  0.34880  0.54566  0.88754  1.0000
  C   C2658     1.0  0.03208  0.49427  0.74775  1.0000
  C   C2659     1.0  0.31528  0.50429  0.88014  1.0000
  H   H2138     1.0  0.19178  0.60671  0.82091  1.0000
  H   H2139     1.0  0.41425  0.73337  0.95252  1.0000
  P   P87       1.0  0.20224  0.50765  0.88997  1.0000
  C   C2660     1.0  0.20795  0.52070  0.88305  1.0000
  C   C2661     1.0  0.18855  0.51085  0.88546  1.0000
  H   H2140     1.0  0.26319  0.50098  0.86605  1.0000
  Fe  Fe203     1.0  0.46153  0.62529  0.98314  1.0000
  C   C2662     1.0  0.43872  0.69190  0.96529  1.0000
  C   C2663     1.0  0.16869  0.52266  0.88587  1.0000
  C   C2664     1.0  0.17930  0.51973  0.88943  1.0000
  C   C2665     1.0  0.21396  0.52246  0.87124  1.0000
  C   C2666     1.0  0.21799  0.53279  0.86583  1.0000
  C   C2667     1.0  0.21573  0.54155  0.87207  1.0000
  C   C2668     1.0  0.20937  0.54004  0.88369  1.0000
  C   C2669     1.0  0.20549  0.52966  0.88916  1.0000
  C   C2670     1.0  0.20022  0.50509  0.90568  1.0000
  C   C2671     1.0  0.20913  0.50592  0.91037  1.0000
  C   C2672     1.0  0.20770  0.50428  0.92249  1.0000
  C   C2673     1.0  0.19747  0.50135  0.93006  1.0000
  C   C2674     1.0  0.18873  0.50006  0.92546  1.0000
  C   C2675     1.0  0.19011  0.50187  0.91330  1.0000
  C   C2676     1.0  0.38587  0.54685  0.88492  1.0000
  C   C2677     1.0  0.03306  0.52178  0.82476  1.0000
  H   H2141     1.0  0.45661  0.73706  0.95644  1.0000
  H   H2142     1.0  0.37565  0.65320  0.96555  1.0000
  H   H2143     1.0  0.20704  0.60366  0.98760  1.0000
  Fe  Fe204     1.0  0.07695  0.53153  0.75042  1.0000
  C   C2678     1.0  0.43892  0.72006  0.97627  1.0000
  H   H2144     1.0  0.34930  0.55751  0.96162  1.0000
  H   H2145     1.0  0.16148  0.52931  0.88932  1.0000
  H   H2146     1.0  0.18036  0.52436  0.89531  1.0000
  H   H2147     1.0  0.21555  0.51587  0.86623  1.0000
  H   H2148     1.0  0.22281  0.53403  0.85678  1.0000
  H   H2149     1.0  0.21883  0.54955  0.86791  1.0000
  H   H2150     1.0  0.20742  0.54688  0.88852  1.0000
  H   H2151     1.0  0.20055  0.52869  0.89814  1.0000
  H   H2152     1.0  0.21718  0.50780  0.90459  1.0000
  C   C2679     1.0  0.17654  0.50807  0.87397  1.0000
  C   C2680     1.0  0.12852  0.49557  0.83446  1.0000
  H   H2153     1.0  0.00201  0.55454  0.78858  1.0000
  H   H2154     1.0  0.18315  0.50104  0.90990  1.0000
  C   C2681     1.0  0.36378  0.52362  0.89019  1.0000
  H   H2155     1.0  0.22357  0.59103  0.97436  1.0000
  C   C2682     1.0  0.29863  0.53720  0.90058  1.0000
  C   C2683     1.0  0.29989  0.54849  0.89447  1.0000
  C   C2684     1.0  0.29120  0.55823  0.89730  1.0000
  C   C2685     1.0  0.28125  0.55670  0.90623  1.0000
  C   C2686     1.0  0.28008  0.54542  0.91262  1.0000
  C   C2687     1.0  0.28881  0.53568  0.90967  1.0000
  P   P88       1.0  0.26617  0.54328  0.92199  1.0000
  C   C2688     1.0  0.25877  0.55480  0.92983  1.0000
  C   C2689     1.0  0.25840  0.54277  0.91167  1.0000
  C   C2690     1.0  0.25373  0.55325  0.90445  1.0000
  C   C2691     1.0  0.24992  0.55297  0.89474  1.0000
  C   C2692     1.0  0.25077  0.54224  0.89216  1.0000
  C   C2693     1.0  0.25548  0.53178  0.89928  1.0000
  C   C2694     1.0  0.25916  0.53204  0.90908  1.0000
  C   C2695     1.0  0.24646  0.55786  0.93280  1.0000
  C   C2696     1.0  0.24068  0.56608  0.93981  1.0000
  C   C2697     1.0  0.24718  0.57120  0.94395  1.0000
  C   C2698     1.0  0.25945  0.56802  0.94119  1.0000
  C   C2699     1.0  0.26523  0.55963  0.93439  1.0000
  C   C2700     1.0  0.26770  0.53047  0.93365  1.0000
  C   C2701     1.0  0.27734  0.52734  0.93893  1.0000
  C   C2702     1.0  0.27764  0.51860  0.94920  1.0000
  C   C2703     1.0  0.26827  0.51303  0.95431  1.0000
  C   C2704     1.0  0.25866  0.51611  0.94907  1.0000
  C   C2705     1.0  0.25832  0.52485  0.93882  1.0000
  H   H2156     1.0  0.30532  0.52962  0.89836  1.0000
  H   H2157     1.0  0.30761  0.54969  0.88757  1.0000
  H   H2158     1.0  0.29209  0.56698  0.89249  1.0000
  H   H2159     1.0  0.27436  0.56428  0.90798  1.0000
  H   H2160     1.0  0.28785  0.52692  0.91420  1.0000
  H   H2161     1.0  0.25338  0.56163  0.90610  1.0000
  H   H2162     1.0  0.24642  0.56111  0.88915  1.0000
  H   H2163     1.0  0.24774  0.54203  0.88469  1.0000
  H   H2164     1.0  0.25624  0.52346  0.89723  1.0000
  H   H2165     1.0  0.26294  0.52392  0.91440  1.0000
  H   H2166     1.0  0.24134  0.55370  0.92991  1.0000
  H   H2167     1.0  0.23115  0.56841  0.94209  1.0000
  H   H2168     1.0  0.24270  0.57749  0.94942  1.0000
  H   H2169     1.0  0.26450  0.57201  0.94436  1.0000
  H   H2170     1.0  0.27471  0.55675  0.93281  1.0000
  H   H2171     1.0  0.28441  0.53196  0.93539  1.0000
  H   H2172     1.0  0.28502  0.51641  0.95332  1.0000
  H   H2173     1.0  0.26837  0.50648  0.96241  1.0000
  H   H2174     1.0  0.25128  0.51202  0.95310  1.0000
  H   H2175     1.0  0.25054  0.52759  0.93520  1.0000
  C   C2706     1.0  0.32034  0.56289  0.96166  1.0000
  C   C2707     1.0  0.36893  0.51540  0.87295  1.0000
  C   C2708     1.0  0.18721  0.50519  0.87747  1.0000
  C   C2709     1.0  0.33712  0.57423  0.96213  1.0000
  C   C2710     1.0  0.32552  0.58057  0.96204  1.0000
  C   C2711     1.0  0.31716  0.57480  0.96181  1.0000
  P   P89       1.0  0.32109  0.59590  0.96256  1.0000
  C   C2712     1.0  0.31144  0.60301  0.95254  1.0000
  C   C2713     1.0  0.30068  0.61075  0.95589  1.0000
  C   C2714     1.0  0.29325  0.61605  0.94805  1.0000
  C   C2715     1.0  0.29658  0.61379  0.93678  1.0000
  C   C2716     1.0  0.30724  0.60609  0.93343  1.0000
  C   C2717     1.0  0.31450  0.60051  0.94134  1.0000
  H   H2176     1.0  0.31377  0.55853  0.96166  1.0000
  H   H2177     1.0  0.99996  0.58007  0.75661  1.0000
  H   H2178     1.0  0.27696  0.61085  0.98876  1.0000
  C   C2718     1.0  0.10802  0.49925  0.87768  1.0000
  H   H2179     1.0  0.30816  0.57951  0.96174  1.0000
  C   C2719     1.0  0.33814  0.52825  0.98426  1.0000
  H   H2180     1.0  0.29787  0.61256  0.96459  1.0000
  H   H2181     1.0  0.28482  0.62175  0.95073  1.0000
  H   H2182     1.0  0.29076  0.61770  0.93075  1.0000
  H   H2183     1.0  0.30985  0.60426  0.92475  1.0000
  C   C2720     1.0  0.49010  0.61325  0.98650  1.0000
  C   C2721     1.0  0.06536  0.49684  0.76686  1.0000
  H   H2184     1.0  0.39586  0.53517  0.89755  1.0000
  C   C2722     1.0  0.34984  0.55371  0.88879  1.0000
  H   H2185     1.0  0.07946  0.50465  0.79143  1.0000
  H   H2186     1.0  0.17541  0.50348  0.86806  1.0000
  C   C2723     1.0  0.37864  0.51714  0.92140  1.0000
  C   C2724     1.0  0.36411  0.49690  0.94041  1.0000
  C   C2725     1.0  0.35374  0.50570  0.94090  1.0000
  C   C2726     1.0  0.34817  0.50935  0.93139  1.0000
  P   P90       1.0  0.34640  0.51029  0.95456  1.0000
  C   C2727     1.0  0.33887  0.49906  0.96382  1.0000
  C   C2728     1.0  0.35679  0.51261  0.96134  1.0000
  C   C2729     1.0  0.36270  0.50322  0.96882  1.0000
  C   C2730     1.0  0.37053  0.50505  0.97428  1.0000
  C   C2731     1.0  0.37272  0.51620  0.97213  1.0000
  C   C2732     1.0  0.36702  0.52557  0.96457  1.0000
  C   C2733     1.0  0.35901  0.52382  0.95929  1.0000
  H   H2187     1.0  0.44866  0.50101  0.91040  1.0000
  H   H2188     1.0  0.15307  0.49795  0.96781  1.0000
  S   S395      1.0  0.47143  0.73315  0.93356  1.0000
  C   C2734     1.0  0.45521  0.73271  0.97509  1.0000
  H   H2189     1.0  0.49057  0.73387  0.95038  1.0000
  C   C2735     1.0  0.33541  0.52366  0.95190  1.0000
  C   C2736     1.0  0.32407  0.52477  0.95913  1.0000
  C   C2737     1.0  0.31538  0.53481  0.95673  1.0000
  C   C2738     1.0  0.31787  0.54381  0.94709  1.0000
  C   C2739     1.0  0.32908  0.54281  0.93981  1.0000
  C   C2740     1.0  0.33788  0.53281  0.94224  1.0000
  H   H2190     1.0  0.10136  0.49270  0.96838  1.0000
  H   H2191     1.0  0.02341  0.52253  0.79589  1.0000
  H   H2192     1.0  0.39671  0.56706  0.86170  1.0000
  C   C2741     1.0  0.44056  0.49569  0.88814  1.0000
  H   H2193     1.0  0.33971  0.51547  0.93176  1.0000
  H   H2194     1.0  0.17776  0.57786  0.97337  1.0000
  C   C2742     1.0  0.26366  0.54837  0.98462  1.0000
  H   H2195     1.0  0.37891  0.51756  0.97626  1.0000
  H   H2196     1.0  0.36883  0.53421  0.96280  1.0000
  H   H2197     1.0  0.35465  0.53126  0.95359  1.0000
  H   H2198     1.0  0.33835  0.50323  0.98015  1.0000
  C   C2743     1.0  0.29624  0.49462  0.96797  1.0000
  C   C2744     1.0  0.48807  0.64779  0.96846  1.0000
  C   C2745     1.0  0.10311  0.49566  0.76831  1.0000
  H   H2199     1.0  0.16397  0.56468  0.98281  1.0000
  H   H2200     1.0  0.32176  0.51794  0.96660  1.0000
  H   H2201     1.0  0.30666  0.53551  0.96232  1.0000
  H   H2202     1.0  0.31102  0.55151  0.94517  1.0000
  H   H2203     1.0  0.33082  0.54968  0.93216  1.0000
  H   H2204     1.0  0.34648  0.53208  0.93640  1.0000
  H   H2205     1.0  0.13707  0.51516  0.97105  1.0000
  H   H2206     1.0  0.27577  0.51138  0.87000  1.0000
  C   C2746     1.0  0.43478  0.63413  0.94068  1.0000
  C   C2747     1.0  0.43630  0.64179  0.92971  1.0000
  C   C2748     1.0  0.42656  0.64970  0.92593  1.0000
  C   C2749     1.0  0.41534  0.65013  0.93325  1.0000
  C   C2750     1.0  0.41385  0.64280  0.94450  1.0000
  C   C2751     1.0  0.42358  0.63454  0.94800  1.0000
  P   P91       1.0  0.39937  0.64334  0.95389  1.0000
  C   C2752     1.0  0.39192  0.63693  0.94725  1.0000
  C   C2753     1.0  0.40044  0.63531  0.96861  1.0000
  C   C2754     1.0  0.39614  0.62506  0.97377  1.0000
  H   H2207     1.0  0.11341  0.50075  0.84780  1.0000
  C   C2755     1.0  0.16726  0.51677  0.87821  1.0000
  H   H2208     1.0  0.29746  0.51629  0.86219  1.0000
  C   C2756     1.0  0.40562  0.63951  0.97509  1.0000
  C   C2757     1.0  0.38190  0.64349  0.94291  1.0000
  C   C2758     1.0  0.37663  0.63845  0.93730  1.0000
  C   C2759     1.0  0.38139  0.62691  0.93586  1.0000
  C   C2760     1.0  0.39142  0.62039  0.94003  1.0000
  C   C2761     1.0  0.39673  0.62541  0.94559  1.0000
  C   C2762     1.0  0.39197  0.65810  0.95562  1.0000
  C   C2763     1.0  0.39802  0.66722  0.95174  1.0000
  H   H2209     1.0  0.44234  0.62794  0.94357  1.0000
  H   H2210     1.0  0.44505  0.64156  0.92419  1.0000
  H   H2211     1.0  0.42773  0.65550  0.91735  1.0000
  H   H2212     1.0  0.40784  0.65621  0.93020  1.0000
  H   H2213     1.0  0.42259  0.62847  0.95642  1.0000
  H   H2214     1.0  0.39204  0.62158  0.96912  1.0000
  C   C2764     1.0  0.19772  0.60763  0.98893  1.0000
  C   C2765     1.0  0.43263  0.67209  0.93654  1.0000
  H   H2215     1.0  0.40902  0.64737  0.97129  1.0000
  H   H2216     1.0  0.37738  0.62301  0.93145  1.0000
  H   H2217     1.0  0.39515  0.61142  0.93894  1.0000
  H   H2218     1.0  0.40460  0.62027  0.94862  1.0000
  H   H2219     1.0  0.40723  0.66569  0.94742  1.0000
  H   H2220     1.0  0.14964  0.55984  0.96449  1.0000
  C   C2766     1.0  0.27085  0.60647  0.98770  1.0000
  H   H2221     1.0  0.36890  0.64352  0.93398  1.0000
  H   H2222     1.0  0.25411  0.60448  0.94031  1.0000
  S   S396      1.0  0.48548  0.71677  0.91398  1.0000
  H   H2223     1.0  0.33255  0.56308  0.88614  1.0000
  H   H2224     1.0  0.25725  0.57354  0.96462  1.0000
  C   C2767     1.0  0.47635  0.70321  0.98374  1.0000
  C   C2768     1.0  0.39333  0.49939  0.89043  1.0000
  C   C2769     1.0  0.23628  0.50036  0.97251  1.0000
  H   H2225     1.0  0.33467  0.60593  0.93926  1.0000
  C   C2770     1.0  0.16323  0.53601  0.95045  1.0000
  C   C2771     1.0  0.14310  0.51162  0.97690  1.0000
  H   H2226     1.0  0.19749  0.59848  0.97001  1.0000
  H   H2227     1.0  0.30065  0.50053  0.98096  1.0000
  C   C2772     1.0  0.36980  0.53563  0.92732  1.0000
  C   C2773     1.0  0.10447  0.51589  0.77401  1.0000
  H   H2228     1.0  0.19620  0.59291  0.83909  1.0000
  C   C2774     1.0  0.31344  0.59778  0.97722  1.0000
  H   H2229     1.0  0.20894  0.53749  0.96553  1.0000
  C   C2775     1.0  0.40143  0.49795  0.89720  1.0000
  C   C2776     1.0  0.04469  0.52383  0.83704  1.0000
  C   C2777     1.0  0.21080  0.52911  0.95149  1.0000
  H   H2230     1.0  0.17335  0.56592  0.95857  1.0000
  H   H2231     1.0  0.25863  0.59679  0.95988  1.0000
  H   H2232     1.0  0.37825  0.65252  0.94366  1.0000
  H   H2233     1.0  0.32251  0.59421  0.93868  1.0000
  C   C2778     1.0  0.40616  0.54622  0.88434  1.0000
  C   C2779     1.0  0.09425  0.51463  0.81599  1.0000
  H   H2234     1.0  0.19724  0.51358  0.97021  1.0000
  C   C2780     1.0  0.39190  0.72036  0.95556  1.0000
  S   S397      1.0  0.45687  0.72329  0.92056  1.0000
  H   H2235     1.0  0.31586  0.61542  0.97414  1.0000
  C   C2781     1.0  0.17302  0.60901  0.82702  1.0000
  C   C2782     1.0  0.20221  0.58006  0.96990  1.0000
  C   C2783     1.0  0.29008  0.56003  0.97245  1.0000
  C   C2784     1.0  0.28706  0.57109  0.97525  1.0000
  H   H2236     1.0  0.42562  0.68831  0.92555  1.0000
  C   C2785     1.0  0.39652  0.56002  0.86946  1.0000
  C   C2786     1.0  0.17795  0.59331  0.84776  1.0000
  H   H2237     1.0  0.39699  0.68541  0.95071  1.0000
  C   C2787     1.0  0.31226  0.60837  0.98043  1.0000
  C   C2788     1.0  0.45253  0.73230  0.96480  1.0000
  C   C2789     1.0  0.14636  0.55337  0.98315  1.0000
  C   C2790     1.0  0.37782  0.52263  0.90987  1.0000
  C   C2791     1.0  0.25502  0.60672  0.97920  1.0000
  Fe  Fe205     1.0  0.36876  0.57512  0.97537  1.0000
  H   H2238     1.0  0.36892  0.56561  0.89516  1.0000
  H   H2239     1.0  0.14446  0.51831  0.94425  1.0000
  H   H2240     1.0  0.20645  0.56243  0.96717  1.0000
  C   C2792     1.0  0.39800  0.72926  0.95284  1.0000
  C   C2793     1.0  0.33398  0.60204  0.95794  1.0000
  C   C2794     1.0  0.33867  0.60620  0.94601  1.0000
  C   C2795     1.0  0.17221  0.57874  0.94254  1.0000
  C   C2796     1.0  0.16924  0.56101  0.93391  1.0000
  C   C2797     1.0  0.07965  0.52186  0.80394  1.0000
  H   H2241     1.0  0.17500  0.52950  0.97743  1.0000
  C   C2798     1.0  0.10243  0.50607  0.78289  1.0000
  H   H2242     1.0  0.38290  0.53734  0.86802  1.0000
  H   H2243     1.0  0.24875  0.61155  0.97380  1.0000
  H   H2244     1.0  0.33371  0.50433  0.87528  1.0000
  C   C2799     1.0  0.39228  0.67843  0.95376  1.0000
  H   H2245     1.0  0.17907  0.50666  0.97922  1.0000
  S   S398      1.0  0.20652  0.51778  0.98789  1.0000
  C   C2800     1.0  0.03033  0.50813  0.75947  1.0000
  C   C2801     1.0  0.44682  0.69172  0.98137  1.0000
  H   H2246     1.0  0.22021  0.52581  0.95056  1.0000
  C   C2802     1.0  0.18713  0.59648  0.83840  1.0000
  H   H2247     1.0  0.05390  0.56254  0.89939  1.0000
  H   H2248     1.0  0.40342  0.58446  0.97728  1.0000
  C   C2803     1.0  0.43368  0.66622  0.94794  1.0000
  C   C2804     1.0  0.36026  0.55436  0.89116  1.0000
  C   C2805     1.0  0.38626  0.55586  0.87476  1.0000
  C   C2806     1.0  0.02730  0.54514  0.80518  1.0000
  H   H2249     1.0  0.33428  0.58176  0.88932  1.0000
  H   H2250     1.0  0.39242  0.70194  0.96206  1.0000
  C   C2807     1.0  0.19673  0.50514  0.96935  1.0000
  C   C2808     1.0  0.05065  0.50591  0.88745  1.0000
  C   C2809     1.0  0.27355  0.50115  0.92118  1.0000
  C   C2810     1.0  0.27644  0.50189  0.90906  1.0000
  S   S399      1.0  0.05810  0.53294  0.75074  1.0000
  C   C2811     1.0  0.16717  0.53637  0.97892  1.0000
  H   H2251     1.0  0.15900  0.59597  0.85370  1.0000
  C   C2812     1.0  0.34886  0.61056  0.94259  1.0000
  H   H2252     1.0  0.35254  0.61350  0.93336  1.0000
  C   C2813     1.0  0.03570  0.51538  0.74960  1.0000
  C   C2814     1.0  0.18651  0.53791  0.95366  1.0000
  C   C2815     1.0  0.37461  0.67145  0.96412  1.0000
  H   H2253     1.0  0.21015  0.52240  0.93715  1.0000
  H   H2254     1.0  0.39205  0.50711  0.88346  1.0000
  H   H2255     1.0  0.21876  0.57476  0.87384  1.0000
  C   C2816     1.0  0.33978  0.60220  0.96634  1.0000
  H   H2256     1.0  0.18884  0.53035  0.93882  1.0000
  C   C2817     1.0  0.41466  0.71499  0.95923  1.0000
  C   C2818     1.0  0.16345  0.54500  0.96951  1.0000
  H   H2257     1.0  0.01799  0.56530  0.78201  1.0000
  C   C2819     1.0  0.15228  0.50187  0.97504  1.0000
  C   C2820     1.0  0.42613  0.68366  0.93445  1.0000
  S   S400      1.0  0.45680  0.64413  0.97382  1.0000
  C   C2821     1.0  0.17107  0.58098  0.93096  1.0000
  H   H2258     1.0  0.33666  0.59862  0.97555  1.0000
  C   C2822     1.0  0.26853  0.49658  0.87245  1.0000
  C   C2823     1.0  0.20510  0.52711  0.94399  1.0000
  C   C2824     1.0  0.16627  0.59812  0.84663  1.0000
  C   C2825     1.0  0.00691  0.49300  0.74543  1.0000
  C   C2826     1.0  0.08423  0.51358  0.81320  1.0000
  H   H2259     1.0  0.22775  0.50635  0.97253  1.0000
  C   C2827     1.0  0.37113  0.53150  0.88440  1.0000
  C   C2828     1.0  0.49568  0.69264  0.98698  1.0000
  C   C2829     1.0  0.10522  0.50547  0.75944  1.0000
  H   H2260     1.0  0.03469  0.54244  0.80935  1.0000
  C   C2830     1.0  0.07569  0.49707  0.79535  1.0000
  H   H2261     1.0  0.43893  0.65735  0.94949  1.0000
  Fe  Fe206     1.0  0.45813  0.72210  0.93887  1.0000
  H   H2262     1.0  0.46689  0.70452  0.98640  1.0000
  S   S401      1.0  0.05178  0.54053  0.77651  1.0000
  C   C2831     1.0  0.12435  0.49901  0.96399  1.0000
  C   C2832     1.0  0.34988  0.60670  0.96291  1.0000
  C   C2833     1.0  0.35444  0.61085  0.95105  1.0000
  H   H2263     1.0  0.16901  0.57376  0.91758  1.0000
  C   C2834     1.0  0.02026  0.50573  0.79753  1.0000
  C   C2835     1.0  0.23617  0.60253  0.94634  1.0000
  C   C2836     1.0  0.04636  0.51783  0.88758  1.0000
  C   C2837     1.0  0.01832  0.53891  0.80892  1.0000
  H   H2264     1.0  0.12566  0.50285  0.82762  1.0000
  C   C2838     1.0  0.33193  0.55667  0.96150  1.0000
  S   S402      1.0  0.10051  0.50472  0.82736  1.0000
  C   C2839     1.0  0.19302  0.53160  0.94498  1.0000
  H   H2265     1.0  0.02764  0.51062  0.76787  1.0000
  S   S403      1.0  0.04736  0.49810  0.86226  1.0000
  Fe  Fe207     1.0  0.48460  0.71605  0.93274  1.0000
  C   C2840     1.0  0.37616  0.52328  0.86707  1.0000
  H   H2266     1.0  0.35871  0.52377  0.89907  1.0000
  H   H2267     1.0  0.17860  0.63296  0.98003  1.0000
  H   H2268     1.0  0.02053  0.58231  0.75105  1.0000
  H   H2269     1.0  0.21870  0.59568  0.87098  1.0000
  C   C2841     1.0  0.40646  0.55522  0.87426  1.0000
  H   H2270     1.0  0.36247  0.61397  0.94845  1.0000
  H   H2271     1.0  0.07181  0.52122  0.80187  1.0000
  H   H2272     1.0  0.08013  0.50636  0.81809  1.0000
  C   C2842     1.0  0.42841  0.67192  0.95725  1.0000
  C   C2843     1.0  0.16055  0.51755  0.94887  1.0000
  C   C2844     1.0  0.36281  0.51554  0.88451  1.0000
  H   H2273     1.0  0.19432  0.49857  0.87393  1.0000
  Fe  Fe208     1.0  0.05465  0.54924  0.75745  1.0000
  C   C2845     1.0  0.47800  0.67174  0.96253  1.0000
  C   C2846     1.0  0.40865  0.70600  0.96190  1.0000
  Fe  Fe209     1.0  0.47126  0.73312  0.91528  1.0000
  C   C2847     1.0  0.40982  0.58975  0.97290  1.0000
  C   C2848     1.0  0.10189  0.49579  0.78011  1.0000
  H   H2274     1.0  0.35439  0.60657  0.96947  1.0000
  P   P92       1.0  0.24528  0.58743  0.98280  1.0000
  S   S404      1.0  0.44142  0.72493  0.95252  1.0000
  H   H2275     1.0  0.36560  0.67303  0.96909  1.0000
  C   C2849     1.0  0.24991  0.59744  0.95891  1.0000
  H   H2276     1.0  0.35720  0.50943  0.88906  1.0000
  H   H2277     1.0  0.10463  0.50210  0.86979  1.0000
  H   H2278     1.0  0.00236  0.53757  0.80536  1.0000
  Fe  Fe210     1.0  0.44110  0.61867  0.97823  1.0000
  P   P93       1.0  0.37246  0.54179  0.89191  1.0000
  C   C2850     1.0  0.18466  0.60429  0.82808  1.0000
  C   C2851     1.0  0.39592  0.54203  0.88966  1.0000
  H   H2279     1.0  0.30244  0.49858  0.96071  1.0000
  C   C2852     1.0  0.42370  0.60035  0.97407  1.0000
  H   H2280     1.0  0.07989  0.50451  0.88194  1.0000
  H   H2281     1.0  0.47599  0.71720  0.96832  1.0000
  C   C2853     1.0  0.36887  0.54119  0.91580  1.0000
  C   C2854     1.0  0.22399  0.49380  0.88134  1.0000
  H   H2282     1.0  0.14888  0.55096  0.94717  1.0000
  C   C2855     1.0  0.11872  0.50334  0.97421  1.0000
  C   C2856     1.0  0.03425  0.52714  0.83306  1.0000
  H   H2283     1.0  0.13420  0.52396  0.98805  1.0000
  C   C2857     1.0  0.47922  0.65324  0.97668  1.0000
  C   C2858     1.0  0.01632  0.50322  0.82173  1.0000
  H   H2284     1.0  0.20969  0.49290  0.98955  1.0000
  C   C2859     1.0  0.28232  0.49691  0.88335  1.0000
  H   H2285     1.0  0.17945  0.59169  0.98378  1.0000
  C   C2860     1.0  0.40938  0.72656  0.95469  1.0000
  Fe  Fe211     1.0  0.43841  0.64285  0.98312  1.0000
  H   H2286     1.0  0.26978  0.50166  0.90486  1.0000
  H   H2287     1.0  0.03700  0.52155  0.88876  1.0000
  C   C2861     1.0  0.17324  0.58618  0.98801  1.0000
  H   H2288     1.0  0.09307  0.50315  0.91422  1.0000
  C   C2862     1.0  0.12174  0.49728  0.98501  1.0000
  C   C2863     1.0  0.40576  0.49345  0.92677  1.0000
  C   C2864     1.0  0.32646  0.52857  0.98472  1.0000
  H   H2289     1.0  0.00724  0.49683  0.75235  1.0000
  C   C2865     1.0  0.49364  0.70893  0.97035  1.0000
  H   H2290     1.0  0.42346  0.71310  0.96053  1.0000
  C   C2866     1.0  0.44216  0.71988  0.98652  1.0000
  H   H2291     1.0  0.00201  0.55003  0.74400  1.0000
  C   C2867     1.0  0.17224  0.57837  0.98202  1.0000
  S   S405      1.0  0.00203  0.49859  0.78117  1.0000
  C   C2868     1.0  0.45030  0.72624  0.98590  1.0000
  S   S406      1.0  0.43039  0.60465  0.98298  1.0000
  C   C2869     1.0  0.48350  0.69441  0.99046  1.0000
  C   C2870     1.0  0.42668  0.69005  0.98503  1.0000
  H   H2292     1.0  0.46717  0.66934  0.98008  1.0000
  C   C2871     1.0  0.44709  0.49913  0.89384  1.0000
  H   H2293     1.0  0.20000  0.62416  0.97733  1.0000
  C   C2872     1.0  0.40454  0.68436  0.97842  1.0000
  C   C2873     1.0  0.39733  0.61899  0.98512  1.0000
  C   C2874     1.0  0.39315  0.49312  0.94625  1.0000
  H   H2294     1.0  0.47957  0.72289  0.99091  1.0000
  C   C2875     1.0  0.99669  0.49645  0.74107  1.0000
  Fe  Fe212     1.0  0.46123  0.79962  0.03238  1.0000
  S   S407      1.0  0.46579  0.79938  0.01319  1.0000
  S   S408      1.0  0.46022  0.81643  0.03756  1.0000
  Fe  Fe213     1.0  0.45691  0.77464  0.03966  1.0000
  S   S409      1.0  0.46140  0.77247  0.02116  1.0000
  S   S410      1.0  0.45153  0.76085  0.05554  1.0000
  Fe  Fe214     1.0  0.47615  0.78114  0.01878  1.0000
  H   H2295     1.0  0.46245  0.74628  0.01134  1.0000
  Fe  Fe215     1.0  0.45062  0.79081  0.01745  1.0000
  S   S411      1.0  0.43566  0.79508  0.00854  1.0000
  S   S412      1.0  0.47247  0.78188  0.03784  1.0000
  S   S413      1.0  0.44512  0.79251  0.03619  1.0000
  H   H2296     1.0  0.48589  0.89556  0.10771  1.0000
  C   C2876     1.0  0.49197  0.95285  0.12682  1.0000
  H   H2297     1.0  0.47686  0.75626  0.06622  1.0000
  H   H2298     1.0  0.49160  0.83712  0.02378  1.0000
  H   H2299     1.0  0.49394  0.89662  0.05538  1.0000
  H   H2300     1.0  0.45939  0.81040  0.07068  1.0000
  C   C2877     1.0  0.48980  0.90312  0.10483  1.0000
  C   C2878     1.0  0.47879  0.76364  0.11814  1.0000
  H   H2301     1.0  0.45142  0.78149  0.12116  1.0000
  H   H2302     1.0  0.45437  0.93444  0.16228  1.0000
  H   H2303     1.0  0.40872  0.76564  0.99694  1.0000
  C   C2879     1.0  0.40982  0.77298  0.01079  1.0000
  H   H2304     1.0  0.48798  0.78470  0.06800  1.0000
  H   H2305     1.0  0.46267  0.96684  0.24021  1.0000
  C   C2880     1.0  0.46826  0.77035  0.12344  1.0000
  C   C2881     1.0  0.43807  0.80160  0.99353  1.0000
  C   C2882     1.0  0.45525  0.75266  0.00800  1.0000
  C   C2883     1.0  0.45974  0.92863  0.17875  1.0000
  C   C2884     1.0  0.49343  0.90769  0.09283  1.0000
  C   C2885     1.0  0.43668  0.76928  0.99952  1.0000
  C   C2886     1.0  0.41969  0.75946  0.03187  1.0000
  H   H2306     1.0  0.43254  0.97044  0.22688  1.0000
  C   C2887     1.0  0.45945  0.82953  0.00679  1.0000
  C   C2888     1.0  0.42188  0.75815  0.05458  1.0000
  H   H2307     1.0  0.45299  0.98420  0.17273  1.0000
  C   C2889     1.0  0.47129  0.81831  0.04319  1.0000
  C   C2890     1.0  0.47135  0.82968  0.04369  1.0000
  C   C2891     1.0  0.47958  0.83153  0.04870  1.0000
  C   C2892     1.0  0.47081  0.75437  0.08500  1.0000
  C   C2893     1.0  0.48697  0.96244  0.21711  1.0000
  C   C2894     1.0  0.47960  0.80876  0.04770  1.0000
  H   H2308     1.0  0.46495  0.83709  0.04024  1.0000
  H   H2309     1.0  0.47942  0.84032  0.04918  1.0000
  C   C2895     1.0  0.49307  0.78670  0.09961  1.0000
  H   H2310     1.0  0.47960  0.79997  0.04739  1.0000
  H   H2311     1.0  0.41957  0.80623  0.99387  1.0000
  H   H2312     1.0  0.46662  0.92486  0.19423  1.0000
  H   H2313     1.0  0.46747  0.95469  0.07828  1.0000
  C   C2896     1.0  0.48310  0.94087  0.07630  1.0000
  H   H2314     1.0  0.49223  0.90350  0.08664  1.0000
  C   C2897     1.0  0.43430  0.75985  0.00889  1.0000
  C   C2898     1.0  0.47215  0.76912  0.09988  1.0000
  H   H2315     1.0  0.46673  0.77082  0.13253  1.0000
  C   C2899     1.0  0.48275  0.95344  0.21584  1.0000
  H   H2316     1.0  0.46756  0.98598  0.20558  1.0000
  C   C2900     1.0  0.44821  0.77050  0.99466  1.0000
  H   H2317     1.0  0.48904  0.75963  0.04765  1.0000
  C   C2901     1.0  0.49234  0.97209  0.12845  1.0000
  C   C2902     1.0  0.42616  0.76660  0.04519  1.0000
  C   C2903     1.0  0.47330  0.75079  0.07439  1.0000
  C   C2904     1.0  0.47425  0.95001  0.07220  1.0000
  C   C2905     1.0  0.48291  0.75253  0.03671  1.0000
  Fe  Fe216     1.0  0.48594  0.90382  0.23079  1.0000
  C   C2906     1.0  0.48298  0.94720  0.05239  1.0000
  C   C2907     1.0  0.46202  0.97991  0.17317  1.0000
  C   C2908     1.0  0.46848  0.94199  0.16193  1.0000
  C   C2909     1.0  0.48537  0.96905  0.17407  1.0000
  C   C2910     1.0  0.48153  0.97415  0.21346  1.0000
  H   H2318     1.0  0.44211  0.74434  0.02050  1.0000
  H   H2319     1.0  0.48173  0.84293  0.00727  1.0000
  H   H2320     1.0  0.47212  0.98322  0.23800  1.0000
  H   H2321     1.0  0.46300  0.96712  0.16364  1.0000
  S   S414      1.0  0.48451  0.92186  0.23290  1.0000
  H   H2322     1.0  0.49367  0.78495  0.02655  1.0000
  C   C2911     1.0  0.46532  0.83019  0.99498  1.0000
  H   H2323     1.0  0.42303  0.75750  0.06327  1.0000
  C   C2912     1.0  0.42527  0.76713  0.03386  1.0000
  H   H2324     1.0  0.44361  0.78749  0.06201  1.0000
  H   H2325     1.0  0.48449  0.78673  0.10543  1.0000
  H   H2326     1.0  0.46356  0.99154  0.18291  1.0000
  H   H2327     1.0  0.45696  0.74947  0.03546  1.0000
  C   C2913     1.0  0.48825  0.95711  0.14610  1.0000
  C   C2914     1.0  0.48992  0.96850  0.14068  1.0000
  C   C2915     1.0  0.40212  0.74792  0.01946  1.0000
  H   H2328     1.0  0.45993  0.96989  0.20341  1.0000
  H   H2329     1.0  0.45337  0.92323  0.18286  1.0000
  H   H2330     1.0  0.49157  0.86507  0.11361  1.0000
  C   C2916     1.0  0.45855  0.80160  0.07128  1.0000
  H   H2331     1.0  0.42912  0.77343  0.02663  1.0000
  S   S415      1.0  0.48702  0.98496  0.21576  1.0000
  P   P94       1.0  0.48655  0.95211  0.16183  1.0000
  H   H2332     1.0  0.46845  0.94712  0.15312  1.0000
  C   C2917     1.0  0.44370  0.75150  0.01306  1.0000
  C   C2918     1.0  0.48761  0.82198  0.05355  1.0000
  H   H2333     1.0  0.45579  0.77036  0.07242  1.0000
  C   C2919     1.0  0.46570  0.74739  0.09543  1.0000
  H   H2334     1.0  0.47155  0.79323  0.08154  1.0000
  C   C2920     1.0  0.44179  0.82821  0.00225  1.0000
  C   C2921     1.0  0.47551  0.93640  0.17988  1.0000
  H   H2335     1.0  0.47373  0.75596  0.04017  1.0000
  C   C2922     1.0  0.46749  0.96783  0.20722  1.0000
  H   H2336     1.0  0.39589  0.75580  0.02158  1.0000
  P   P95       1.0  0.41941  0.75976  0.01702  1.0000
  H   H2337     1.0  0.49404  0.80753  0.00168  1.0000
  C   C2923     1.0  0.46497  0.78043  0.07746  1.0000
  C   C2924     1.0  0.49361  0.81413  0.00627  1.0000
  H   H2338     1.0  0.44548  0.80759  0.06083  1.0000
  C   C2925     1.0  0.48666  0.83398  0.00946  1.0000
  H   H2339     1.0  0.46731  0.96024  0.05708  1.0000
  C   C2926     1.0  0.45070  0.80004  0.06571  1.0000
  H   H2340     1.0  0.47938  0.74456  0.02477  1.0000
  C   C2927     1.0  0.40629  0.77337  0.00061  1.0000
  C   C2928     1.0  0.48075  0.76303  0.10641  1.0000
  C   C2929     1.0  0.40703  0.78329  0.01501  1.0000
  C   C2930     1.0  0.46793  0.98403  0.17893  1.0000
  C   C2931     1.0  0.40070  0.79375  0.00924  1.0000
  C   C2932     1.0  0.39717  0.79404  0.99917  1.0000
  C   C2933     1.0  0.39994  0.78384  0.99487  1.0000
  C   C2934     1.0  0.44784  0.96975  0.23278  1.0000
  H   H2341     1.0  0.39884  0.80172  0.01242  1.0000
  H   H2342     1.0  0.39245  0.80222  0.99462  1.0000
  C   C2935     1.0  0.45744  0.76234  0.99902  1.0000
  C   C2936     1.0  0.47417  0.95315  0.06025  1.0000
  H   H2343     1.0  0.46620  0.76385  0.99575  1.0000
  H   H2344     1.0  0.49559  0.96700  0.11203  1.0000
  H   H2345     1.0  0.46394  0.82945  0.01332  1.0000
  C   C2937     1.0  0.45473  0.74326  0.04354  1.0000
  S   S416      1.0  0.48021  0.90976  0.21358  1.0000
  C   C2938     1.0  0.45964  0.77637  0.11703  1.0000
  H   H2346     1.0  0.42973  0.77616  0.99634  1.0000
  C   C2939     1.0  0.46032  0.93493  0.16717  1.0000
  H   H2347     1.0  0.43310  0.74695  0.99228  1.0000
  C   C2940     1.0  0.46555  0.79185  0.07726  1.0000
  C   C2941     1.0  0.48743  0.82574  0.00300  1.0000
  C   C2942     1.0  0.45147  0.74676  0.05430  1.0000
  C   C2943     1.0  0.47958  0.97853  0.17947  1.0000
  C   C2944     1.0  0.48615  0.74617  0.02789  1.0000
  C   C2945     1.0  0.46152  0.77570  0.10533  1.0000
  Fe  Fe217     1.0  0.48045  0.92772  0.21500  1.0000
  H   H2348     1.0  0.40996  0.78345  0.02254  1.0000
  C   C2946     1.0  0.49114  0.74672  0.99687  1.0000
  H   H2349     1.0  0.45461  0.78023  0.10061  1.0000
  H   H2350     1.0  0.46351  0.75001  0.10372  1.0000
  H   H2351     1.0  0.48708  0.94447  0.21875  1.0000
  C   C2947     1.0  0.44973  0.78873  0.06626  1.0000
  C   C2948     1.0  0.46773  0.97025  0.16801  1.0000
  C   C2949     1.0  0.46724  0.92947  0.18514  1.0000
  C   C2950     1.0  0.47638  0.94254  0.16815  1.0000
  H   H2352     1.0  0.48105  0.93704  0.18511  1.0000
  H   H2353     1.0  0.48878  0.90457  0.12241  1.0000
  C   C2951     1.0  0.45680  0.77897  0.07213  1.0000
  C   C2952     1.0  0.44775  0.82847  0.01041  1.0000
  C   C2953     1.0  0.41427  0.74727  0.01686  1.0000
  C   C2954     1.0  0.47180  0.97691  0.20843  1.0000
  H   H2354     1.0  0.44346  0.82752  0.01963  1.0000
  H   H2355     1.0  0.45063  0.97662  0.22554  1.0000
  C   C2955     1.0  0.49333  0.96429  0.12152  1.0000
  S   S417      1.0  0.46760  0.94456  0.20986  1.0000
  H   H2356     1.0  0.48888  0.92036  0.15932  1.0000
  P   P96       1.0  0.47432  0.76784  0.08493  1.0000
  C   C2956     1.0  0.43759  0.96632  0.23358  1.0000
  H   H2357     1.0  0.41138  0.74470  0.04009  1.0000
  H   H2358     1.0  0.43285  0.82702  0.00512  1.0000
  C   C2957     1.0  0.47295  0.95606  0.21100  1.0000
  C   C2958     1.0  0.41535  0.75101  0.04137  1.0000
  C   C2959     1.0  0.47947  0.96468  0.16848  1.0000
  C   C2960     1.0  0.48761  0.81060  0.05303  1.0000
  C   C2961     1.0  0.48946  0.94926  0.13905  1.0000
  H   H2359     1.0  0.43052  0.77253  0.04662  1.0000
  H   H2360     1.0  0.49458  0.96033  0.22083  1.0000
  C   C2962     1.0  0.41651  0.75034  0.05267  1.0000
  C   C2963     1.0  0.49149  0.75444  0.04107  1.0000
  C   C2964     1.0  0.48971  0.76663  0.07779  1.0000
  H   H2361     1.0  0.49383  0.80319  0.05675  1.0000
  H   H2362     1.0  0.49415  0.75355  0.99852  1.0000
  C   C2965     1.0  0.49189  0.93475  0.06847  1.0000
  H   H2363     1.0  0.48898  0.94020  0.14298  1.0000
  H   H2364     1.0  0.48966  0.97451  0.14588  1.0000
  H   H2365     1.0  0.49081  0.91378  0.18015  1.0000
  S   S418      1.0  0.49405  0.77475  0.00779  1.0000
  C   C2966     1.0  0.49141  0.90817  0.11310  1.0000
  H   H2366     1.0  0.48543  0.75889  0.12315  1.0000
  H   H2367     1.0  0.48416  0.98171  0.18397  1.0000
  H   H2368     1.0  0.48632  0.80000  0.08569  1.0000
  H   H2369     1.0  0.48306  0.93866  0.08556  1.0000
  H   H2370     1.0  0.49427  0.98628  0.23650  1.0000
  C   C2967     1.0  0.49225  0.83072  0.01882  1.0000
  H   H2371     1.0  0.49444  0.96529  0.17421  1.0000
  C   C2968     1.0  0.49405  0.79412  0.08850  1.0000
  H   H2372     1.0  0.49322  0.94662  0.12147  1.0000
  H   H2373     1.0  0.48894  0.75776  0.10251  1.0000
  H   H2374     1.0  0.49389  0.98080  0.12429  1.0000
  C   C2969     1.0  0.49386  0.77632  0.07016  1.0000
  H   H2375     1.0  0.48297  0.94968  0.04311  1.0000
  H   H2376     1.0  0.48914  0.91207  0.06662  1.0000
  H   H2377     1.0  0.41347  0.74360  0.05992  1.0000
  C   C2970     1.0  0.49185  0.93808  0.05646  1.0000
  H   H2378     1.0  0.49473  0.74802  0.08528  1.0000
  Fe  Fe218     1.0  0.40877  0.94788  0.46866  1.0000
  S   S419      1.0  0.40661  0.93631  0.45831  1.0000
  H   H2379     1.0  0.43758  0.94537  0.25879  1.0000
  Fe  Fe219     1.0  0.40363  0.96984  0.44988  1.0000
  S   S420      1.0  0.40129  0.96012  0.43788  1.0000
  H   H2380     1.0  0.00175  0.76157  0.44962  1.0000
  Fe  Fe220     1.0  0.39110  0.95053  0.45420  1.0000
  S   S421      1.0  0.37299  0.94886  0.45529  1.0000
  Fe  Fe221     1.0  0.41709  0.94688  0.44293  1.0000
  S   S422      1.0  0.39226  0.96122  0.46587  1.0000
  S   S423      1.0  0.42047  0.95745  0.45358  1.0000
  P   P97       1.0  0.45910  0.94892  0.26208  1.0000
  C   C2971     1.0  0.35593  0.95089  0.40892  1.0000
  H   H2381     1.0  0.25762  0.86886  0.46397  1.0000
  C   C2972     1.0  0.36991  0.90813  0.41314  1.0000
  C   C2973     1.0  0.48083  0.94610  0.24688  1.0000
  S   S424      1.0  0.31979  0.89289  0.43881  1.0000
  H   H2382     1.0  0.49249  0.96951  0.31995  1.0000
  C   C2974     1.0  0.35612  0.97019  0.46997  1.0000
  S   S425      1.0  0.33390  0.91261  0.44881  1.0000
  H   H2383     1.0  0.31363  0.93975  0.38821  1.0000
  C   C2975     1.0  0.04710  0.88148  0.38709  1.0000
  H   H2384     1.0  0.22742  0.94963  0.48322  1.0000
  S   S426      1.0  0.32284  0.98794  0.48363  1.0000
  H   H2385     1.0  0.19158  0.89906  0.48637  1.0000
  C   C2976     1.0  0.01776  0.80962  0.48045  1.0000
  C   C2977     1.0  0.37287  0.87789  0.47442  1.0000
  C   C2978     1.0  0.48202  0.87712  0.27925  1.0000
  H   H2386     1.0  0.01904  0.74633  0.47253  1.0000
  C   C2979     1.0  0.00498  0.78238  0.48621  1.0000
  H   H2387     1.0  0.08615  0.74993  0.48751  1.0000
  C   C2980     1.0  0.08659  0.74604  0.40179  1.0000
  C   C2981     1.0  0.37904  0.91013  0.47867  1.0000
  S   S427      1.0  0.32262  0.97406  0.43460  1.0000
  C   C2982     1.0  0.06080  0.77460  0.39301  1.0000
  C   C2983     1.0  0.48740  0.89627  0.26141  1.0000
  H   H2388     1.0  0.29527  0.90904  0.46950  1.0000
  H   H2389     1.0  0.00529  0.83357  0.45855  1.0000
  S   S428      1.0  0.46710  0.96613  0.39489  1.0000
  H   H2390     1.0  0.44847  0.94013  0.36426  1.0000
  Fe  Fe222     1.0  0.09743  0.83665  0.46025  1.0000
  S   S429      1.0  0.09490  0.82089  0.47472  1.0000
  S   S430      1.0  0.09330  0.83867  0.44277  1.0000
  Fe  Fe223     1.0  0.10210  0.84974  0.47606  1.0000
  C   C2984     1.0  0.05252  0.76847  0.40068  1.0000
  S   S431      1.0  0.10673  0.86704  0.47448  1.0000
  H   H2391     1.0  0.03446  0.75336  0.45643  1.0000
  H   H2392     1.0  0.06618  0.81446  0.43270  1.0000
  C   C2985     1.0  0.47910  0.95601  0.26217  1.0000
  C   C2986     1.0  0.13591  0.76873  0.43690  1.0000
  S   S432      1.0  0.11391  0.83784  0.46422  1.0000
  S   S433      1.0  0.08581  0.84975  0.47072  1.0000
  Fe  Fe224     1.0  0.25169  0.90137  0.44979  1.0000
  C   C2987     1.0  0.02714  0.75112  0.43230  1.0000
  S   S434      1.0  0.26792  0.88760  0.44466  1.0000
  Fe  Fe225     1.0  0.22703  0.91375  0.44553  1.0000
  H   H2393     1.0  0.37801  0.93071  0.36331  1.0000
  S   S435      1.0  0.21279  0.91494  0.43650  1.0000
  Fe  Fe226     1.0  0.24273  0.92709  0.44947  1.0000
  S   S436      1.0  0.24900  0.94384  0.44391  1.0000
  S   S437      1.0  0.24512  0.91663  0.43614  1.0000
  S   S438      1.0  0.23381  0.89734  0.45783  1.0000
  H   H2394     1.0  0.42319  0.87814  0.46966  1.0000
  C   C2988     1.0  0.44928  0.93136  0.45100  1.0000
  H   H2395     1.0  0.10768  0.78229  0.44862  1.0000
  C   C2989     1.0  0.40452  0.98980  0.26991  1.0000
  C   C2990     1.0  0.26635  0.91398  0.48290  1.0000
  S   S439      1.0  0.01508  0.81391  0.40463  1.0000
  C   C2991     1.0  0.14366  0.75314  0.48735  1.0000
  C   C2992     1.0  0.09224  0.81752  0.39068  1.0000
  C   C2993     1.0  0.37364  0.98561  0.40599  1.0000
  Fe  Fe227     1.0  0.07919  0.78731  0.40934  1.0000
  C   C2994     1.0  0.05570  0.80099  0.49040  1.0000
  H   H2396     1.0  0.04184  0.77000  0.44220  1.0000
  C   C2995     1.0  0.37146  0.86966  0.48501  1.0000
  C   C2996     1.0  0.32942  0.92692  0.39129  1.0000
  H   H2397     1.0  0.16228  0.77327  0.38044  1.0000
  S   S440      1.0  0.07659  0.76906  0.41777  1.0000
  S   S441      1.0  0.00302  0.81823  0.43757  1.0000
  H   H2398     1.0  0.44520  0.92402  0.45290  1.0000
  H   H2399     1.0  0.45299  0.98610  0.31422  1.0000
  H   H2400     1.0  0.45926  0.92845  0.43398  1.0000
  H   H2401     1.0  0.44850  0.95401  0.46253  1.0000
  C   C2997     1.0  0.48195  0.88853  0.25937  1.0000
  C   C2998     1.0  0.10023  0.80975  0.38406  1.0000
  Fe  Fe228     1.0  0.99788  0.80161  0.44872  1.0000
  C   C2999     1.0  0.49547  0.91357  0.36081  1.0000
  H   H2402     1.0  0.12983  0.83258  0.48826  1.0000
  H   H2403     1.0  0.47698  0.94213  0.24241  1.0000
  C   C3000     1.0  0.04407  0.74914  0.47587  1.0000
  H   H2404     1.0  0.99970  0.80839  0.48430  1.0000
  H   H2405     1.0  0.36837  0.97361  0.47751  1.0000
  Fe  Fe229     1.0  0.32206  0.98882  0.44250  1.0000
  C   C3001     1.0  0.45876  0.92685  0.25945  1.0000
  C   C3002     1.0  0.08874  0.74938  0.45515  1.0000
  C   C3003     1.0  0.28947  0.88202  0.47344  1.0000
  H   H2406     1.0  0.08928  0.74880  0.44632  1.0000
  C   C3004     1.0  0.49089  0.95671  0.25792  1.0000
  C   C3005     1.0  0.27018  0.96821  0.46566  1.0000
  C   C3006     1.0  0.03803  0.78006  0.38934  1.0000
  C   C3007     1.0  0.32173  0.93793  0.39112  1.0000
  H   H2407     1.0  0.48009  0.86959  0.28604  1.0000
  H   H2408     1.0  0.11096  0.76562  0.48415  1.0000
  H   H2409     1.0  0.37870  0.93376  0.40289  1.0000
  C   C3008     1.0  0.46375  0.92724  0.27722  1.0000
  C   C3009     1.0  0.03361  0.75531  0.44745  1.0000
  H   H2410     1.0  0.00032  0.87132  0.41214  1.0000
  C   C3010     1.0  0.38834  0.93404  0.38513  1.0000
  H   H2411     1.0  0.32727  0.92020  0.38851  1.0000
  C   C3011     1.0  0.34648  0.96529  0.47209  1.0000
  C   C3012     1.0  0.04842  0.83690  0.41066  1.0000
  C   C3013     1.0  0.34977  0.93621  0.42597  1.0000
  C   C3014     1.0  0.04936  0.87632  0.43482  1.0000
  C   C3015     1.0  0.07825  0.75713  0.47245  1.0000
  C   C3016     1.0  0.48754  0.97565  0.32545  1.0000
  C   C3017     1.0  0.13866  0.81468  0.42415  1.0000
  C   C3018     1.0  0.38285  0.97986  0.48842  1.0000
  C   C3019     1.0  0.25574  0.88006  0.47558  1.0000
  H   H2412     1.0  0.42608  0.96511  0.26770  1.0000
  C   C3020     1.0  0.47403  0.99119  0.33986  1.0000
  H   H2413     1.0  0.04390  0.79317  0.37448  1.0000
  H   H2414     1.0  0.04537  0.88555  0.43452  1.0000
  H   H2415     1.0  0.15483  0.79416  0.38132  1.0000
  C   C3021     1.0  0.01053  0.74788  0.47844  1.0000
  H   H2416     1.0  0.46587  0.93189  0.28245  1.0000
  C   C3022     1.0  0.35094  0.89777  0.42530  1.0000
  P   P98       1.0  0.02645  0.87301  0.44125  1.0000
  H   H2417     1.0  0.43312  0.96093  0.42728  1.0000
  C   C3023     1.0  0.41121  0.98737  0.41419  1.0000
  C   C3024     1.0  0.11212  0.80673  0.38442  1.0000
  S   S442      1.0  0.43086  0.93718  0.43006  1.0000
  C   C3025     1.0  0.19770  0.83058  0.47848  1.0000
  C   C3026     1.0  0.45073  0.95626  0.27389  1.0000
  C   C3027     1.0  0.16243  0.89186  0.45734  1.0000
  C   C3028     1.0  0.00659  0.76529  0.41046  1.0000
  H   H2418     1.0  0.46038  0.98543  0.45085  1.0000
  H   H2419     1.0  0.36418  0.92464  0.47909  1.0000
  Fe  Fe230     1.0  0.00329  0.81072  0.42262  1.0000
  H   H2420     1.0  0.49421  0.90041  0.27404  1.0000
  H   H2421     1.0  0.36442  0.86504  0.48742  1.0000
  C   C3029     1.0  0.49143  0.89094  0.36695  1.0000
  H   H2422     1.0  0.47414  0.95941  0.26985  1.0000
  H   H2423     1.0  0.20405  0.82552  0.48373  1.0000
  H   H2424     1.0  0.47850  0.98660  0.38167  1.0000
  C   C3030     1.0  0.49328  0.90889  0.35245  1.0000
  C   C3031     1.0  0.24370  0.95159  0.45519  1.0000
  C   C3032     1.0  0.23728  0.94676  0.46609  1.0000
  C   C3033     1.0  0.23254  0.95331  0.47486  1.0000
  C   C3034     1.0  0.23371  0.96491  0.47249  1.0000
  C   C3035     1.0  0.24046  0.96955  0.46172  1.0000
  C   C3036     1.0  0.24561  0.96282  0.45315  1.0000
  H   H2425     1.0  0.23584  0.93805  0.46771  1.0000
  H   H2426     1.0  0.13210  0.84999  0.47211  1.0000
  H   H2427     1.0  0.24159  0.97839  0.45994  1.0000
  C   C3037     1.0  0.39895  0.97834  0.38173  1.0000
  C   C3038     1.0  0.35635  0.96407  0.49063  1.0000
  C   C3039     1.0  0.13379  0.75839  0.47120  1.0000
  C   C3040     1.0  0.25274  0.87146  0.47215  1.0000
  H   H2428     1.0  0.38611  0.96123  0.48954  1.0000
  C   C3041     1.0  0.34156  0.96008  0.48348  1.0000
  H   H2429     1.0  0.46267  0.89963  0.27729  1.0000
  C   C3042     1.0  0.14904  0.78818  0.38544  1.0000
  C   C3043     1.0  0.40738  0.94530  0.41354  1.0000
  C   C3044     1.0  0.03607  0.75775  0.48149  1.0000
  S   S443      1.0  0.06949  0.76728  0.45256  1.0000
  C   C3045     1.0  0.19830  0.91553  0.44497  1.0000
  C   C3046     1.0  0.19534  0.91515  0.45707  1.0000
  H   H2430     1.0  0.20210  0.91431  0.46161  1.0000
  H   H2431     1.0  0.18124  0.91543  0.47267  1.0000
  H   H2432     1.0  0.06290  0.87314  0.40823  1.0000
  H   H2433     1.0  0.15625  0.83557  0.35191  1.0000
  C   C3047     1.0  0.43046  0.87400  0.48482  1.0000
  H   H2434     1.0  0.25347  0.92953  0.47755  1.0000
  H   H2435     1.0  0.11593  0.88676  0.47271  1.0000
  C   C3048     1.0  0.32444  0.94654  0.39480  1.0000
  H   H2436     1.0  0.03744  0.84350  0.42583  1.0000
  H   H2437     1.0  0.20766  0.94239  0.47134  1.0000
  C   C3049     1.0  0.05504  0.80342  0.39846  1.0000
  C   C3050     1.0  0.04941  0.81122  0.38985  1.0000
  C   C3051     1.0  0.03716  0.81402  0.39183  1.0000
  C   C3052     1.0  0.03041  0.80937  0.40257  1.0000
  C   C3053     1.0  0.03597  0.80145  0.41123  1.0000
  C   C3054     1.0  0.18886  0.98251  0.42470  1.0000
  H   H2438     1.0  0.05454  0.81502  0.38156  1.0000
  H   H2439     1.0  0.03285  0.81987  0.38505  1.0000
  C   C3055     1.0  0.01132  0.89559  0.40918  1.0000
  C   C3056     1.0  0.11221  0.80693  0.43690  1.0000
  C   C3057     1.0  0.10797  0.81722  0.44126  1.0000
  C   C3058     1.0  0.09803  0.82534  0.43818  1.0000
  C   C3059     1.0  0.09204  0.82293  0.43115  1.0000
  C   C3060     1.0  0.09610  0.81242  0.42712  1.0000
  C   C3061     1.0  0.05996  0.85249  0.43637  1.0000
  H   H2440     1.0  0.11258  0.81906  0.44669  1.0000
  H   H2441     1.0  0.08429  0.82918  0.42882  1.0000
  H   H2442     1.0  0.06766  0.74271  0.45837  1.0000
  H   H2443     1.0  0.14232  0.76825  0.41858  1.0000
  C   C3062     1.0  0.03674  0.76724  0.42774  1.0000
  H   H2444     1.0  0.02934  0.78218  0.38762  1.0000
  C   C3063     1.0  0.40520  0.97396  0.40671  1.0000
  H   H2445     1.0  0.34294  0.96531  0.46488  1.0000
  H   H2446     1.0  0.11656  0.75302  0.45605  1.0000
  C   C3064     1.0  0.44351  0.97411  0.28147  1.0000
  H   H2447     1.0  0.41899  0.96489  0.39447  1.0000
  C   C3065     1.0  0.46033  0.93326  0.26665  1.0000
  C   C3066     1.0  0.05141  0.82903  0.43055  1.0000
  C   C3067     1.0  0.18947  0.91661  0.43922  1.0000
  C   C3068     1.0  0.35394  0.93952  0.41381  1.0000
  H   H2448     1.0  0.26625  0.96893  0.47467  1.0000
  C   C3069     1.0  0.45730  0.96889  0.32498  1.0000
  C   C3070     1.0  0.30517  0.89178  0.44085  1.0000
  C   C3071     1.0  0.29559  0.89886  0.44704  1.0000
  C   C3072     1.0  0.28399  0.89810  0.44790  1.0000
  C   C3073     1.0  0.28204  0.88997  0.44285  1.0000
  C   C3074     1.0  0.29166  0.88298  0.43663  1.0000
  C   C3075     1.0  0.30313  0.88401  0.43548  1.0000
  H   H2449     1.0  0.29716  0.90506  0.45092  1.0000
  H   H2450     1.0  0.27662  0.90359  0.45269  1.0000
  H   H2451     1.0  0.29025  0.87672  0.43266  1.0000
  H   H2452     1.0  0.31047  0.87863  0.43053  1.0000
  Fe  Fe231     1.0  0.47908  0.91978  0.30758  1.0000
  H   H2453     1.0  0.37740  0.91196  0.40872  1.0000
  H   H2454     1.0  0.03752  0.87085  0.38378  1.0000
  C   C3076     1.0  0.32079  0.96157  0.44570  1.0000
  C   C3077     1.0  0.31835  0.95202  0.44331  1.0000
  C   C3078     1.0  0.31711  0.94191  0.45217  1.0000
  C   C3079     1.0  0.13491  0.82122  0.36882  1.0000
  S   S444      1.0  0.22585  0.97391  0.48249  1.0000
  H   H2455     1.0  0.31744  0.95245  0.43462  1.0000
  H   H2456     1.0  0.31502  0.93464  0.45036  1.0000
  C   C3080     1.0  0.18355  0.91576  0.46335  1.0000
  C   C3081     1.0  0.05770  0.78350  0.38359  1.0000
  H   H2457     1.0  0.48405  0.98023  0.35265  1.0000
  C   C3082     1.0  0.46980  0.96931  0.29126  1.0000
  C   C3083     1.0  0.45817  0.94635  0.40435  1.0000
  C   C3084     1.0  0.38970  0.92360  0.48584  1.0000
  C   C3085     1.0  0.47399  0.95073  0.25661  1.0000
  H   H2458     1.0  0.37918  0.98137  0.45057  1.0000
  C   C3086     1.0  0.00300  0.75895  0.47694  1.0000
  H   H2459     1.0  0.15365  0.81495  0.38707  1.0000
  P   P99       1.0  0.04107  0.84843  0.40039  1.0000
  C   C3087     1.0  0.37199  0.93545  0.45351  1.0000
  C   C3088     1.0  0.38201  0.92711  0.44979  1.0000
  C   C3089     1.0  0.38081  0.91663  0.44802  1.0000
  C   C3090     1.0  0.36962  0.91450  0.45007  1.0000
  C   C3091     1.0  0.35968  0.92265  0.45422  1.0000
  C   C3092     1.0  0.36087  0.93313  0.45589  1.0000
  H   H2460     1.0  0.39063  0.92885  0.44806  1.0000
  H   H2461     1.0  0.38850  0.91023  0.44500  1.0000
  H   H2462     1.0  0.35102  0.92105  0.45590  1.0000
  H   H2463     1.0  0.35312  0.93949  0.45896  1.0000
  H   H2464     1.0  0.31984  0.86468  0.47995  1.0000
  C   C3093     1.0  0.10175  0.98401  0.48409  1.0000
  C   C3094     1.0  0.17476  0.91686  0.45749  1.0000
  C   C3095     1.0  0.48949  0.97391  0.33663  1.0000
  C   C3096     1.0  0.04836  0.79836  0.40910  1.0000
  P   P100      1.0  0.12660  0.76970  0.46063  1.0000
  H   H2465     1.0  0.01911  0.85905  0.42975  1.0000
  C   C3097     1.0  0.42148  0.87899  0.47864  1.0000
  H   H2466     1.0  0.08988  0.82810  0.40306  1.0000
  H   H2467     1.0  0.36696  0.87965  0.46861  1.0000
  H   H2468     1.0  0.39375  0.98458  0.41905  1.0000
  C   C3098     1.0  0.44009  0.95684  0.42092  1.0000
  C   C3099     1.0  0.40902  0.93323  0.41826  1.0000
  H   H2469     1.0  0.01873  0.78841  0.40682  1.0000
  H   H2470     1.0  0.03073  0.79766  0.41945  1.0000
  C   C3100     1.0  0.33981  0.92449  0.39516  1.0000
  C   C3101     1.0  0.07561  0.87721  0.47908  1.0000
  H   H2471     1.0  0.01502  0.90057  0.47559  1.0000
  H   H2472     1.0  0.38082  0.93047  0.42403  1.0000
  H   H2473     1.0  0.02278  0.74593  0.42973  1.0000
  H   H2474     1.0  0.21677  0.86125  0.47755  1.0000
  S   S445      1.0  0.46498  0.93611  0.30410  1.0000
  H   H2475     1.0  0.02069  0.80298  0.47523  1.0000
  P   P101      1.0  0.13161  0.80753  0.39171  1.0000
  C   C3102     1.0  0.04634  0.78619  0.38172  1.0000
  Fe  Fe232     1.0  0.07927  0.77254  0.43392  1.0000
  C   C3103     1.0  0.02273  0.88175  0.45217  1.0000
  H   H2476     1.0  0.01929  0.85917  0.46508  1.0000
  C   C3104     1.0  0.28388  0.95747  0.45145  1.0000
  H   H2477     1.0  0.43313  0.98442  0.31430  1.0000
  H   H2478     1.0  0.03609  0.76694  0.47780  1.0000
  S   S446      1.0  0.00058  0.85837  0.48754  1.0000
  C   C3105     1.0  0.11611  0.81133  0.39160  1.0000
  C   C3106     1.0  0.38830  0.93455  0.42080  1.0000
  H   H2479     1.0  0.02574  0.83197  0.40873  1.0000
  H   H2480     1.0  0.12005  0.80077  0.43902  1.0000
  Fe  Fe233     1.0  0.09920  0.78464  0.42050  1.0000
  C   C3107     1.0  0.01232  0.84568  0.46303  1.0000
  H   H2481     1.0  0.13960  0.79187  0.41276  1.0000
  C   C3108     1.0  0.34751  0.94418  0.43309  1.0000
  C   C3109     1.0  0.29641  0.87349  0.46716  1.0000
  C   C3110     1.0  0.21997  0.98842  0.42767  1.0000
  C   C3111     1.0  0.20649  0.96877  0.46927  1.0000
  C   C3112     1.0  0.20919  0.96936  0.45718  1.0000
  C   C3113     1.0  0.20499  0.97978  0.44952  1.0000
  H   H2482     1.0  0.34460  0.99093  0.48778  1.0000
  P   P102      1.0  0.20825  0.98070  0.43384  1.0000
  H   H2483     1.0  0.49480  0.96099  0.26204  1.0000
  C   C3114     1.0  0.21338  0.96604  0.43100  1.0000
  C   C3115     1.0  0.22421  0.96286  0.42332  1.0000
  C   C3116     1.0  0.22827  0.95139  0.42152  1.0000
  C   C3117     1.0  0.22155  0.94305  0.42732  1.0000
  C   C3118     1.0  0.21080  0.94612  0.43499  1.0000
  C   C3119     1.0  0.20671  0.95757  0.43681  1.0000
  S   S447      1.0  0.12566  0.80956  0.48525  1.0000
  S   S448      1.0  0.49061  0.91920  0.31923  1.0000
  H   H2484     1.0  0.13407  0.74361  0.46433  1.0000
  C   C3120     1.0  0.19691  0.98927  0.46613  1.0000
  C   C3121     1.0  0.42186  0.97435  0.26643  1.0000
  H   H2485     1.0  0.13148  0.75337  0.41963  1.0000
  H   H2486     1.0  0.45715  0.93108  0.25078  1.0000
  C   C3122     1.0  0.46202  0.90900  0.27431  1.0000
  C   C3123     1.0  0.02822  0.74857  0.44393  1.0000
  H   H2487     1.0  0.26289  0.88404  0.47008  1.0000
  S   S449      1.0  0.49379  0.91393  0.29303  1.0000
  H   H2488     1.0  0.00422  0.83457  0.41526  1.0000
  C   C3124     1.0  0.14100  0.82809  0.35908  1.0000
  H   H2489     1.0  0.20947  0.96072  0.47522  1.0000
  H   H2490     1.0  0.21461  0.96168  0.45394  1.0000
  C   C3125     1.0  0.48635  0.94081  0.34069  1.0000
  H   H2491     1.0  0.22964  0.96912  0.41883  1.0000
  H   H2492     1.0  0.23672  0.94885  0.41581  1.0000
  H   H2493     1.0  0.22474  0.93414  0.42599  1.0000
  H   H2494     1.0  0.20578  0.93950  0.43965  1.0000
  H   H2495     1.0  0.19839  0.95982  0.44279  1.0000
  S   S450      1.0  0.48831  0.97933  0.27777  1.0000
  H   H2496     1.0  0.04621  0.87165  0.48827  1.0000
  C   C3126     1.0  0.29332  0.88425  0.48227  1.0000
  C   C3127     1.0  0.40996  0.97787  0.27150  1.0000
  C   C3128     1.0  0.49371  0.89556  0.37520  1.0000
  H   H2497     1.0  0.02453  0.75954  0.38902  1.0000
  C   C3129     1.0  0.00815  0.84204  0.41325  1.0000
  H   H2498     1.0  0.48945  0.90368  0.25454  1.0000
  C   C3130     1.0  0.35736  0.98706  0.42280  1.0000
  H   H2499     1.0  0.19175  0.97320  0.42501  1.0000
  C   C3131     1.0  0.45120  0.94835  0.45633  1.0000
  C   C3132     1.0  0.48983  0.96237  0.41131  1.0000
  H   H2500     1.0  0.08622  0.74428  0.37299  1.0000
  C   C3133     1.0  0.43477  0.98603  0.43324  1.0000
  C   C3134     1.0  0.38786  0.87378  0.48952  1.0000
  S   S451      1.0  0.40082  0.98947  0.44482  1.0000
  P   P103      1.0  0.04102  0.81179  0.47455  1.0000
  C   C3135     1.0  0.04840  0.82375  0.47027  1.0000
  H   H2501     1.0  0.35968  0.99133  0.44592  1.0000
  C   C3136     1.0  0.39398  0.96959  0.39029  1.0000
  H   H2502     1.0  0.14923  0.75925  0.38963  1.0000
  C   C3137     1.0  0.08687  0.74977  0.47849  1.0000
  C   C3138     1.0  0.41671  0.97112  0.40005  1.0000
  H   H2503     1.0  0.11064  0.82263  0.40408  1.0000
  C   C3139     1.0  0.06069  0.82139  0.46645  1.0000
  C   C3140     1.0  0.06667  0.83039  0.46349  1.0000
  C   C3141     1.0  0.06046  0.84182  0.46428  1.0000
  C   C3142     1.0  0.04822  0.84432  0.46768  1.0000
  C   C3143     1.0  0.04218  0.83538  0.47042  1.0000
  C   C3144     1.0  0.04182  0.80818  0.46089  1.0000
  C   C3145     1.0  0.03334  0.81454  0.45434  1.0000
  C   C3146     1.0  0.03337  0.81155  0.44407  1.0000
  C   C3147     1.0  0.04198  0.80226  0.44019  1.0000
  C   C3148     1.0  0.05074  0.79618  0.44638  1.0000
  C   C3149     1.0  0.05076  0.79916  0.45667  1.0000
  C   C3150     1.0  0.37783  0.99019  0.44531  1.0000
  H   H2504     1.0  0.27590  0.98158  0.47842  1.0000
  C   C3151     1.0  0.01812  0.86153  0.40712  1.0000
  S   S452      1.0  0.47881  0.89012  0.24565  1.0000
  H   H2505     1.0  0.10855  0.79513  0.48887  1.0000
  C   C3152     1.0  0.19102  0.83541  0.46041  1.0000
  H   H2506     1.0  0.07333  0.74951  0.43701  1.0000
  C   C3153     1.0  0.46466  0.95963  0.29687  1.0000
  C   C3154     1.0  0.12182  0.98114  0.44865  1.0000
  C   C3155     1.0  0.49115  0.89757  0.35556  1.0000
  H   H2507     1.0  0.06569  0.81254  0.46598  1.0000
  H   H2508     1.0  0.07616  0.82844  0.46082  1.0000
  H   H2509     1.0  0.06516  0.84872  0.46225  1.0000
  H   H2510     1.0  0.04341  0.85312  0.46849  1.0000
  H   H2511     1.0  0.03273  0.83762  0.47280  1.0000
  H   H2512     1.0  0.02657  0.82167  0.45732  1.0000
  H   H2513     1.0  0.02669  0.81634  0.43915  1.0000
  H   H2514     1.0  0.04187  0.79978  0.43241  1.0000
  H   H2515     1.0  0.05741  0.78905  0.44325  1.0000
  H   H2516     1.0  0.05764  0.79426  0.46133  1.0000
  C   C3156     1.0  0.00072  0.78975  0.40704  1.0000
  H   H2517     1.0  0.01020  0.84195  0.47233  1.0000
  H   H2518     1.0  0.40073  0.91857  0.42578  1.0000
  C   C3157     1.0  0.38818  0.93318  0.37396  1.0000
  H   H2519     1.0  0.43086  0.95228  0.29998  1.0000
  C   C3158     1.0  0.06160  0.87258  0.43278  1.0000
  C   C3159     1.0  0.45104  0.95532  0.25059  1.0000
  H   H2520     1.0  0.45229  0.91587  0.32988  1.0000
  H   H2521     1.0  0.15967  0.78901  0.45113  1.0000
  C   C3160     1.0  0.30914  0.93364  0.42260  1.0000
  C   C3161     1.0  0.30250  0.92513  0.42774  1.0000
  C   C3162     1.0  0.29062  0.92844  0.43301  1.0000
  C   C3163     1.0  0.28540  0.94022  0.43317  1.0000
  C   C3164     1.0  0.29179  0.94893  0.42738  1.0000
  C   C3165     1.0  0.30381  0.94551  0.42234  1.0000
  P   P104      1.0  0.28477  0.96421  0.42733  1.0000
  C   C3166     1.0  0.27275  0.96942  0.41974  1.0000
  C   C3167     1.0  0.27940  0.96592  0.44231  1.0000
  H   H2522     1.0  0.12864  0.76626  0.39993  1.0000
  H   H2523     1.0  0.12130  0.78695  0.40130  1.0000
  S   S453      1.0  0.00770  0.79183  0.46288  1.0000
  C   C3168     1.0  0.43396  0.95748  0.24293  1.0000
  C   C3169     1.0  0.27056  0.93008  0.46653  1.0000
  C   C3170     1.0  0.27011  0.98127  0.41391  1.0000
  C   C3171     1.0  0.26149  0.98529  0.40729  1.0000
  C   C3172     1.0  0.25502  0.97768  0.40686  1.0000
  C   C3173     1.0  0.25730  0.96601  0.41291  1.0000
  C   C3174     1.0  0.26616  0.96187  0.41923  1.0000
  C   C3175     1.0  0.29492  0.97353  0.41939  1.0000
  C   C3176     1.0  0.29941  0.97417  0.40730  1.0000
  C   C3177     1.0  0.30642  0.98211  0.40074  1.0000
  C   C3178     1.0  0.49559  0.90693  0.37221  1.0000
  C   C3179     1.0  0.30413  0.87757  0.48489  1.0000
  C   C3180     1.0  0.29743  0.98103  0.42479  1.0000
  H   H2524     1.0  0.31844  0.93099  0.41891  1.0000
  H   H2525     1.0  0.30660  0.91596  0.42781  1.0000
  H   H2526     1.0  0.28545  0.92188  0.43715  1.0000
  H   H2527     1.0  0.27638  0.94245  0.43797  1.0000
  H   H2528     1.0  0.30918  0.95190  0.41847  1.0000
  H   H2529     1.0  0.26739  0.98263  0.43803  1.0000
  C   C3181     1.0  0.11090  0.77363  0.46592  1.0000
  C   C3182     1.0  0.37809  0.93150  0.37195  1.0000
  H   H2530     1.0  0.42244  0.90171  0.42782  1.0000
  H   H2531     1.0  0.29097  0.95003  0.44966  1.0000
  H   H2532     1.0  0.27469  0.98748  0.41444  1.0000
  C   C3183     1.0  0.13805  0.84683  0.47805  1.0000
  H   H2533     1.0  0.24813  0.98088  0.40199  1.0000
  H   H2534     1.0  0.25222  0.96008  0.41279  1.0000
  H   H2535     1.0  0.26764  0.95279  0.42369  1.0000
  H   H2536     1.0  0.29730  0.96865  0.40295  1.0000
  H   H2537     1.0  0.30988  0.98258  0.39143  1.0000
  H   H2538     1.0  0.99838  0.79921  0.40600  1.0000
  H   H2539     1.0  0.48990  0.96400  0.40206  1.0000
  H   H2540     1.0  0.29419  0.98072  0.43411  1.0000
  H   H2541     1.0  0.05760  0.88998  0.39218  1.0000
  C   C3184     1.0  0.36340  0.97696  0.42934  1.0000
  C   C3185     1.0  0.02074  0.88173  0.42851  1.0000
  C   C3186     1.0  0.05426  0.88216  0.39394  1.0000
  H   H2542     1.0  0.04881  0.82919  0.43979  1.0000
  C   C3187     1.0  0.01727  0.85540  0.43905  1.0000
  C   C3188     1.0  0.34958  0.95540  0.42821  1.0000
  C   C3189     1.0  0.35374  0.95880  0.41612  1.0000
  H   H2543     1.0  0.34384  0.94176  0.44240  1.0000
  H   H2544     1.0  0.34761  0.96156  0.43382  1.0000
  H   H2545     1.0  0.35503  0.96764  0.41238  1.0000
  H   H2546     1.0  0.31845  0.95506  0.39473  1.0000
  H   H2547     1.0  0.33650  0.95086  0.40184  1.0000
  H   H2548     1.0  0.40254  0.98679  0.36342  1.0000
  H   H2549     1.0  0.43946  0.96900  0.44397  1.0000
  C   C3190     1.0  0.15156  0.83023  0.35946  1.0000
  C   C3191     1.0  0.22959  0.98504  0.43297  1.0000
  C   C3192     1.0  0.17815  0.94910  0.47283  1.0000
  C   C3193     1.0  0.13671  0.83707  0.48721  1.0000
  P   P105      1.0  0.16737  0.95984  0.46544  1.0000
  C   C3194     1.0  0.16885  0.97423  0.46536  1.0000
  C   C3195     1.0  0.16953  0.95772  0.45079  1.0000
  C   C3196     1.0  0.17885  0.94906  0.44638  1.0000
  C   C3197     1.0  0.18034  0.94756  0.43503  1.0000
  C   C3198     1.0  0.17237  0.95442  0.42813  1.0000
  C   C3199     1.0  0.16287  0.96281  0.43258  1.0000
  C   C3200     1.0  0.16142  0.96443  0.44389  1.0000
  C   C3201     1.0  0.16951  0.98309  0.45509  1.0000
  H   H2550     1.0  0.16635  0.93828  0.48429  1.0000
  C   C3202     1.0  0.42536  0.97633  0.40051  1.0000
  C   C3203     1.0  0.16896  0.98809  0.47633  1.0000
  C   C3204     1.0  0.16898  0.97674  0.47589  1.0000
  C   C3205     1.0  0.15261  0.95813  0.47272  1.0000
  C   C3206     1.0  0.14440  0.96671  0.47837  1.0000
  C   C3207     1.0  0.39303  0.97333  0.36668  1.0000
  C   C3208     1.0  0.08651  0.78070  0.47368  1.0000
  C   C3209     1.0  0.47895  0.98512  0.32143  1.0000
  C   C3210     1.0  0.14916  0.94814  0.47252  1.0000
  H   H2551     1.0  0.14039  0.77544  0.43620  1.0000
  Fe  Fe234     1.0  0.33427  0.88653  0.47584  1.0000
  C   C3211     1.0  0.14693  0.85262  0.47664  1.0000
  C   C3212     1.0  0.21111  0.86933  0.47977  1.0000
  H   H2552     1.0  0.25102  0.89105  0.48810  1.0000
  H   H2553     1.0  0.18487  0.94328  0.45170  1.0000
  H   H2554     1.0  0.18756  0.94087  0.43168  1.0000
  H   H2555     1.0  0.17345  0.95303  0.41943  1.0000
  H   H2556     1.0  0.15654  0.96794  0.42733  1.0000
  H   H2557     1.0  0.15394  0.97084  0.44732  1.0000
  H   H2558     1.0  0.16982  0.98138  0.44676  1.0000
  C   C3213     1.0  0.20039  0.97872  0.47375  1.0000
  H   H2559     1.0  0.14786  0.86004  0.46936  1.0000
  H   H2560     1.0  0.44372  0.98313  0.28071  1.0000
  H   H2561     1.0  0.05017  0.75196  0.46790  1.0000
  H   H2562     1.0  0.14671  0.97451  0.47878  1.0000
  C   C3214     1.0  0.40742  0.88740  0.45336  1.0000
  C   C3215     1.0  0.26259  0.92496  0.47586  1.0000
  C   C3216     1.0  0.48177  0.96754  0.28588  1.0000
  H   H2563     1.0  0.15531  0.94146  0.46813  1.0000
  H   H2564     1.0  0.12137  0.95330  0.48918  1.0000
  C   C3217     1.0  0.27822  0.90814  0.48079  1.0000
  C   C3218     1.0  0.04848  0.79944  0.48401  1.0000
  H   H2565     1.0  0.36389  0.88249  0.43085  1.0000
  H   H2566     1.0  0.15076  0.77246  0.45317  1.0000
  H   H2567     1.0  0.07183  0.81356  0.41165  1.0000
  C   C3219     1.0  0.39599  0.91258  0.48360  1.0000
  H   H2568     1.0  0.35887  0.95375  0.39954  1.0000
  C   C3220     1.0  0.14513  0.78086  0.45456  1.0000
  H   H2569     1.0  0.12914  0.82914  0.39916  1.0000
  C   C3221     1.0  0.13089  0.80233  0.45902  1.0000
  H   H2570     1.0  0.07051  0.74482  0.39854  1.0000
  C   C3222     1.0  0.18115  0.84338  0.46502  1.0000
  C   C3223     1.0  0.19910  0.98981  0.45412  1.0000
  C   C3224     1.0  0.33475  0.94410  0.39882  1.0000
  C   C3225     1.0  0.16506  0.86946  0.47210  1.0000
  C   C3226     1.0  0.46442  0.91518  0.28112  1.0000
  H   H2571     1.0  0.40510  0.90969  0.48426  1.0000
  H   H2572     1.0  0.47513  0.95150  0.48079  1.0000
  C   C3227     1.0  0.17319  0.88376  0.45576  1.0000
  C   C3228     1.0  0.17454  0.87259  0.46314  1.0000
  C   C3229     1.0  0.06600  0.88622  0.47653  1.0000
  C   C3230     1.0  0.01742  0.85544  0.45888  1.0000
  H   H2573     1.0  0.00859  0.75578  0.41217  1.0000
  H   H2574     1.0  0.45852  0.90059  0.34672  1.0000
  H   H2575     1.0  0.17470  0.84817  0.45979  1.0000
  H   H2576     1.0  0.40990  0.91117  0.46127  1.0000
  C   C3231     1.0  0.04770  0.85620  0.43853  1.0000
  H   H2577     1.0  0.38323  0.95980  0.37265  1.0000
  C   C3232     1.0  0.24911  0.88395  0.48574  1.0000
  S   S454      1.0  0.48785  0.89135  0.34573  1.0000
  C   C3233     1.0  0.14307  0.80092  0.45570  1.0000
  C   C3234     1.0  0.39859  0.98009  0.36997  1.0000
  C   C3235     1.0  0.13311  0.96505  0.48409  1.0000
  H   H2578     1.0  0.18052  0.88627  0.44893  1.0000
  H   H2579     1.0  0.18303  0.86656  0.46195  1.0000
  C   C3236     1.0  0.45188  0.94748  0.36405  1.0000
  H   H2580     1.0  0.07091  0.76301  0.47679  1.0000
  C   C3237     1.0  0.46475  0.97977  0.46771  1.0000
  C   C3238     1.0  0.07638  0.87208  0.49074  1.0000
  H   H2581     1.0  0.06406  0.78845  0.37790  1.0000
  C   C3239     1.0  0.30740  0.86732  0.46941  1.0000
  C   C3240     1.0  0.23835  0.99140  0.42905  1.0000
  C   C3241     1.0  0.12307  0.88335  0.48798  1.0000
  C   C3242     1.0  0.46887  0.97025  0.47619  1.0000
  C   C3243     1.0  0.06442  0.82021  0.41472  1.0000
  C   C3244     1.0  0.04096  0.77138  0.39908  1.0000
  H   H2582     1.0  0.39387  0.92901  0.48833  1.0000
  C   C3245     1.0  0.05303  0.86254  0.40524  1.0000
  H   H2583     1.0  0.06307  0.84660  0.38276  1.0000
  H   H2584     1.0  0.38242  0.89073  0.46334  1.0000
  C   C3246     1.0  0.48201  0.94862  0.32146  1.0000
  H   H2585     1.0  0.45065  0.93114  0.41165  1.0000
  H   H2586     1.0  0.04984  0.89739  0.48368  1.0000
  C   C3247     1.0  0.45295  0.96165  0.37407  1.0000
  C   C3248     1.0  0.45065  0.96804  0.27283  1.0000
  C   C3249     1.0  0.31124  0.86934  0.47829  1.0000
  H   H2587     1.0  0.00569  0.76603  0.46988  1.0000
  C   C3250     1.0  0.05722  0.87269  0.40300  1.0000
  C   C3251     1.0  0.01538  0.77136  0.40876  1.0000
  C   C3252     1.0  0.05803  0.82820  0.40680  1.0000
  C   C3253     1.0  0.10381  0.78003  0.45790  1.0000
  C   C3254     1.0  0.11744  0.88061  0.48078  1.0000
  H   H2588     1.0  0.42605  0.96643  0.32584  1.0000
  Fe  Fe235     1.0  0.09631  0.76392  0.41295  1.0000
  H   H2589     1.0  0.19219  0.83413  0.45165  1.0000
  C   C3255     1.0  0.04507  0.84512  0.38598  1.0000
  C   C3256     1.0  0.04292  0.87133  0.38928  1.0000
  H   H2590     1.0  0.00974  0.84213  0.43724  1.0000
  C   C3257     1.0  0.06690  0.86067  0.43352  1.0000
  C   C3258     1.0  0.04005  0.84077  0.36992  1.0000
  H   H2591     1.0  0.46822  0.96663  0.34579  1.0000
  S   S455      1.0  0.34208  0.90156  0.47422  1.0000
  H   H2592     1.0  0.03980  0.77470  0.42170  1.0000
  C   C3259     1.0  0.47905  0.87912  0.26842  1.0000
  H   H2593     1.0  0.44764  0.97204  0.41359  1.0000
  H   H2594     1.0  0.44376  0.94772  0.38225  1.0000
  C   C3260     1.0  0.19551  0.88637  0.47569  1.0000
  H   H2595     1.0  0.25958  0.98469  0.45845  1.0000
  C   C3261     1.0  0.02033  0.84064  0.40944  1.0000
  H   H2596     1.0  0.46293  0.97449  0.36371  1.0000
  C   C3262     1.0  0.13739  0.79219  0.39120  1.0000
  C   C3263     1.0  0.38168  0.88414  0.47142  1.0000
  H   H2597     1.0  0.45549  0.96098  0.30121  1.0000
  P   P106      1.0  0.35579  0.92964  0.40446  1.0000
  C   C3264     1.0  0.44335  0.95069  0.28366  1.0000
  C   C3265     1.0  0.01227  0.78360  0.40746  1.0000
  P   P107      1.0  0.03033  0.76339  0.40902  1.0000
  C   C3266     1.0  0.12365  0.75208  0.43801  1.0000
  C   C3267     1.0  0.13233  0.82180  0.40577  1.0000
  H   H2598     1.0  0.45381  0.93618  0.32724  1.0000
  H   H2599     1.0  0.34808  0.92757  0.43000  1.0000
  C   C3268     1.0  0.48347  0.94646  0.29198  1.0000
  C   C3269     1.0  0.39950  0.92786  0.42188  1.0000
  H   H2600     1.0  0.05275  0.79209  0.41563  1.0000
  H   H2601     1.0  0.36052  0.92913  0.37938  1.0000
  H   H2602     1.0  0.16140  0.90055  0.45170  1.0000
  H   H2603     1.0  0.20258  0.92478  0.48591  1.0000
  C   C3270     1.0  0.05158  0.84037  0.36342  1.0000
  H   H2604     1.0  0.13265  0.83294  0.41664  1.0000
  H   H2605     1.0  0.39621  0.93519  0.38675  1.0000
  H   H2606     1.0  0.38072  0.89168  0.42016  1.0000
  C   C3271     1.0  0.43481  0.96708  0.32553  1.0000
  C   C3272     1.0  0.45355  0.95858  0.33128  1.0000
  C   C3273     1.0  0.44208  0.95790  0.33183  1.0000
  C   C3274     1.0  0.43877  0.97720  0.31904  1.0000
  C   C3275     1.0  0.45464  0.96418  0.24115  1.0000
  C   C3276     1.0  0.13677  0.74651  0.47056  1.0000
  P   P108      1.0  0.46258  0.94748  0.34038  1.0000
  H   H2607     1.0  0.43871  0.95035  0.33722  1.0000
  H   H2608     1.0  0.10708  0.74392  0.37140  1.0000
  H   H2609     1.0  0.04489  0.88877  0.37998  1.0000
  C   C3277     1.0  0.00873  0.88359  0.42887  1.0000
  C   C3278     1.0  0.07945  0.75726  0.46062  1.0000
  C   C3279     1.0  0.34252  0.93303  0.39906  1.0000
  H   H2610     1.0  0.47104  0.96684  0.41645  1.0000
  C   C3280     1.0  0.18983  0.95022  0.46941  1.0000
  C   C3281     1.0  0.45607  0.92979  0.33488  1.0000
  H   H2611     1.0  0.33992  0.91427  0.41922  1.0000
  C   C3282     1.0  0.41325  0.88982  0.44156  1.0000
  C   C3283     1.0  0.14074  0.80314  0.42293  1.0000
  S   S456      1.0  0.31750  0.89776  0.47109  1.0000
  C   C3284     1.0  0.04582  0.86178  0.39839  1.0000
  C   C3285     1.0  0.05525  0.85347  0.49088  1.0000
  C   C3286     1.0  0.05658  0.84496  0.37927  1.0000
  C   C3287     1.0  0.06812  0.74296  0.44060  1.0000
  C   C3288     1.0  0.48860  0.95609  0.28640  1.0000
  Fe  Fe236     1.0  0.48300  0.95534  0.38480  1.0000
  H   H2612     1.0  0.25999  0.91014  0.48994  1.0000
  C   C3289     1.0  0.00965  0.89740  0.46153  1.0000
  C   C3290     1.0  0.19932  0.82905  0.46712  1.0000
  C   C3291     1.0  0.30884  0.98959  0.40618  1.0000
  C   C3292     1.0  0.45909  0.95258  0.35378  1.0000
  C   C3293     1.0  0.46032  0.93288  0.34291  1.0000
  C   C3294     1.0  0.45522  0.91824  0.33636  1.0000
  C   C3295     1.0  0.36821  0.93158  0.39232  1.0000
  C   C3296     1.0  0.35840  0.91463  0.41271  1.0000
  S   S457      1.0  0.47607  0.90169  0.31638  1.0000
  H   H2613     1.0  0.04249  0.84967  0.44132  1.0000
  H   H2614     1.0  0.39593  0.93369  0.36690  1.0000
  S   S458      1.0  0.11256  0.79214  0.42361  1.0000
  C   C3297     1.0  0.02763  0.88682  0.46789  1.0000
  H   H2615     1.0  0.20185  0.87264  0.46603  1.0000
  H   H2616     1.0  0.03365  0.83905  0.36635  1.0000
  H   H2617     1.0  0.46443  0.97808  0.29090  1.0000
  C   C3298     1.0  0.34891  0.90940  0.41900  1.0000
  H   H2618     1.0  0.34361  0.89378  0.43015  1.0000
  S   S459      1.0  0.25033  0.91200  0.46264  1.0000
  H   H2619     1.0  0.19168  0.91694  0.42989  1.0000
  H   H2620     1.0  0.47335  0.94815  0.46233  1.0000
  C   C3299     1.0  0.38666  0.94657  0.41592  1.0000
  C   C3300     1.0  0.44090  0.94531  0.42036  1.0000
  C   C3301     1.0  0.10798  0.81915  0.39823  1.0000
  C   C3302     1.0  0.04230  0.86816  0.43762  1.0000
  C   C3303     1.0  0.15444  0.87781  0.47390  1.0000
  C   C3304     1.0  0.15309  0.88893  0.46647  1.0000
  C   C3305     1.0  0.17777  0.91743  0.44540  1.0000
  S   S460      1.0  0.15986  0.91780  0.46473  1.0000
  C   C3306     1.0  0.37187  0.89655  0.41957  1.0000
  H   H2621     1.0  0.14006  0.81638  0.43187  1.0000
  C   C3307     1.0  0.00098  0.85306  0.41429  1.0000
  C   C3308     1.0  0.13699  0.76468  0.42685  1.0000
  C   C3309     1.0  0.01729  0.89554  0.46887  1.0000
  C   C3310     1.0  0.03031  0.87989  0.45966  1.0000
  C   C3311     1.0  0.09166  0.78347  0.46175  1.0000
  C   C3312     1.0  0.28235  0.92423  0.46426  1.0000
  H   H2622     1.0  0.06701  0.87887  0.43087  1.0000
  C   C3313     1.0  0.01233  0.89052  0.45324  1.0000
  Fe  Fe237     1.0  0.23181  0.90961  0.46931  1.0000
  Fe  Fe238     1.0  0.48918  0.90061  0.32670  1.0000
  C   C3314     1.0  0.45870  0.90965  0.34583  1.0000
  C   C3315     1.0  0.46402  0.92414  0.35227  1.0000
  Fe  Fe239     1.0  0.11019  0.82327  0.47986  1.0000
  C   C3316     1.0  0.37839  0.93328  0.39425  1.0000
  H   H2623     1.0  0.34566  0.91589  0.39523  1.0000
  C   C3317     1.0  0.03300  0.75035  0.40349  1.0000
  H   H2624     1.0  0.14491  0.89541  0.46798  1.0000
  H   H2625     1.0  0.46611  0.90588  0.36092  1.0000
  S   S461      1.0  0.22403  0.92582  0.45746  1.0000
  H   H2626     1.0  0.46231  0.98857  0.46930  1.0000
  H   H2627     1.0  0.12538  0.81054  0.46109  1.0000
  H   H2628     1.0  0.43090  0.97313  0.29797  1.0000
  C   C3318     1.0  0.27917  0.95855  0.46311  1.0000
  H   H2629     1.0  0.02174  0.86921  0.40483  1.0000
  H   H2630     1.0  0.46802  0.92611  0.35819  1.0000
  C   C3319     1.0  0.36815  0.93063  0.38110  1.0000
  H   H2631     1.0  0.00609  0.89197  0.44792  1.0000
  C   C3320     1.0  0.47199  0.95888  0.47418  1.0000
  H   H2632     1.0  0.02889  0.89787  0.40097  1.0000
  S   S462      1.0  0.10668  0.74745  0.40667  1.0000
  C   C3321     1.0  0.46301  0.91263  0.35383  1.0000
  C   C3322     1.0  0.14598  0.76841  0.39012  1.0000
  H   H2633     1.0  0.40414  0.87946  0.45682  1.0000
  C   C3323     1.0  0.42836  0.98272  0.25980  1.0000
  H   H2634     1.0  0.48351  0.93863  0.35013  1.0000
  C   C3324     1.0  0.02162  0.82307  0.48952  1.0000
  C   C3325     1.0  0.11376  0.86999  0.48391  1.0000
  H   H2635     1.0  0.35953  0.97366  0.43845  1.0000
  C   C3326     1.0  0.36239  0.89137  0.42563  1.0000
  C   C3327     1.0  0.46288  0.96245  0.35369  1.0000
  H   H2636     1.0  0.41369  0.96348  0.48211  1.0000
  C   C3328     1.0  0.43627  0.96848  0.29120  1.0000
  H   H2637     1.0  0.29158  0.91632  0.48957  1.0000
  H   H2638     1.0  0.18498  0.86292  0.48720  1.0000
  H   H2639     1.0  0.01446  0.77970  0.48430  1.0000
  H   H2640     1.0  0.49382  0.89037  0.38399  1.0000
  H   H2641     1.0  0.05411  0.83836  0.35479  1.0000
  H   H2642     1.0  0.43998  0.93674  0.46723  1.0000
  C   C3329     1.0  0.03679  0.84315  0.38115  1.0000
  C   C3330     1.0  0.37820  0.92797  0.48427  1.0000
  C   C3331     1.0  0.44272  0.97641  0.43814  1.0000
  C   C3332     1.0  0.17959  0.84514  0.47633  1.0000
  H   H2643     1.0  0.06062  0.82742  0.39775  1.0000
  H   H2644     1.0  0.32402  0.96829  0.45881  1.0000
  C   C3333     1.0  0.32207  0.96099  0.45691  1.0000
  H   H2645     1.0  0.46511  0.94227  0.39794  1.0000
  C   C3334     1.0  0.44059  0.95208  0.25148  1.0000
  C   C3335     1.0  0.13445  0.82401  0.41558  1.0000
  C   C3336     1.0  0.48760  0.88472  0.28127  1.0000
  C   C3337     1.0  0.41783  0.89988  0.43693  1.0000
  C   C3338     1.0  0.47890  0.96186  0.43149  1.0000
  S   S463      1.0  0.36797  0.90171  0.44740  1.0000
  H   H2646     1.0  0.28107  0.88689  0.47145  1.0000
  H   H2647     1.0  0.03724  0.88571  0.41779  1.0000
  H   H2648     1.0  0.03338  0.88519  0.47381  1.0000
  H   H2649     1.0  0.07638  0.85773  0.43219  1.0000
  H   H2650     1.0  0.47729  0.98611  0.31291  1.0000
  C   C3339     1.0  0.38817  0.96304  0.38693  1.0000
  C   C3340     1.0  0.46208  0.94368  0.43756  1.0000
  H   H2651     1.0  0.38382  0.95662  0.39340  1.0000
  C   C3341     1.0  0.13021  0.78412  0.39661  1.0000
  C   C3342     1.0  0.03780  0.76469  0.43939  1.0000
  C   C3343     1.0  0.46609  0.98804  0.24438  1.0000
  H   H2652     1.0  0.42011  0.91537  0.44055  1.0000
  C   C3344     1.0  0.41653  0.90757  0.44409  1.0000
  C   C3345     1.0  0.15000  0.81861  0.37932  1.0000
  H   H2653     1.0  0.29340  0.87190  0.46029  1.0000
  H   H2654     1.0  0.45606  0.97256  0.26525  1.0000
  H   H2655     1.0  0.11860  0.98137  0.43206  1.0000
  P   P109      1.0  0.39902  0.89194  0.47599  1.0000
  H   H2656     1.0  0.06547  0.89014  0.46749  1.0000
  C   C3346     1.0  0.03169  0.76025  0.42404  1.0000
  H   H2657     1.0  0.44303  0.94167  0.28467  1.0000
  C   C3347     1.0  0.43624  0.95676  0.29232  1.0000
  H   H2658     1.0  0.42554  0.98590  0.43530  1.0000
  C   C3348     1.0  0.13935  0.81645  0.37905  1.0000
  P   P110      1.0  0.46495  0.96398  0.44192  1.0000
  H   H2659     1.0  0.09957  0.98252  0.47667  1.0000
  S   S464      1.0  0.09878  0.76615  0.42963  1.0000
  C   C3349     1.0  0.32105  0.95083  0.46568  1.0000
  C   C3350     1.0  0.31842  0.94136  0.46339  1.0000
  H   H2660     1.0  0.28864  0.92820  0.45715  1.0000
  H   H2661     1.0  0.26754  0.93855  0.46108  1.0000
  C   C3351     1.0  0.41066  0.90520  0.45586  1.0000
  C   C3352     1.0  0.13717  0.76160  0.47977  1.0000
  H   H2662     1.0  0.11635  0.79422  0.46330  1.0000
  C   C3353     1.0  0.47914  0.96400  0.41949  1.0000
  H   H2663     1.0  0.00295  0.87975  0.43666  1.0000
  H   H2664     1.0  0.45843  0.90978  0.25774  1.0000
  C   C3354     1.0  0.20271  0.87577  0.47318  1.0000
  H   H2665     1.0  0.48889  0.93772  0.29239  1.0000
  C   C3355     1.0  0.45472  0.97634  0.43538  1.0000
  C   C3356     1.0  0.15021  0.79019  0.45343  1.0000
  C   C3357     1.0  0.45914  0.95098  0.44557  1.0000
  S   S465      1.0  0.09875  0.78187  0.40323  1.0000
  C   C3358     1.0  0.36091  0.96979  0.47926  1.0000
  C   C3359     1.0  0.37458  0.97120  0.42425  1.0000
  Fe  Fe240     1.0  0.34933  0.90020  0.45545  1.0000
  Fe  Fe241     1.0  0.32665  0.89661  0.45254  1.0000
  H   H2666     1.0  0.17103  0.91841  0.44079  1.0000
  H   H2667     1.0  0.43895  0.86942  0.48057  1.0000
  C   C3360     1.0  0.00956  0.84091  0.45524  1.0000
  H   H2668     1.0  0.46702  0.91059  0.28934  1.0000
  C   C3361     1.0  0.02541  0.85039  0.40618  1.0000
  S   S466      1.0  0.22201  0.90523  0.48787  1.0000
  C   C3362     1.0  0.05983  0.84249  0.36808  1.0000
  H   H2669     1.0  0.47582  0.95228  0.31586  1.0000
  C   C3363     1.0  0.26626  0.97701  0.45654  1.0000
  H   H2670     1.0  0.06958  0.77265  0.39448  1.0000
  C   C3364     1.0  0.01208  0.84574  0.44324  1.0000
  H   H2671     1.0  0.05567  0.85529  0.41216  1.0000
  H   H2672     1.0  0.37790  0.95158  0.41523  1.0000
  H   H2673     1.0  0.09154  0.81060  0.42164  1.0000
  C   C3365     1.0  0.48264  0.98160  0.34395  1.0000
  H   H2674     1.0  0.08484  0.75549  0.39917  1.0000
  P   P111      1.0  0.16672  0.85536  0.48215  1.0000
  H   H2675     1.0  0.46586  0.96984  0.32492  1.0000
  C   C3366     1.0  0.45721  0.93387  0.44032  1.0000
  H   H2676     1.0  0.23644  0.92154  0.48431  1.0000
  C   C3367     1.0  0.40251  0.98219  0.41376  1.0000
  C   C3368     1.0  0.02799  0.88691  0.41836  1.0000
  C   C3369     1.0  0.44995  0.94008  0.41207  1.0000
  C   C3370     1.0  0.12873  0.76437  0.44758  1.0000
  H   H2677     1.0  0.08302  0.81967  0.39049  1.0000
  H   H2678     1.0  0.12677  0.81970  0.36831  1.0000
  H   H2679     1.0  0.14373  0.79593  0.42973  1.0000
  H   H2680     1.0  0.34086  0.92286  0.48384  1.0000
  H   H2681     1.0  0.37917  0.96354  0.42959  1.0000
  H   H2682     1.0  0.02783  0.84328  0.38600  1.0000
  C   C3371     1.0  0.10567  0.77075  0.47787  1.0000
  S   S467      1.0  0.34295  0.88408  0.45754  1.0000
  Fe  Fe242     1.0  0.32605  0.91268  0.46781  1.0000
  H   H2683     1.0  0.32255  0.95021  0.47415  1.0000
  H   H2684     1.0  0.43425  0.97400  0.39550  1.0000
  C   C3372     1.0  0.02328  0.89381  0.40874  1.0000
  C   C3373     1.0  0.01987  0.86041  0.44684  1.0000
  H   H2685     1.0  0.47480  0.87315  0.26694  1.0000
  C   C3374     1.0  0.27074  0.97583  0.44492  1.0000
  C   C3375     1.0  0.44899  0.95190  0.37422  1.0000
  C   C3376     1.0  0.09349  0.77438  0.48174  1.0000
  H   H2686     1.0  0.03827  0.87307  0.45926  1.0000
  C   C3377     1.0  0.18410  0.93059  0.48612  1.0000
  C   C3378     1.0  0.11896  0.98702  0.45780  1.0000
  C   C3379     1.0  0.45950  0.91477  0.26334  1.0000
  C   C3380     1.0  0.39618  0.95209  0.41220  1.0000
  C   C3381     1.0  0.00596  0.86280  0.41128  1.0000
  H   H2687     1.0  0.41428  0.88385  0.43601  1.0000
  S   S468      1.0  0.41243  0.93909  0.48661  1.0000
  S   S469      1.0  0.31684  0.92892  0.47466  1.0000
  H   H2688     1.0  0.25071  0.96651  0.44479  1.0000
  C   C3382     1.0  0.44633  0.93855  0.45904  1.0000
  H   H2689     1.0  0.07707  0.78326  0.47658  1.0000
  C   C3383     1.0  0.37965  0.97532  0.41243  1.0000
  H   H2690     1.0  0.18893  0.89133  0.47067  1.0000
  C   C3384     1.0  0.28611  0.91330  0.47129  1.0000
  H   H2691     1.0  0.34902  0.93737  0.48765  1.0000
  C   C3385     1.0  0.06121  0.82069  0.42657  1.0000
  H   H2692     1.0  0.06387  0.85538  0.48806  1.0000
  C   C3386     1.0  0.99923  0.78873  0.47717  1.0000
  H   H2693     1.0  0.19210  0.95778  0.46295  1.0000
  H   H2694     1.0  0.08260  0.87433  0.47200  1.0000
  H   H2695     1.0  0.43750  0.97982  0.25576  1.0000
  C   C3387     1.0  0.47807  0.94596  0.33370  1.0000
  C   C3388     1.0  0.44998  0.97814  0.31889  1.0000
  H   H2696     1.0  0.45086  0.96498  0.38195  1.0000
  C   C3389     1.0  0.42263  0.98442  0.40761  1.0000
  H   H2697     1.0  0.17392  0.98387  0.41786  1.0000
  H   H2698     1.0  0.13481  0.77065  0.48063  1.0000
  H   H2699     1.0  0.06877  0.84216  0.36304  1.0000
  C   C3390     1.0  0.47095  0.95703  0.46372  1.0000
  H   H2700     1.0  0.16861  0.99003  0.48462  1.0000
  H   H2701     1.0  0.41768  0.92811  0.41936  1.0000
  C   C3391     1.0  0.38775  0.96487  0.37517  1.0000
  C   C3392     1.0  0.45979  0.96699  0.36379  1.0000
  C   C3393     1.0  0.45730  0.95790  0.40485  1.0000
  C   C3394     1.0  0.13838  0.80089  0.41326  1.0000
  H   H2702     1.0  0.00766  0.90098  0.40176  1.0000
  C   C3395     1.0  0.12248  0.75617  0.44798  1.0000
  H   H2703     1.0  0.12703  0.97144  0.48890  1.0000
  C   C3396     1.0  0.12579  0.79299  0.46028  1.0000
  H   H2704     1.0  0.05510  0.76154  0.40790  1.0000
  C   C3397     1.0  0.13442  0.77233  0.39594  1.0000
  C   C3398     1.0  0.19514  0.98848  0.42825  1.0000
  S   S470      1.0  0.48282  0.94590  0.37144  1.0000
  C   C3399     1.0  0.13411  0.81022  0.40461  1.0000
  Fe  Fe243     1.0  0.15495  0.91031  0.48416  1.0000
  S   S471      1.0  0.07986  0.79139  0.42599  1.0000
  S   S472      1.0  0.07044  0.80024  0.39547  1.0000
  C   C3400     1.0  0.10640  0.80458  0.42973  1.0000
  H   H2705     1.0  0.08625  0.78816  0.45545  1.0000
  C   C3401     1.0  0.44830  0.96311  0.41318  1.0000
  H   H2706     1.0  0.47872  0.98458  0.25498  1.0000
  C   C3402     1.0  0.46672  0.96654  0.45519  1.0000
  C   C3403     1.0  0.46367  0.97794  0.45724  1.0000
  C   C3404     1.0  0.04496  0.83704  0.42265  1.0000
  H   H2707     1.0  0.41488  0.94921  0.41119  1.0000
  C   C3405     1.0  0.13287  0.78222  0.45790  1.0000
  S   S473      1.0  0.33652  0.98793  0.45086  1.0000
  H   H2708     1.0  0.14727  0.87576  0.48118  1.0000
  H   H2709     1.0  0.06412  0.84322  0.43735  1.0000
  H   H2710     1.0  0.40496  0.97136  0.27661  1.0000
  C   C3406     1.0  0.47145  0.94818  0.29707  1.0000
  H   H2711     1.0  0.36005  0.97403  0.46108  1.0000
  H   H2712     1.0  0.14695  0.80806  0.45521  1.0000
  H   H2713     1.0  0.13553  0.93845  0.47859  1.0000
  C   C3407     1.0  0.15444  0.84878  0.48452  1.0000
  C   C3408     1.0  0.39068  0.90571  0.48001  1.0000
  H   H2714     1.0  0.37474  0.90540  0.47552  1.0000
  C   C3409     1.0  0.00404  0.89049  0.41927  1.0000
  P   P112      1.0  0.39388  0.96766  0.40560  1.0000
  C   C3410     1.0  0.13791  0.94645  0.47836  1.0000
  C   C3411     1.0  0.19862  0.94152  0.47411  1.0000
  H   H2715     1.0  0.24053  0.86055  0.47577  1.0000
  C   C3412     1.0  0.17530  0.93929  0.48136  1.0000
  C   C3413     1.0  0.38913  0.88230  0.47901  1.0000
  C   C3414     1.0  0.13088  0.75633  0.42742  1.0000
  H   H2716     1.0  0.28251  0.95190  0.47014  1.0000
  H   H2717     1.0  0.13752  0.83177  0.35123  1.0000
  H   H2718     1.0  0.31299  0.86109  0.46416  1.0000
  H   H2719     1.0  0.19880  0.97833  0.48306  1.0000
  H   H2720     1.0  0.16424  0.82714  0.36987  1.0000
  C   C3415     1.0  0.05724  0.89031  0.48564  1.0000
  C   C3416     1.0  0.46985  0.98884  0.25389  1.0000
  C   C3417     1.0  0.30426  0.98910  0.41815  1.0000
  C   C3418     1.0  0.15605  0.82548  0.36957  1.0000
  C   C3419     1.0  0.11644  0.98597  0.43911  1.0000
  H   H2721     1.0  0.39271  0.97476  0.35757  1.0000
  H   H2722     1.0  0.09711  0.80586  0.37885  1.0000
  H   H2723     1.0  0.42940  0.98832  0.40806  1.0000
  C   C3420     1.0  0.15331  0.77632  0.38493  1.0000
  C   C3421     1.0  0.24308  0.86677  0.47887  1.0000
  H   H2724     1.0  0.11816  0.80068  0.37922  1.0000
  H   H2725     1.0  0.23010  0.97770  0.44040  1.0000
  C   C3422     1.0  0.40598  0.89516  0.46058  1.0000
  H   H2726     1.0  0.20695  0.82285  0.46355  1.0000
  H   H2727     1.0  0.46787  0.94562  0.42905  1.0000
  H   H2728     1.0  0.16868  0.96999  0.48389  1.0000
  C   C3423     1.0  0.09612  0.82226  0.39772  1.0000
  H   H2729     1.0  0.40299  0.98395  0.38410  1.0000
  C   C3424     1.0  0.45862  0.98623  0.42790  1.0000
  C   C3425     1.0  0.19697  0.89072  0.48454  1.0000
  C   C3426     1.0  0.21227  0.87342  0.48901  1.0000
  C   C3427     1.0  0.02570  0.81523  0.48192  1.0000
  Fe  Fe244     1.0  0.49183  0.89580  0.30269  1.0000
  H   H2730     1.0  0.00145  0.90391  0.46254  1.0000
  C   C3428     1.0  0.12991  0.95486  0.48423  1.0000
  S   S474      1.0  0.99986  0.79342  0.43362  1.0000
  H   H2731     1.0  0.46781  0.98648  0.42580  1.0000
  S   S475      1.0  0.49226  0.88112  0.29455  1.0000
  C   C3429     1.0  0.17868  0.98857  0.42057  1.0000
  Fe  Fe245     1.0  0.08411  0.83412  0.48552  1.0000
  C   C3430     1.0  0.19577  0.93161  0.48234  1.0000
  H   H2732     1.0  0.12314  0.98310  0.46518  1.0000
  C   C3431     1.0  0.41052  0.88509  0.48403  1.0000
  C   C3432     1.0  0.49006  0.89445  0.27243  1.0000
  C   C3433     1.0  0.37288  0.92117  0.48079  1.0000
  H   H2733     1.0  0.31141  0.96635  0.48357  1.0000
  H   H2734     1.0  0.12813  0.97277  0.44905  1.0000
  H   H2735     1.0  0.38536  0.98195  0.47892  1.0000
  H   H2736     1.0  0.04132  0.78675  0.48044  1.0000
  C   C3434     1.0  0.04711  0.78813  0.48501  1.0000
  C   C3435     1.0  0.27069  0.98872  0.48261  1.0000
  H   H2737     1.0  0.37356  0.93678  0.48536  1.0000
  C   C3436     1.0  0.02909  0.75118  0.39342  1.0000
  H   H2738     1.0  0.11852  0.74598  0.43847  1.0000
  H   H2739     1.0  0.33400  0.95649  0.48486  1.0000
  P   P113      1.0  0.28371  0.89478  0.49072  1.0000
  H   H2740     1.0  0.34879  0.99169  0.42676  1.0000
  C   C3437     1.0  0.18783  0.83854  0.48312  1.0000
  C   C3438     1.0  0.48957  0.95796  0.43519  1.0000
  H   H2741     1.0  0.12580  0.89158  0.48549  1.0000
  H   H2742     1.0  0.42605  0.95476  0.24351  1.0000
  H   H2743     1.0  0.37754  0.98922  0.39701  1.0000
  C   C3439     1.0  0.23652  0.87046  0.48924  1.0000
  H   H2744     1.0  0.24558  0.98888  0.43344  1.0000
  H   H2745     1.0  0.48980  0.88220  0.36942  1.0000
  C   C3440     1.0  0.36253  0.99146  0.41119  1.0000
  H   H2746     1.0  0.00310  0.74290  0.37378  1.0000
  H   H2747     1.0  0.49314  0.91406  0.34367  1.0000
  H   H2748     1.0  0.48969  0.95616  0.44438  1.0000
  C   C3441     1.0  0.49269  0.94641  0.24294  1.0000
  C   C3442     1.0  0.30471  0.96241  0.49014  1.0000
  C   C3443     1.0  0.49403  0.94615  0.31633  1.0000
  H   H2749     1.0  0.29137  0.97800  0.48756  1.0000
  C   C3444     1.0  0.00581  0.81259  0.48561  1.0000
  H   H2750     1.0  0.05660  0.80967  0.49015  1.0000
  H   H2751     1.0  0.46960  0.97166  0.48435  1.0000
  Fe  Fe246     1.0  0.39795  0.96496  0.54002  1.0000
  S   S476      1.0  0.40655  0.94695  0.54859  1.0000
  C   C3445     1.0  0.05050  0.81201  0.53662  1.0000
  Fe  Fe247     1.0  0.37906  0.96827  0.56196  1.0000
  S   S477      1.0  0.38609  0.95035  0.57221  1.0000
  C   C3446     1.0  0.27593  0.89018  0.61291  1.0000
  Fe  Fe248     1.0  0.40387  0.95476  0.56417  1.0000
  S   S478      1.0  0.41761  0.94890  0.57535  1.0000
  Fe  Fe249     1.0  0.38813  0.94424  0.55581  1.0000
  S   S479      1.0  0.38400  0.92830  0.55307  1.0000
  S   S480      1.0  0.39663  0.97313  0.55501  1.0000
  S   S481      1.0  0.37969  0.96180  0.54624  1.0000
  H   H2752     1.0  0.17909  0.92396  0.51578  1.0000
  H   H2753     1.0  0.19110  0.92422  0.52907  1.0000
  C   C3447     1.0  0.42589  0.99100  0.60880  1.0000
  C   C3448     1.0  0.34946  0.93937  0.61168  1.0000
  H   H2754     1.0  0.36668  0.94198  0.61018  1.0000
  H   H2755     1.0  0.15752  0.92616  0.52286  1.0000
  S   S482      1.0  0.15945  0.91712  0.49711  1.0000
  H   H2756     1.0  0.14603  0.75566  0.49409  1.0000
  H   H2757     1.0  0.47176  0.89649  0.68206  1.0000
  H   H2758     1.0  0.31804  0.89728  0.62324  1.0000
  H   H2759     1.0  0.36045  0.96351  0.49761  1.0000
  Fe  Fe250     1.0  0.29183  0.98273  0.56150  1.0000
  S   S483      1.0  0.29527  0.96392  0.57101  1.0000
  H   H2760     1.0  0.46858  0.91629  0.68576  1.0000
  Fe  Fe251     1.0  0.32895  0.90518  0.56381  1.0000
  S   S484      1.0  0.33301  0.91058  0.54418  1.0000
  S   S485      1.0  0.33667  0.91092  0.57559  1.0000
  Fe  Fe252     1.0  0.31123  0.89123  0.56428  1.0000
  S   S486      1.0  0.31405  0.89552  0.54466  1.0000
  S   S487      1.0  0.29990  0.87926  0.57690  1.0000
  Fe  Fe253     1.0  0.33313  0.89198  0.54473  1.0000
  S   S488      1.0  0.34735  0.88001  0.53446  1.0000
  Fe  Fe254     1.0  0.31358  0.91358  0.54618  1.0000
  S   S489      1.0  0.30280  0.93010  0.53739  1.0000
  S   S490      1.0  0.33047  0.88628  0.56429  1.0000
  S   S491      1.0  0.30938  0.90950  0.56583  1.0000
  C   C3449     1.0  0.36273  0.88373  0.56470  1.0000
  C   C3450     1.0  0.31780  0.94605  0.59550  1.0000
  H   H2761     1.0  0.30465  0.88562  0.52261  1.0000
  Fe  Fe255     1.0  0.45828  0.93436  0.71929  1.0000
  C   C3451     1.0  0.05152  0.83233  0.52776  1.0000
  H   H2762     1.0  0.48722  0.89040  0.66519  1.0000
  C   C3452     1.0  0.44085  0.93248  0.61280  1.0000
  C   C3453     1.0  0.45375  0.94825  0.67120  1.0000
  H   H2763     1.0  0.30142  0.93751  0.51088  1.0000
  H   H2764     1.0  0.10770  0.98969  0.51144  1.0000
  Fe  Fe256     1.0  0.23623  0.89389  0.56438  1.0000
  S   S492      1.0  0.23819  0.91235  0.55695  1.0000
  S   S493      1.0  0.24783  0.88041  0.57569  1.0000
  Fe  Fe257     1.0  0.21349  0.89842  0.55566  1.0000
  S   S494      1.0  0.21364  0.91735  0.54774  1.0000
  S   S495      1.0  0.19768  0.89147  0.55678  1.0000
  Fe  Fe258     1.0  0.23299  0.91064  0.54141  1.0000
  S   S496      1.0  0.24203  0.91863  0.52340  1.0000
  Fe  Fe259     1.0  0.21881  0.91720  0.56403  1.0000
  S   S497      1.0  0.21123  0.93106  0.57447  1.0000
  S   S498      1.0  0.23264  0.89148  0.54812  1.0000
  S   S499      1.0  0.21707  0.89887  0.57265  1.0000
  Fe  Fe260     1.0  0.16328  0.89850  0.50689  1.0000
  C   C3454     1.0  0.42855  0.87506  0.49639  1.0000
  S   S500      1.0  0.18063  0.89200  0.51244  1.0000
  Fe  Fe261     1.0  0.14154  0.89350  0.50307  1.0000
  C   C3455     1.0  0.31669  0.97067  0.59477  1.0000
  S   S501      1.0  0.13191  0.87865  0.50788  1.0000
  C   C3456     1.0  0.31929  0.89836  0.60500  1.0000
  C   C3457     1.0  0.45389  0.95240  0.65044  1.0000
  Fe  Fe262     1.0  0.14085  0.91752  0.50695  1.0000
  S   S502      1.0  0.12949  0.93300  0.51482  1.0000
  H   H2765     1.0  0.48083  0.92987  0.67310  1.0000
  S   S503      1.0  0.14496  0.89917  0.51777  1.0000
  Fe  Fe263     1.0  0.11512  0.74463  0.51293  1.0000
  C   C3458     1.0  0.11566  0.86215  0.49441  1.0000
  H   H2766     1.0  0.46375  0.98586  0.65893  1.0000
  C   C3459     1.0  0.44114  0.95911  0.58620  1.0000
  C   C3460     1.0  0.35882  0.94499  0.60669  1.0000
  C   C3461     1.0  0.09341  0.88821  0.51374  1.0000
  H   H2767     1.0  0.12327  0.91488  0.59102  1.0000
  C   C3462     1.0  0.06067  0.77998  0.49798  1.0000
  C   C3463     1.0  0.41121  0.95571  0.64586  1.0000
  C   C3464     1.0  0.02263  0.80291  0.51308  1.0000
  S   S504      1.0  0.06655  0.83026  0.49611  1.0000
  H   H2768     1.0  0.30140  0.88906  0.59439  1.0000
  C   C3465     1.0  0.10278  0.97773  0.50456  1.0000
  C   C3466     1.0  0.06519  0.74464  0.53010  1.0000
  H   H2769     1.0  0.09757  0.96794  0.49543  1.0000
  H   H2770     1.0  0.00006  0.82359  0.54169  1.0000
  S   S505      1.0  0.22161  0.97942  0.54319  1.0000
  H   H2771     1.0  0.03745  0.76094  0.53598  1.0000
  C   C3467     1.0  0.05110  0.82131  0.52675  1.0000
  H   H2772     1.0  0.18613  0.86950  0.50415  1.0000
  C   C3468     1.0  0.30041  0.88712  0.61282  1.0000
  S   S506      1.0  0.47558  0.98046  0.59352  1.0000
  C   C3469     1.0  0.39702  0.89576  0.52668  1.0000
  C   C3470     1.0  0.15312  0.83886  0.49361  1.0000
  H   H2773     1.0  0.10834  0.77451  0.50000  1.0000
  H   H2774     1.0  0.33010  0.97593  0.59936  1.0000
  S   S507      1.0  0.44860  0.96546  0.68374  1.0000
  H   H2775     1.0  0.02840  0.86504  0.52464  1.0000
  C   C3471     1.0  0.36839  0.88340  0.55303  1.0000
  H   H2776     1.0  0.35007  0.93199  0.61908  1.0000
  C   C3472     1.0  0.05686  0.75069  0.51293  1.0000
  C   C3473     1.0  0.40613  0.91057  0.51183  1.0000
  C   C3474     1.0  0.43812  0.98905  0.71694  1.0000
  C   C3475     1.0  0.34806  0.95821  0.59242  1.0000
  C   C3476     1.0  0.35149  0.98653  0.56366  1.0000
  C   C3477     1.0  0.08036  0.83516  0.51707  1.0000
  C   C3478     1.0  0.08618  0.77668  0.52088  1.0000
  C   C3479     1.0  0.35666  0.90784  0.51928  1.0000
  C   C3480     1.0  0.40737  0.95050  0.65762  1.0000
  C   C3481     1.0  0.47442  0.90380  0.72091  1.0000
  H   H2777     1.0  0.29893  0.85600  0.65484  1.0000
  C   C3482     1.0  0.33864  0.95262  0.59730  1.0000
  H   H2778     1.0  0.05146  0.82614  0.55680  1.0000
  H   H2779     1.0  0.37704  0.97738  0.59318  1.0000
  C   C3483     1.0  0.49277  0.90676  0.65948  1.0000
  H   H2780     1.0  0.14790  0.92897  0.54289  1.0000
  C   C3484     1.0  0.11533  0.77844  0.49972  1.0000
  H   H2781     1.0  0.34777  0.98102  0.50775  1.0000
  C   C3485     1.0  0.01854  0.74739  0.58123  1.0000
  C   C3486     1.0  0.25524  0.88875  0.51721  1.0000
  C   C3487     1.0  0.37583  0.88980  0.51341  1.0000
  C   C3488     1.0  0.04538  0.75634  0.53110  1.0000
  C   C3489     1.0  0.28439  0.96403  0.50076  1.0000
  H   H2782     1.0  0.05173  0.83949  0.52012  1.0000
  C   C3490     1.0  0.40590  0.89366  0.53280  1.0000
  C   C3491     1.0  0.29419  0.90948  0.49679  1.0000
  C   C3492     1.0  0.41476  0.90856  0.51809  1.0000
  H   H2783     1.0  0.24909  0.89326  0.52376  1.0000
  H   H2784     1.0  0.01488  0.81944  0.51820  1.0000
  C   C3493     1.0  0.15949  0.86243  0.51479  1.0000
  C   C3494     1.0  0.30040  0.91194  0.50354  1.0000
  H   H2785     1.0  0.32633  0.93776  0.58068  1.0000
  C   C3495     1.0  0.13540  0.94543  0.51199  1.0000
  C   C3496     1.0  0.37977  0.98870  0.49479  1.0000
  C   C3497     1.0  0.41054  0.94851  0.49599  1.0000
  C   C3498     1.0  0.49471  0.90001  0.71045  1.0000
  C   C3499     1.0  0.13262  0.96597  0.51245  1.0000
  C   C3500     1.0  0.12815  0.95585  0.51512  1.0000
  H   H2786     1.0  0.36534  0.95878  0.59307  1.0000
  C   C3501     1.0  0.03273  0.84876  0.49863  1.0000
  H   H2787     1.0  0.12697  0.97402  0.51468  1.0000
  H   H2788     1.0  0.11904  0.95611  0.51946  1.0000
  C   C3502     1.0  0.29214  0.85551  0.51301  1.0000
  C   C3503     1.0  0.48069  0.96073  0.65630  1.0000
  H   H2789     1.0  0.13662  0.92852  0.58241  1.0000
  H   H2790     1.0  0.15635  0.90713  0.55722  1.0000
  C   C3504     1.0  0.04230  0.86764  0.54417  1.0000
  H   H2791     1.0  0.18196  0.92293  0.49261  1.0000
  C   C3505     1.0  0.06950  0.88928  0.52372  1.0000
  C   C3506     1.0  0.28542  0.87450  0.63335  1.0000
  H   H2792     1.0  0.16984  0.86943  0.52176  1.0000
  H   H2793     1.0  0.45732  0.93500  0.66124  1.0000
  C   C3507     1.0  0.43925  0.97122  0.58163  1.0000
  C   C3508     1.0  0.07708  0.77099  0.52700  1.0000
  H   H2794     1.0  0.05119  0.82006  0.51825  1.0000
  C   C3509     1.0  0.46777  0.99182  0.65150  1.0000
  H   H2795     1.0  0.43532  0.95756  0.62247  1.0000
  H   H2796     1.0  0.15340  0.97071  0.56217  1.0000
  C   C3510     1.0  0.35809  0.95443  0.59708  1.0000
  H   H2797     1.0  0.03069  0.77145  0.57983  1.0000
  C   C3511     1.0  0.21369  0.94455  0.56560  1.0000
  C   C3512     1.0  0.21791  0.94585  0.55345  1.0000
  C   C3513     1.0  0.22028  0.95661  0.54654  1.0000
  C   C3514     1.0  0.21815  0.96614  0.55175  1.0000
  C   C3515     1.0  0.21372  0.96483  0.56385  1.0000
  C   C3516     1.0  0.21158  0.95405  0.57078  1.0000
  H   H2798     1.0  0.21957  0.93852  0.54940  1.0000
  H   H2799     1.0  0.22375  0.95756  0.53718  1.0000
  H   H2800     1.0  0.21243  0.97193  0.56802  1.0000
  H   H2801     1.0  0.20838  0.95306  0.58017  1.0000
  C   C3517     1.0  0.23604  0.91552  0.51345  1.0000
  C   C3518     1.0  0.22867  0.90763  0.51747  1.0000
  C   C3519     1.0  0.22453  0.90441  0.50951  1.0000
  C   C3520     1.0  0.22738  0.90938  0.49757  1.0000
  C   C3521     1.0  0.27315  0.97818  0.52247  1.0000
  C   C3522     1.0  0.23877  0.92065  0.50152  1.0000
  H   H2802     1.0  0.22634  0.90379  0.52668  1.0000
  H   H2803     1.0  0.21929  0.89788  0.51258  1.0000
  H   H2804     1.0  0.03204  0.78606  0.50949  1.0000
  H   H2805     1.0  0.36389  0.90674  0.53383  1.0000
  C   C3523     1.0  0.19175  0.89421  0.54434  1.0000
  C   C3524     1.0  0.19823  0.89778  0.53304  1.0000
  C   C3525     1.0  0.19415  0.89809  0.52321  1.0000
  C   C3526     1.0  0.18348  0.89508  0.52458  1.0000
  C   C3527     1.0  0.17657  0.89233  0.53587  1.0000
  C   C3528     1.0  0.18076  0.89180  0.54573  1.0000
  H   H2806     1.0  0.20665  0.89969  0.53192  1.0000
  H   H2807     1.0  0.19950  0.90017  0.51448  1.0000
  H   H2808     1.0  0.16841  0.88981  0.53704  1.0000
  H   H2809     1.0  0.17570  0.88902  0.55446  1.0000
  C   C3529     1.0  0.28522  0.88050  0.57651  1.0000
  C   C3530     1.0  0.28044  0.87064  0.58182  1.0000
  C   C3531     1.0  0.26890  0.87097  0.58170  1.0000
  C   C3532     1.0  0.26201  0.88110  0.57606  1.0000
  C   C3533     1.0  0.26666  0.89112  0.57087  1.0000
  C   C3534     1.0  0.27822  0.89088  0.57130  1.0000
  H   H2810     1.0  0.28574  0.86265  0.58594  1.0000
  H   H2811     1.0  0.26539  0.86321  0.58575  1.0000
  H   H2812     1.0  0.26142  0.89897  0.56645  1.0000
  H   H2813     1.0  0.28177  0.89863  0.56745  1.0000
  C   C3535     1.0  0.34357  0.87781  0.52247  1.0000
  C   C3536     1.0  0.34815  0.86693  0.51931  1.0000
  C   C3537     1.0  0.34532  0.86486  0.50980  1.0000
  C   C3538     1.0  0.33832  0.87383  0.50306  1.0000
  C   C3539     1.0  0.33382  0.88480  0.50610  1.0000
  C   C3540     1.0  0.33626  0.88673  0.51597  1.0000
  H   H2814     1.0  0.35376  0.86002  0.52434  1.0000
  H   H2815     1.0  0.34876  0.85636  0.50750  1.0000
  H   H2816     1.0  0.32834  0.89172  0.50093  1.0000
  H   H2817     1.0  0.33275  0.89517  0.51837  1.0000
  H   H2818     1.0  0.32668  0.90258  0.60190  1.0000
  H   H2819     1.0  0.18177  0.92639  0.54931  1.0000
  H   H2820     1.0  0.32099  0.96545  0.49995  1.0000
  H   H2821     1.0  0.48736  0.97288  0.73670  1.0000
  C   C3541     1.0  0.05132  0.82480  0.54841  1.0000
  C   C3542     1.0  0.26327  0.97248  0.54276  1.0000
  H   H2822     1.0  0.26194  0.97250  0.55195  1.0000
  C   C3543     1.0  0.48237  0.92130  0.67121  1.0000
  H   H2823     1.0  0.25870  0.93950  0.49501  1.0000
  H   H2824     1.0  0.31493  0.92256  0.58751  1.0000
  P   P114      1.0  0.38528  0.88787  0.53244  1.0000
  C   C3544     1.0  0.45074  0.96028  0.67099  1.0000
  C   C3545     1.0  0.31367  0.98842  0.60174  1.0000
  C   C3546     1.0  0.29749  0.95493  0.56128  1.0000
  C   C3547     1.0  0.29014  0.95762  0.55345  1.0000
  C   C3548     1.0  0.29194  0.95025  0.54573  1.0000
  C   C3549     1.0  0.30112  0.94022  0.54589  1.0000
  C   C3550     1.0  0.30872  0.93786  0.55341  1.0000
  C   C3551     1.0  0.30681  0.94508  0.56121  1.0000
  H   H2825     1.0  0.28304  0.96532  0.55348  1.0000
  H   H2826     1.0  0.28618  0.95227  0.53976  1.0000
  H   H2827     1.0  0.31619  0.93053  0.55318  1.0000
  H   H2828     1.0  0.31271  0.94318  0.56700  1.0000
  S   S508      1.0  0.09812  0.74944  0.50720  1.0000
  C   C3552     1.0  0.02825  0.74270  0.49687  1.0000
  C   C3553     1.0  0.27154  0.97810  0.53432  1.0000
  H   H2829     1.0  0.48898  0.99225  0.69495  1.0000
  S   S509      1.0  0.47690  0.95515  0.69625  1.0000
  H   H2830     1.0  0.08883  0.85879  0.52678  1.0000
  S   S510      1.0  0.09934  0.83525  0.49196  1.0000
  H   H2831     1.0  0.14022  0.77222  0.50985  1.0000
  H   H2832     1.0  0.25534  0.89403  0.59727  1.0000
  H   H2833     1.0  0.09297  0.87405  0.50672  1.0000
  C   C3554     1.0  0.05066  0.81381  0.54747  1.0000
  C   C3555     1.0  0.27198  0.90087  0.61659  1.0000
  H   H2834     1.0  0.30287  0.86348  0.63335  1.0000
  H   H2835     1.0  0.27691  0.87230  0.49387  1.0000
  C   C3556     1.0  0.02541  0.74965  0.56987  1.0000
  C   C3557     1.0  0.48409  0.97791  0.70886  1.0000
  C   C3558     1.0  0.22763  0.86501  0.51873  1.0000
  C   C3559     1.0  0.21641  0.83316  0.50205  1.0000
  H   H2836     1.0  0.30784  0.95182  0.61149  1.0000
  C   C3560     1.0  0.00172  0.82092  0.49254  1.0000
  C   C3561     1.0  0.36992  0.92528  0.55892  1.0000
  C   C3562     1.0  0.36529  0.92059  0.55239  1.0000
  C   C3563     1.0  0.35482  0.91668  0.55728  1.0000
  C   C3564     1.0  0.34899  0.91718  0.56885  1.0000
  C   C3565     1.0  0.35348  0.92205  0.57537  1.0000
  C   C3566     1.0  0.36388  0.92619  0.57039  1.0000
  H   H2837     1.0  0.37012  0.91941  0.54373  1.0000
  H   H2838     1.0  0.35167  0.91264  0.55232  1.0000
  H   H2839     1.0  0.34903  0.92242  0.58436  1.0000
  H   H2840     1.0  0.36748  0.92963  0.57555  1.0000
  S   S511      1.0  0.03413  0.76234  0.51308  1.0000
  H   H2841     1.0  0.40590  0.88726  0.54102  1.0000
  H   H2842     1.0  0.31831  0.89841  0.58763  1.0000
  H   H2843     1.0  0.08404  0.86527  0.49252  1.0000
  H   H2844     1.0  0.49188  0.97971  0.62346  1.0000
  C   C3567     1.0  0.31455  0.89606  0.59692  1.0000
  H   H2845     1.0  0.47370  0.93178  0.62513  1.0000
  C   C3568     1.0  0.44726  0.99162  0.72002  1.0000
  C   C3569     1.0  0.30309  0.93666  0.61013  1.0000
  C   C3570     1.0  0.08790  0.88033  0.51211  1.0000
  C   C3571     1.0  0.42615  0.95769  0.57710  1.0000
  C   C3572     1.0  0.43469  0.95240  0.58387  1.0000
  Fe  Fe264     1.0  0.00373  0.87053  0.49658  1.0000
  H   H2846     1.0  0.28095  0.94891  0.51449  1.0000
  H   H2847     1.0  0.27507  0.86235  0.62039  1.0000
  C   C3573     1.0  0.42425  0.96980  0.57252  1.0000
  H   H2848     1.0  0.43630  0.94304  0.58735  1.0000
  H   H2849     1.0  0.24385  0.97766  0.50731  1.0000
  H   H2850     1.0  0.40354  0.94845  0.52520  1.0000
  H   H2851     1.0  0.41769  0.97401  0.56733  1.0000
  H   H2852     1.0  0.14292  0.89370  0.56584  1.0000
  H   H2853     1.0  0.48271  0.97111  0.66701  1.0000
  C   C3574     1.0  0.05408  0.84185  0.49489  1.0000
  H   H2854     1.0  0.12631  0.89751  0.58271  1.0000
  C   C3575     1.0  0.45110  0.96442  0.65016  1.0000
  C   C3576     1.0  0.11544  0.79012  0.49345  1.0000
  Fe  Fe265     1.0  0.48116  0.93548  0.70061  1.0000
  P   P115      1.0  0.34198  0.94990  0.50702  1.0000
  C   C3577     1.0  0.32873  0.95790  0.51506  1.0000
  C   C3578     1.0  0.33813  0.93733  0.50513  1.0000
  C   C3579     1.0  0.32985  0.93192  0.51394  1.0000
  C   C3580     1.0  0.32570  0.92323  0.51193  1.0000
  C   C3581     1.0  0.32953  0.92007  0.50103  1.0000
  C   C3582     1.0  0.16803  0.85861  0.49523  1.0000
  S   S512      1.0  0.00008  0.79871  0.54765  1.0000
  C   C3583     1.0  0.32669  0.95670  0.52725  1.0000
  C   C3584     1.0  0.31607  0.96254  0.53329  1.0000
  C   C3585     1.0  0.30701  0.96864  0.52748  1.0000
  C   C3586     1.0  0.30873  0.96929  0.51554  1.0000
  C   C3587     1.0  0.31968  0.96434  0.50928  1.0000
  C   C3588     1.0  0.35390  0.94510  0.51456  1.0000
  C   C3589     1.0  0.35520  0.95197  0.52148  1.0000
  C   C3590     1.0  0.36453  0.94824  0.52719  1.0000
  C   C3591     1.0  0.37303  0.93804  0.52542  1.0000
  C   C3592     1.0  0.37205  0.93143  0.51819  1.0000
  C   C3593     1.0  0.36251  0.93490  0.51280  1.0000
  Fe  Fe266     1.0  0.01711  0.76611  0.52615  1.0000
  H   H2855     1.0  0.32634  0.93460  0.52227  1.0000
  H   H2856     1.0  0.31921  0.91924  0.51873  1.0000
  H   H2857     1.0  0.32599  0.91369  0.49926  1.0000
  C   C3594     1.0  0.20464  0.98847  0.51962  1.0000
  S   S513      1.0  0.47554  0.96166  0.72769  1.0000
  H   H2858     1.0  0.33307  0.95110  0.53223  1.0000
  H   H2859     1.0  0.31474  0.96205  0.54257  1.0000
  H   H2860     1.0  0.29860  0.97282  0.53220  1.0000
  C   C3595     1.0  0.44924  0.96836  0.66048  1.0000
  H   H2861     1.0  0.38047  0.93535  0.52956  1.0000
  H   H2862     1.0  0.37870  0.92362  0.51677  1.0000
  H   H2863     1.0  0.36195  0.92973  0.50713  1.0000
  H   H2864     1.0  0.30138  0.88756  0.63024  1.0000
  H   H2865     1.0  0.27308  0.87998  0.60231  1.0000
  C   C3596     1.0  0.02679  0.78339  0.56393  1.0000
  C   C3597     1.0  0.03424  0.77655  0.57138  1.0000
  C   C3598     1.0  0.04628  0.77626  0.56792  1.0000
  C   C3599     1.0  0.05087  0.78280  0.55699  1.0000
  C   C3600     1.0  0.04345  0.78955  0.54938  1.0000
  C   C3601     1.0  0.03135  0.78991  0.55300  1.0000
  P   P116      1.0  0.04937  0.79799  0.53524  1.0000
  C   C3602     1.0  0.06366  0.78977  0.52908  1.0000
  H   H2866     1.0  0.47794  0.93045  0.64413  1.0000
  H   H2867     1.0  0.26712  0.88385  0.63650  1.0000
  H   H2868     1.0  0.33233  0.93859  0.61090  1.0000
  H   H2869     1.0  0.05221  0.76975  0.49248  1.0000
  P   P117      1.0  0.22338  0.86529  0.49724  1.0000
  C   C3603     1.0  0.21240  0.86810  0.53610  1.0000
  C   C3604     1.0  0.39730  0.90422  0.51608  1.0000
  C   C3605     1.0  0.08401  0.78892  0.51854  1.0000
  C   C3606     1.0  0.07280  0.79546  0.52262  1.0000
  H   H2870     1.0  0.45126  0.98671  0.68870  1.0000
  H   H2871     1.0  0.38217  0.95609  0.51091  1.0000
  S   S514      1.0  0.45566  0.94740  0.63771  1.0000
  C   C3607     1.0  0.48812  0.97684  0.72748  1.0000
  P   P118      1.0  0.06904  0.87050  0.51491  1.0000
  H   H2872     1.0  0.36544  0.95341  0.53269  1.0000
  C   C3608     1.0  0.07469  0.84695  0.51401  1.0000
  C   C3609     1.0  0.26669  0.98678  0.49485  1.0000
  H   H2873     1.0  0.02406  0.84691  0.50180  1.0000
  H   H2874     1.0  0.06021  0.78251  0.55444  1.0000
  H   H2875     1.0  0.23687  0.86300  0.51460  1.0000
  H   H2876     1.0  0.04651  0.78329  0.52115  1.0000
  C   C3610     1.0  0.33939  0.94316  0.60701  1.0000
  C   C3611     1.0  0.23634  0.84224  0.49742  1.0000
  C   C3612     1.0  0.17799  0.86236  0.49500  1.0000
  C   C3613     1.0  0.30317  0.86269  0.60502  1.0000
  C   C3614     1.0  0.30502  0.89067  0.60079  1.0000
  H   H2877     1.0  0.09109  0.79331  0.51368  1.0000
  H   H2878     1.0  0.07137  0.80492  0.52075  1.0000
  H   H2879     1.0  0.05025  0.80679  0.55522  1.0000
  C   C3615     1.0  0.13356  0.78858  0.49885  1.0000
  C   C3616     1.0  0.48589  0.89901  0.66689  1.0000
  C   C3617     1.0  0.41081  0.98278  0.62966  1.0000
  C   C3618     1.0  0.45514  0.94431  0.66099  1.0000
  C   C3619     1.0  0.14424  0.83308  0.49498  1.0000
  H   H2880     1.0  0.27666  0.98249  0.53692  1.0000
  C   C3620     1.0  0.15873  0.85876  0.50516  1.0000
  H   H2881     1.0  0.29323  0.88132  0.51109  1.0000
  H   H2882     1.0  0.06004  0.86978  0.54009  1.0000
  H   H2883     1.0  0.30134  0.96837  0.59077  1.0000
  C   C3621     1.0  0.32103  0.97804  0.59873  1.0000
  H   H2884     1.0  0.09494  0.77155  0.51807  1.0000
  H   H2885     1.0  0.27924  0.86247  0.66715  1.0000
  C   C3622     1.0  0.31342  0.92887  0.59282  1.0000
  H   H2886     1.0  0.26475  0.90247  0.50981  1.0000
  H   H2887     1.0  0.20038  0.86990  0.51353  1.0000
  H   H2888     1.0  0.30689  0.85124  0.49897  1.0000
  H   H2889     1.0  0.27915  0.86013  0.52802  1.0000
  H   H2890     1.0  0.20647  0.85087  0.50196  1.0000
  C   C3623     1.0  0.25420  0.87781  0.51671  1.0000
  S   S515      1.0  0.45213  0.95388  0.71624  1.0000
  P   P119      1.0  0.32608  0.95732  0.59062  1.0000
  C   C3624     1.0  0.05172  0.83406  0.53857  1.0000
  C   C3625     1.0  0.25938  0.96459  0.50189  1.0000
  C   C3626     1.0  0.33145  0.95998  0.57487  1.0000
  H   H2891     1.0  0.32492  0.97825  0.54958  1.0000
  H   H2892     1.0  0.23717  0.98702  0.57780  1.0000
  C   C3627     1.0  0.24934  0.93788  0.54262  1.0000
  C   C3628     1.0  0.26063  0.93708  0.53549  1.0000
  C   C3629     1.0  0.27003  0.93664  0.54017  1.0000
  C   C3630     1.0  0.26812  0.93713  0.55194  1.0000
  C   C3631     1.0  0.25678  0.93801  0.55915  1.0000
  C   C3632     1.0  0.24742  0.93836  0.55439  1.0000
  P   P120      1.0  0.25416  0.93894  0.57429  1.0000
  C   C3633     1.0  0.24315  0.93076  0.58290  1.0000
  C   C3634     1.0  0.26779  0.93195  0.57907  1.0000
  C   C3635     1.0  0.27112  0.91965  0.58221  1.0000
  C   C3636     1.0  0.28157  0.91415  0.58596  1.0000
  C   C3637     1.0  0.28881  0.92087  0.58663  1.0000
  C   C3638     1.0  0.28586  0.93307  0.58305  1.0000
  C   C3639     1.0  0.27557  0.93858  0.57897  1.0000
  C   C3640     1.0  0.23427  0.93506  0.59193  1.0000
  C   C3641     1.0  0.22573  0.92871  0.59846  1.0000
  C   C3642     1.0  0.22606  0.91799  0.59612  1.0000
  C   C3643     1.0  0.23488  0.91364  0.58719  1.0000
  C   C3644     1.0  0.24331  0.92005  0.58054  1.0000
  C   C3645     1.0  0.24866  0.95413  0.57571  1.0000
  C   C3646     1.0  0.24090  0.96181  0.56886  1.0000
  C   C3647     1.0  0.23691  0.97364  0.56949  1.0000
  C   C3648     1.0  0.24030  0.97783  0.57730  1.0000
  C   C3649     1.0  0.24747  0.97012  0.58467  1.0000
  C   C3650     1.0  0.25147  0.95828  0.58403  1.0000
  H   H2893     1.0  0.24208  0.93807  0.53902  1.0000
  H   H2894     1.0  0.26207  0.93671  0.52638  1.0000
  H   H2895     1.0  0.27882  0.93593  0.53470  1.0000
  H   H2896     1.0  0.27554  0.93675  0.55536  1.0000
  H   H2897     1.0  0.23865  0.93892  0.55984  1.0000
  H   H2898     1.0  0.26584  0.91419  0.58159  1.0000
  H   H2899     1.0  0.28414  0.90465  0.58814  1.0000
  H   H2900     1.0  0.29695  0.91658  0.58940  1.0000
  H   H2901     1.0  0.29170  0.93830  0.58313  1.0000
  H   H2902     1.0  0.27388  0.94798  0.57558  1.0000
  H   H2903     1.0  0.23374  0.94340  0.59380  1.0000
  H   H2904     1.0  0.21867  0.93225  0.60513  1.0000
  H   H2905     1.0  0.21925  0.91327  0.60093  1.0000
  H   H2906     1.0  0.23497  0.90548  0.58517  1.0000
  H   H2907     1.0  0.24987  0.91672  0.57343  1.0000
  H   H2908     1.0  0.23781  0.95867  0.56309  1.0000
  H   H2909     1.0  0.23109  0.97955  0.56397  1.0000
  S   S516      1.0  0.44707  0.98009  0.58442  1.0000
  H   H2910     1.0  0.24990  0.97336  0.59088  1.0000
  H   H2911     1.0  0.25670  0.95243  0.59008  1.0000
  S   S517      1.0  0.00356  0.75603  0.52851  1.0000
  C   C3651     1.0  0.05310  0.86904  0.53659  1.0000
  H   H2912     1.0  0.32093  0.99080  0.50649  1.0000
  H   H2913     1.0  0.27972  0.84416  0.61316  1.0000
  H   H2914     1.0  0.27660  0.90294  0.62189  1.0000
  H   H2915     1.0  0.30744  0.87899  0.49161  1.0000
  H   H2916     1.0  0.23084  0.86477  0.53540  1.0000
  C   C3652     1.0  0.48479  0.95022  0.65240  1.0000
  H   H2917     1.0  0.05207  0.77093  0.57368  1.0000
  C   C3653     1.0  0.14891  0.97987  0.53430  1.0000
  C   C3654     1.0  0.14421  0.97090  0.53371  1.0000
  C   C3655     1.0  0.15158  0.96007  0.53215  1.0000
  C   C3656     1.0  0.16366  0.95827  0.53102  1.0000
  C   C3657     1.0  0.16850  0.96741  0.53110  1.0000
  C   C3658     1.0  0.16102  0.97817  0.53299  1.0000
  P   P121      1.0  0.18390  0.96479  0.53072  1.0000
  C   C3659     1.0  0.19269  0.95403  0.52228  1.0000
  C   C3660     1.0  0.18973  0.97751  0.52313  1.0000
  Fe  Fe267     1.0  0.99949  0.75702  0.54738  1.0000
  H   H2918     1.0  0.40019  0.89043  0.50004  1.0000
  Fe  Fe268     1.0  0.00086  0.78256  0.54166  1.0000
  H   H2919     1.0  0.23722  0.94765  0.50070  1.0000
  C   C3661     1.0  0.19899  0.97954  0.52647  1.0000
  C   C3662     1.0  0.20376  0.94766  0.52440  1.0000
  C   C3663     1.0  0.21085  0.93975  0.51746  1.0000
  C   C3664     1.0  0.20708  0.93832  0.50822  1.0000
  C   C3665     1.0  0.19627  0.94498  0.50580  1.0000
  C   C3666     1.0  0.18916  0.95291  0.51269  1.0000
  C   C3667     1.0  0.18489  0.96066  0.54585  1.0000
  C   C3668     1.0  0.18773  0.94879  0.55134  1.0000
  C   C3669     1.0  0.18742  0.94556  0.56334  1.0000
  C   C3670     1.0  0.18442  0.95415  0.56992  1.0000
  C   C3671     1.0  0.18160  0.96601  0.56450  1.0000
  C   C3672     1.0  0.18171  0.96927  0.55252  1.0000
  C   C3673     1.0  0.25553  0.94777  0.49781  1.0000
  C   C3674     1.0  0.48510  0.93024  0.63644  1.0000
  H   H2920     1.0  0.14791  0.95312  0.53171  1.0000
  H   H2921     1.0  0.16918  0.94976  0.53005  1.0000
  H   H2922     1.0  0.16448  0.98519  0.53360  1.0000
  S   S518      1.0  0.36287  0.97950  0.57126  1.0000
  Fe  Fe269     1.0  0.48406  0.96199  0.60110  1.0000
  S   S519      1.0  0.45288  0.97797  0.61543  1.0000
  C   C3675     1.0  0.07503  0.89718  0.52530  1.0000
  H   H2923     1.0  0.20205  0.97410  0.53421  1.0000
  H   H2924     1.0  0.20700  0.94892  0.53129  1.0000
  H   H2925     1.0  0.21935  0.93486  0.51920  1.0000
  C   C3676     1.0  0.33797  0.92521  0.49234  1.0000
  H   H2926     1.0  0.21178  0.99001  0.52224  1.0000
  H   H2927     1.0  0.18099  0.95826  0.51042  1.0000
  H   H2928     1.0  0.19010  0.94201  0.54643  1.0000
  H   H2929     1.0  0.18978  0.93637  0.56747  1.0000
  H   H2930     1.0  0.18458  0.95162  0.57915  1.0000
  H   H2931     1.0  0.17942  0.97269  0.56957  1.0000
  H   H2932     1.0  0.17932  0.97851  0.54850  1.0000
  H   H2933     1.0  0.44517  0.96973  0.73205  1.0000
  C   C3677     1.0  0.30508  0.92836  0.60343  1.0000
  C   C3678     1.0  0.48609  0.96300  0.66387  1.0000
  H   H2934     1.0  0.43007  0.98799  0.72338  1.0000
  H   H2935     1.0  0.28839  0.98650  0.59641  1.0000
  C   C3679     1.0  0.43080  0.97651  0.57475  1.0000
  H   H2936     1.0  0.46693  0.99224  0.69368  1.0000
  C   C3680     1.0  0.30501  0.88975  0.62092  1.0000
  H   H2937     1.0  0.25007  0.96279  0.54563  1.0000
  C   C3681     1.0  0.03024  0.81037  0.52515  1.0000
  C   C3682     1.0  0.06750  0.87598  0.49993  1.0000
  C   C3683     1.0  0.29426  0.86645  0.63864  1.0000
  H   H2938     1.0  0.05220  0.84258  0.53928  1.0000
  H   H2939     1.0  0.19466  0.87103  0.53428  1.0000
  H   H2940     1.0  0.23423  0.88270  0.50008  1.0000
  H   H2941     1.0  0.36500  0.87931  0.54826  1.0000
  H   H2942     1.0  0.02499  0.86525  0.54571  1.0000
  H   H2943     1.0  0.34919  0.91479  0.52157  1.0000
  H   H2944     1.0  0.37661  0.97153  0.52237  1.0000
  Fe  Fe270     1.0  0.47020  0.98280  0.61217  1.0000
  H   H2945     1.0  0.42126  0.89870  0.53351  1.0000
  H   H2946     1.0  0.45028  0.97066  0.64200  1.0000
  H   H2947     1.0  0.41621  0.88195  0.51075  1.0000
  C   C3684     1.0  0.32504  0.96879  0.56737  1.0000
  C   C3685     1.0  0.03164  0.79285  0.51382  1.0000
  H   H2948     1.0  0.33924  0.99171  0.52399  1.0000
  H   H2949     1.0  0.34909  0.96026  0.52238  1.0000
  C   C3686     1.0  0.05493  0.86934  0.52460  1.0000
  C   C3687     1.0  0.20717  0.86873  0.51812  1.0000
  H   H2950     1.0  0.31656  0.94586  0.49500  1.0000
  C   C3688     1.0  0.28096  0.86581  0.65773  1.0000
  C   C3689     1.0  0.05806  0.88533  0.49729  1.0000
  H   H2951     1.0  0.39347  0.87212  0.49554  1.0000
  C   C3690     1.0  0.29156  0.89837  0.49940  1.0000
  C   C3691     1.0  0.40701  0.96336  0.51138  1.0000
  C   C3692     1.0  0.30156  0.89232  0.51552  1.0000
  H   H2952     1.0  0.37602  0.99199  0.51231  1.0000
  C   C3693     1.0  0.08932  0.83200  0.52318  1.0000
  C   C3694     1.0  0.21906  0.86680  0.51233  1.0000
  H   H2953     1.0  0.30251  0.92048  0.50133  1.0000
  C   C3695     1.0  0.27205  0.87367  0.65251  1.0000
  H   H2954     1.0  0.40619  0.91725  0.50377  1.0000
  C   C3696     1.0  0.36500  0.90323  0.52622  1.0000
  C   C3697     1.0  0.14441  0.96563  0.50679  1.0000
  H   H2955     1.0  0.02919  0.81707  0.52986  1.0000
  H   H2956     1.0  0.15206  0.86301  0.52221  1.0000
  H   H2957     1.0  0.16422  0.95025  0.56199  1.0000
  C   C3698     1.0  0.29733  0.84566  0.60392  1.0000
  C   C3699     1.0  0.44279  0.94132  0.61679  1.0000
  C   C3700     1.0  0.26145  0.85413  0.56392  1.0000
  C   C3701     1.0  0.26429  0.84210  0.56429  1.0000
  C   C3702     1.0  0.27532  0.83687  0.55832  1.0000
  C   C3703     1.0  0.28349  0.84369  0.55196  1.0000
  C   C3704     1.0  0.28066  0.85582  0.55150  1.0000
  C   C3705     1.0  0.26960  0.86097  0.55759  1.0000
  P   P122      1.0  0.29142  0.86442  0.54334  1.0000
  C   C3706     1.0  0.30311  0.86096  0.55113  1.0000
  C   C3707     1.0  0.29651  0.86059  0.52907  1.0000
  C   C3708     1.0  0.30844  0.85884  0.52326  1.0000
  C   C3709     1.0  0.31210  0.85563  0.51240  1.0000
  C   C3710     1.0  0.28839  0.85893  0.52377  1.0000
  C   C3711     1.0  0.31290  0.86608  0.54635  1.0000
  C   C3712     1.0  0.32179  0.86350  0.55246  1.0000
  C   C3713     1.0  0.32091  0.85596  0.56350  1.0000
  C   C3714     1.0  0.31114  0.85097  0.56844  1.0000
  C   C3715     1.0  0.30225  0.85348  0.56233  1.0000
  C   C3716     1.0  0.28445  0.87994  0.54126  1.0000
  C   C3717     1.0  0.28857  0.88765  0.54498  1.0000
  C   C3718     1.0  0.28345  0.89968  0.54299  1.0000
  C   C3719     1.0  0.27368  0.90401  0.53799  1.0000
  C   C3720     1.0  0.26916  0.89638  0.53476  1.0000
  C   C3721     1.0  0.27465  0.88443  0.53612  1.0000
  H   H2958     1.0  0.25293  0.85820  0.56863  1.0000
  H   H2959     1.0  0.25794  0.83684  0.56926  1.0000
  H   H2960     1.0  0.27755  0.82752  0.55866  1.0000
  H   H2961     1.0  0.29205  0.83953  0.54743  1.0000
  H   H2962     1.0  0.26723  0.87024  0.55754  1.0000
  H   H2963     1.0  0.31508  0.85980  0.52695  1.0000
  H   H2964     1.0  0.32130  0.85447  0.50791  1.0000
  H   H2965     1.0  0.31358  0.87234  0.53804  1.0000
  H   H2966     1.0  0.32926  0.86755  0.54873  1.0000
  H   H2967     1.0  0.32767  0.85423  0.56833  1.0000
  H   H2968     1.0  0.31031  0.84537  0.57712  1.0000
  H   H2969     1.0  0.29462  0.84980  0.56655  1.0000
  H   H2970     1.0  0.29547  0.88441  0.54975  1.0000
  H   H2971     1.0  0.28680  0.90560  0.54573  1.0000
  H   H2972     1.0  0.26941  0.91323  0.53685  1.0000
  H   H2973     1.0  0.26128  0.89983  0.53135  1.0000
  H   H2974     1.0  0.27100  0.87869  0.53351  1.0000
  C   C3722     1.0  0.27206  0.88815  0.50073  1.0000
  C   C3723     1.0  0.29516  0.88989  0.50894  1.0000
  C   C3724     1.0  0.15172  0.95514  0.50405  1.0000
  C   C3725     1.0  0.06586  0.77748  0.53105  1.0000
  H   H2975     1.0  0.44762  0.95491  0.59148  1.0000
  C   C3726     1.0  0.25660  0.96700  0.53928  1.0000
  H   H2976     1.0  0.02200  0.76117  0.49635  1.0000
  C   C3727     1.0  0.20388  0.86930  0.52995  1.0000
  H   H2977     1.0  0.21259  0.93219  0.50285  1.0000
  C   C3728     1.0  0.03990  0.79140  0.52035  1.0000
  H   H2978     1.0  0.00305  0.77411  0.50449  1.0000
  C   C3729     1.0  0.47541  0.91358  0.67849  1.0000
  C   C3730     1.0  0.49353  0.98632  0.72247  1.0000
  H   H2979     1.0  0.14536  0.99232  0.58050  1.0000
  H   H2980     1.0  0.43557  0.87135  0.50110  1.0000
  H   H2981     1.0  0.38283  0.94380  0.65562  1.0000
  H   H2982     1.0  0.48028  0.94869  0.64668  1.0000
  C   C3731     1.0  0.18626  0.98444  0.51282  1.0000
  S   S520      1.0  0.12475  0.75747  0.51405  1.0000
  C   C3732     1.0  0.16947  0.86607  0.51453  1.0000
  H   H2983     1.0  0.30890  0.90524  0.51814  1.0000
  C   C3733     1.0  0.00961  0.82609  0.49461  1.0000
  H   H2984     1.0  0.17933  0.98280  0.50996  1.0000
  C   C3734     1.0  0.42965  0.93308  0.61149  1.0000
  C   C3735     1.0  0.42042  0.94256  0.61408  1.0000
  C   C3736     1.0  0.42240  0.95170  0.61769  1.0000
  P   P123      1.0  0.41019  0.96313  0.62236  1.0000
  S   S521      1.0  0.00507  0.78362  0.52233  1.0000
  C   C3737     1.0  0.23957  0.87914  0.49257  1.0000
  C   C3738     1.0  0.40310  0.96600  0.60163  1.0000
  C   C3739     1.0  0.39498  0.96945  0.59449  1.0000
  C   C3740     1.0  0.37746  0.98560  0.50711  1.0000
  H   H2985     1.0  0.05135  0.88882  0.50424  1.0000
  C   C3741     1.0  0.46830  0.99106  0.64002  1.0000
  C   C3742     1.0  0.31444  0.89534  0.61700  1.0000
  C   C3743     1.0  0.28749  0.95269  0.50756  1.0000
  C   C3744     1.0  0.02198  0.81171  0.51865  1.0000
  Fe  Fe271     1.0  0.46287  0.95965  0.62135  1.0000
  H   H2986     1.0  0.40475  0.97991  0.63768  1.0000
  C   C3745     1.0  0.40466  0.95699  0.63758  1.0000
  H   H2987     1.0  0.42813  0.92626  0.60836  1.0000
  H   H2988     1.0  0.41176  0.94274  0.61322  1.0000
  H   H2989     1.0  0.41217  0.96231  0.59799  1.0000
  H   H2990     1.0  0.39783  0.96817  0.58555  1.0000
  H   H2991     1.0  0.20652  0.88801  0.49776  1.0000
  C   C3746     1.0  0.49368  0.99203  0.71078  1.0000
  C   C3747     1.0  0.35388  0.98986  0.55140  1.0000
  S   S522      1.0  0.40421  0.97297  0.52085  1.0000
  C   C3748     1.0  0.25579  0.90631  0.60687  1.0000
  C   C3749     1.0  0.99852  0.77937  0.49768  1.0000
  H   H2992     1.0  0.24797  0.91250  0.60462  1.0000
  H   H2993     1.0  0.22993  0.96669  0.50673  1.0000
  H   H2994     1.0  0.27279  0.95017  0.49570  1.0000
  C   C3750     1.0  0.18410  0.91012  0.57857  1.0000
  C   C3751     1.0  0.18334  0.91644  0.58683  1.0000
  C   C3752     1.0  0.17426  0.92637  0.58814  1.0000
  C   C3753     1.0  0.16615  0.93018  0.58093  1.0000
  C   C3754     1.0  0.16733  0.92429  0.57209  1.0000
  C   C3755     1.0  0.17605  0.91394  0.57133  1.0000
  P   P124      1.0  0.15698  0.92900  0.56267  1.0000
  C   C3756     1.0  0.14713  0.91915  0.56884  1.0000
  C   C3757     1.0  0.14914  0.94415  0.56218  1.0000
  C   C3758     1.0  0.13723  0.94768  0.56161  1.0000
  C   C3759     1.0  0.13113  0.95932  0.56166  1.0000
  C   C3760     1.0  0.13690  0.96757  0.56208  1.0000
  C   C3761     1.0  0.14885  0.96423  0.56219  1.0000
  C   C3762     1.0  0.15496  0.95262  0.56208  1.0000
  C   C3763     1.0  0.13794  0.92106  0.57860  1.0000
  C   C3764     1.0  0.13042  0.91331  0.58354  1.0000
  C   C3765     1.0  0.13214  0.90351  0.57889  1.0000
  C   C3766     1.0  0.14148  0.90137  0.56938  1.0000
  C   C3767     1.0  0.14902  0.90909  0.56443  1.0000
  C   C3768     1.0  0.16410  0.92783  0.54770  1.0000
  C   C3769     1.0  0.15734  0.92797  0.54000  1.0000
  C   C3770     1.0  0.16274  0.92651  0.52857  1.0000
  C   C3771     1.0  0.17489  0.92525  0.52460  1.0000
  C   C3772     1.0  0.18165  0.92537  0.53210  1.0000
  C   C3773     1.0  0.17630  0.92660  0.54362  1.0000
  H   H2995     1.0  0.19095  0.90225  0.57771  1.0000
  H   H2996     1.0  0.18980  0.91363  0.59221  1.0000
  H   H2997     1.0  0.17358  0.93117  0.59467  1.0000
  H   H2998     1.0  0.15906  0.93774  0.58228  1.0000
  H   H2999     1.0  0.17673  0.90883  0.56506  1.0000
  H   H3000     1.0  0.13266  0.94148  0.56108  1.0000
  H   H3001     1.0  0.12195  0.96202  0.56122  1.0000
  H   H3002     1.0  0.13223  0.97663  0.56193  1.0000
  C   C3774     1.0  0.26999  0.88787  0.60573  1.0000
  H   H3003     1.0  0.24618  0.82438  0.49783  1.0000
  H   H3004     1.0  0.14315  0.98812  0.53587  1.0000
  H   H3005     1.0  0.04088  0.86756  0.55340  1.0000
  H   H3006     1.0  0.30014  0.92156  0.60645  1.0000
  S   S523      1.0  0.46341  0.93373  0.70017  1.0000
  H   H3007     1.0  0.02535  0.79512  0.54741  1.0000
  H   H3008     1.0  0.04737  0.86718  0.51139  1.0000
  C   C3775     1.0  0.30398  0.85387  0.50732  1.0000
  H   H3009     1.0  0.24721  0.87399  0.52282  1.0000
  H   H3010     1.0  0.07797  0.82848  0.51448  1.0000
  C   C3776     1.0  0.38329  0.97465  0.59880  1.0000
  H   H3011     1.0  0.38969  0.95272  0.63479  1.0000
  S   S524      1.0  0.46801  0.95510  0.60361  1.0000
  C   C3777     1.0  0.25991  0.89589  0.60279  1.0000
  H   H3012     1.0  0.10265  0.88785  0.50978  1.0000
  C   C3778     1.0  0.45888  0.99137  0.70021  1.0000
  H   H3013     1.0  0.25884  0.91710  0.61652  1.0000
  H   H3014     1.0  0.15063  0.85664  0.50531  1.0000
  C   C3779     1.0  0.37975  0.97650  0.61025  1.0000
  C   C3780     1.0  0.29748  0.98408  0.59719  1.0000
  H   H3015     1.0  0.31431  0.84960  0.59551  1.0000
  C   C3781     1.0  0.24723  0.96931  0.50465  1.0000
  C   C3782     1.0  0.03336  0.86631  0.53987  1.0000
  C   C3783     1.0  0.30762  0.95096  0.49665  1.0000
  C   C3784     1.0  0.40594  0.95171  0.51584  1.0000
  H   H3016     1.0  0.38312  0.88276  0.51106  1.0000
  H   H3017     1.0  0.48002  0.90505  0.70224  1.0000
  H   H3018     1.0  0.06787  0.84926  0.50914  1.0000
  H   H3019     1.0  0.30170  0.97400  0.51104  1.0000
  H   H3020     1.0  0.37074  0.98076  0.61349  1.0000
  C   C3785     1.0  0.03937  0.80023  0.52594  1.0000
  C   C3786     1.0  0.08653  0.85237  0.52375  1.0000
  C   C3787     1.0  0.30406  0.90337  0.51292  1.0000
  H   H3021     1.0  0.01743  0.78366  0.56652  1.0000
  P   P125      1.0  0.28845  0.87964  0.61761  1.0000
  H   H3022     1.0  0.42141  0.91372  0.51491  1.0000
  C   C3788     1.0  0.48264  0.93095  0.62568  1.0000
  C   C3789     1.0  0.30944  0.94546  0.60620  1.0000
  H   H3023     1.0  0.28587  0.85408  0.50907  1.0000
  H   H3024     1.0  0.31664  0.97408  0.57082  1.0000
  C   C3790     1.0  0.28629  0.84931  0.61091  1.0000
  S   S525      1.0  0.02177  0.87230  0.49641  1.0000
  H   H3025     1.0  0.26119  0.86351  0.50776  1.0000
  C   C3791     1.0  0.12507  0.87548  0.49842  1.0000
  C   C3792     1.0  0.31984  0.93761  0.58889  1.0000
  H   H3026     1.0  0.07003  0.90384  0.53025  1.0000
  H   H3027     1.0  0.34767  0.96541  0.58486  1.0000
  C   C3793     1.0  0.48324  0.97273  0.72076  1.0000
  C   C3794     1.0  0.29205  0.86218  0.65080  1.0000
  C   C3795     1.0  0.22428  0.86585  0.53052  1.0000
  C   C3796     1.0  0.27098  0.87707  0.50031  1.0000
  C   C3797     1.0  0.23932  0.96307  0.50446  1.0000
  H   H3028     1.0  0.29658  0.93633  0.61832  1.0000
  C   C3798     1.0  0.43363  0.95091  0.61922  1.0000
  C   C3799     1.0  0.13331  0.77714  0.50525  1.0000
  C   C3800     1.0  0.03526  0.86621  0.52802  1.0000
  C   C3801     1.0  0.30577  0.85234  0.60100  1.0000
  C   C3802     1.0  0.12427  0.77196  0.50571  1.0000
  C   C3803     1.0  0.27423  0.87796  0.64035  1.0000
  S   S526      1.0  0.01411  0.76573  0.54529  1.0000
  C   C3804     1.0  0.29907  0.94619  0.50551  1.0000
  S   S527      1.0  0.30251  0.98869  0.54369  1.0000
  C   C3805     1.0  0.39451  0.95247  0.64112  1.0000
  H   H3029     1.0  0.09939  0.83816  0.53122  1.0000
  C   C3806     1.0  0.26414  0.89391  0.50930  1.0000
  H   H3030     1.0  0.34414  0.96655  0.54119  1.0000
  C   C3807     1.0  0.30190  0.99144  0.60096  1.0000
  H   H3031     1.0  0.30991  0.86761  0.60265  1.0000
  H   H3032     1.0  0.34726  0.94627  0.57556  1.0000
  C   C3808     1.0  0.40860  0.88588  0.49573  1.0000
  H   H3033     1.0  0.29933  0.83770  0.60072  1.0000
  C   C3809     1.0  0.07599  0.88059  0.51738  1.0000
  Fe  Fe272     1.0  0.47073  0.95369  0.71569  1.0000
  H   H3034     1.0  0.12275  0.85879  0.50972  1.0000
  Fe  Fe273     1.0  0.45876  0.95342  0.69710  1.0000
  H   H3035     1.0  0.27959  0.98257  0.51605  1.0000
  S   S528      1.0  0.47635  0.93419  0.71995  1.0000
  C   C3810     1.0  0.26209  0.87194  0.50827  1.0000
  H   H3036     1.0  0.24411  0.84556  0.49591  1.0000
  C   C3811     1.0  0.04280  0.83950  0.49863  1.0000
  C   C3812     1.0  0.22759  0.82568  0.50088  1.0000
  C   C3813     1.0  0.34051  0.96451  0.55052  1.0000
  C   C3814     1.0  0.22517  0.84983  0.49834  1.0000
  H   H3037     1.0  0.45139  0.94070  0.61812  1.0000
  H   H3038     1.0  0.09389  0.82289  0.52527  1.0000
  C   C3815     1.0  0.26191  0.90888  0.61362  1.0000
  C   C3816     1.0  0.32964  0.97110  0.55526  1.0000
  C   C3817     1.0  0.29201  0.86655  0.61187  1.0000
  C   C3818     1.0  0.47799  0.90168  0.73141  1.0000
  H   H3039     1.0  0.44803  0.92517  0.61078  1.0000
  C   C3819     1.0  0.34222  0.95318  0.56998  1.0000
  C   C3820     1.0  0.28366  0.85966  0.61494  1.0000
  H   H3040     1.0  0.05896  0.77286  0.53588  1.0000
  C   C3821     1.0  0.25825  0.96697  0.52750  1.0000
  P   P126      1.0  0.26934  0.97210  0.50376  1.0000
  H   H3041     1.0  0.25306  0.96242  0.52524  1.0000
  H   H3042     1.0  0.35519  0.95028  0.55427  1.0000
  H   H3043     1.0  0.16088  0.95476  0.49985  1.0000
  C   C3822     1.0  0.09243  0.84061  0.52648  1.0000
  C   C3823     1.0  0.37457  0.89405  0.52342  1.0000
  C   C3824     1.0  0.14720  0.94514  0.50656  1.0000
  H   H3044     1.0  0.20974  0.86902  0.54516  1.0000
  H   H3045     1.0  0.45475  0.94197  0.67929  1.0000
  C   C3825     1.0  0.26650  0.97263  0.51897  1.0000
  C   C3826     1.0  0.34675  0.95544  0.55787  1.0000
  C   C3827     1.0  0.04603  0.86759  0.52045  1.0000
  H   H3046     1.0  0.11282  0.85398  0.49696  1.0000
  H   H3047     1.0  0.01599  0.80372  0.50840  1.0000
  C   C3828     1.0  0.07770  0.85565  0.51735  1.0000
  H   H3048     1.0  0.14068  0.79239  0.49855  1.0000
  H   H3049     1.0  0.37879  0.89939  0.57032  1.0000
  H   H3050     1.0  0.05405  0.75043  0.54555  1.0000
  H   H3051     1.0  0.35122  0.90661  0.50439  1.0000
  H   H3052     1.0  0.26341  0.87638  0.65788  1.0000
  H   H3053     1.0  0.36815  0.89087  0.49907  1.0000
  H   H3054     1.0  0.41073  0.97648  0.49569  1.0000
  C   C3829     1.0  0.39956  0.96742  0.61327  1.0000
  H   H3055     1.0  0.44694  0.97766  0.66027  1.0000
  H   H3056     1.0  0.39068  0.90609  0.51108  1.0000
  C   C3830     1.0  0.35784  0.90335  0.50953  1.0000
  C   C3831     1.0  0.41467  0.90008  0.52855  1.0000
  C   C3832     1.0  0.06187  0.79126  0.49725  1.0000
  C   C3833     1.0  0.38274  0.86584  0.53229  1.0000
  C   C3834     1.0  0.08699  0.89658  0.52038  1.0000
  H   H3057     1.0  0.48044  0.97468  0.70359  1.0000
  H   H3058     1.0  0.10169  0.97143  0.51285  1.0000
  C   C3835     1.0  0.12129  0.86490  0.50163  1.0000
  C   C3836     1.0  0.36743  0.89439  0.50655  1.0000
  C   C3837     1.0  0.37783  0.97392  0.51293  1.0000
  H   H3059     1.0  0.37349  0.86987  0.53268  1.0000
  H   H3060     1.0  0.40882  0.87155  0.53147  1.0000
  C   C3838     1.0  0.39064  0.87246  0.53196  1.0000
  H   H3061     1.0  0.19341  0.94413  0.49850  1.0000
  H   H3062     1.0  0.06017  0.89010  0.52731  1.0000
  C   C3839     1.0  0.40252  0.86686  0.53153  1.0000
  C   C3840     1.0  0.48277  0.90302  0.71043  1.0000
  C   C3841     1.0  0.38669  0.85396  0.53193  1.0000
  C   C3842     1.0  0.37804  0.88861  0.54753  1.0000
  H   H3063     1.0  0.48969  0.93171  0.60719  1.0000
  C   C3843     1.0  0.34682  0.95886  0.49277  1.0000
  H   H3064     1.0  0.13485  0.97230  0.53457  1.0000
  H   H3065     1.0  0.41562  0.85068  0.53085  1.0000
  H   H3066     1.0  0.38050  0.84898  0.53215  1.0000
  C   C3844     1.0  0.40645  0.85495  0.53118  1.0000
  C   C3845     1.0  0.10630  0.98794  0.50375  1.0000
  H   H3067     1.0  0.42550  0.97587  0.60326  1.0000
  C   C3846     1.0  0.39854  0.84850  0.53136  1.0000
  H   H3068     1.0  0.47133  0.90260  0.73939  1.0000
  H   H3069     1.0  0.40158  0.83927  0.53114  1.0000
  H   H3070     1.0  0.35514  0.87993  0.56879  1.0000
  H   H3071     1.0  0.06536  0.77244  0.50338  1.0000
  C   C3847     1.0  0.39067  0.94727  0.65291  1.0000
  C   C3848     1.0  0.38085  0.96522  0.50652  1.0000
  H   H3072     1.0  0.05758  0.75047  0.50392  1.0000
  C   C3849     1.0  0.38168  0.89446  0.55388  1.0000
  H   H3073     1.0  0.46476  0.98448  0.63863  1.0000
  C   C3850     1.0  0.41762  0.88099  0.50185  1.0000
  H   H3074     1.0  0.39416  0.94222  0.67027  1.0000
  H   H3075     1.0  0.38839  0.89943  0.54981  1.0000
  H   H3076     1.0  0.07880  0.76149  0.52876  1.0000
  C   C3851     1.0  0.37613  0.89458  0.56561  1.0000
  C   C3852     1.0  0.04629  0.75623  0.51943  1.0000
  H   H3077     1.0  0.40691  0.93533  0.51173  1.0000
  C   C3853     1.0  0.36663  0.88927  0.57101  1.0000
  C   C3854     1.0  0.39707  0.94634  0.66116  1.0000
  S   S529      1.0  0.47973  0.96466  0.61949  1.0000
  S   S530      1.0  0.15034  0.97812  0.50275  1.0000
  H   H3078     1.0  0.36199  0.88989  0.57992  1.0000
  H   H3079     1.0  0.00640  0.83226  0.50035  1.0000
  C   C3855     1.0  0.12462  0.79518  0.49304  1.0000
  C   C3856     1.0  0.24344  0.95232  0.50103  1.0000
  C   C3857     1.0  0.23443  0.91757  0.49354  1.0000
  C   C3858     1.0  0.30485  0.97380  0.59401  1.0000
  C   C3859     1.0  0.41496  0.97633  0.62078  1.0000
  C   C3860     1.0  0.49108  0.91795  0.66160  1.0000
  C   C3861     1.0  0.26349  0.95387  0.49824  1.0000
  C   C3862     1.0  0.42239  0.98059  0.61030  1.0000
  H   H3080     1.0  0.24426  0.92694  0.49847  1.0000
  H   H3081     1.0  0.09130  0.90269  0.52158  1.0000
  C   C3863     1.0  0.17872  0.86603  0.50462  1.0000
  H   H3082     1.0  0.04184  0.83051  0.50168  1.0000
  Fe  Fe274     1.0  0.45908  0.97381  0.59742  1.0000
  C   C3864     1.0  0.40782  0.94428  0.50818  1.0000
  C   C3865     1.0  0.40995  0.96751  0.49919  1.0000
  S   S531      1.0  0.16035  0.89145  0.49295  1.0000
  C   C3866     1.0  0.47718  0.90243  0.67637  1.0000
  H   H3083     1.0  0.15292  0.93724  0.50428  1.0000
  H   H3084     1.0  0.47322  0.96706  0.65352  1.0000
  H   H3085     1.0  0.06753  0.79248  0.50205  1.0000
  H   H3086     1.0  0.42925  0.98587  0.57119  1.0000
  H   H3087     1.0  0.14320  0.82545  0.50201  1.0000
  C   C3867     1.0  0.49001  0.89871  0.73150  1.0000
  H   H3088     1.0  0.43277  0.98468  0.70348  1.0000
  C   C3868     1.0  0.03396  0.86039  0.49507  1.0000
  H   H3089     1.0  0.02617  0.75854  0.56547  1.0000
  H   H3090     1.0  0.41941  0.95860  0.64321  1.0000
  H   H3091     1.0  0.18659  0.83940  0.49203  1.0000
  C   C3869     1.0  0.23754  0.83021  0.49859  1.0000
  C   C3870     1.0  0.33989  0.98937  0.57005  1.0000
  C   C3871     1.0  0.38788  0.97300  0.61744  1.0000
  S   S532      1.0  0.44855  0.92230  0.73391  1.0000
  H   H3092     1.0  0.15901  0.83555  0.49960  1.0000
  C   C3872     1.0  0.21520  0.84519  0.50084  1.0000
  H   H3093     1.0  0.33805  0.98702  0.57951  1.0000
  C   C3873     1.0  0.10047  0.97578  0.49473  1.0000
  H   H3094     1.0  0.49517  0.97269  0.57135  1.0000
  C   C3874     1.0  0.49455  0.94194  0.65587  1.0000
  S   S533      1.0  0.13584  0.91197  0.49321  1.0000
  C   C3875     1.0  0.37901  0.86753  0.49252  1.0000
  C   C3876     1.0  0.34250  0.93353  0.49451  1.0000
  C   C3877     1.0  0.43957  0.98722  0.70571  1.0000
  C   C3878     1.0  0.38326  0.96817  0.49432  1.0000
  C   C3879     1.0  0.49163  0.93080  0.61560  1.0000
  H   H3095     1.0  0.22853  0.81635  0.50188  1.0000
  H   H3096     1.0  0.38509  0.97473  0.62618  1.0000
  H   H3097     1.0  0.37783  0.86119  0.50078  1.0000
  H   H3098     1.0  0.46515  0.90630  0.72085  1.0000
  C   C3880     1.0  0.05478  0.75042  0.53649  1.0000
  C   C3881     1.0  0.34328  0.99018  0.50597  1.0000
  H   H3099     1.0  0.24111  0.98963  0.53439  1.0000
  C   C3882     1.0  0.45000  0.98829  0.69738  1.0000
  C   C3883     1.0  0.06636  0.74495  0.51826  1.0000
  C   C3884     1.0  0.48892  0.98784  0.70399  1.0000
  H   H3100     1.0  0.36283  0.98787  0.54642  1.0000
  H   H3101     1.0  0.20868  0.82964  0.50404  1.0000
  H   H3102     1.0  0.01387  0.75455  0.58562  1.0000
  H   H3103     1.0  0.48846  0.99044  0.55678  1.0000
  C   C3885     1.0  0.41162  0.96014  0.49149  1.0000
  H   H3104     1.0  0.41252  0.94954  0.66394  1.0000
  H   H3105     1.0  0.43490  0.98805  0.64031  1.0000
  C   C3886     1.0  0.29319  0.96901  0.49233  1.0000
  H   H3106     1.0  0.48014  0.91932  0.74049  1.0000
  C   C3887     1.0  0.02812  0.75452  0.49193  1.0000
  C   C3888     1.0  0.05329  0.77844  0.49185  1.0000
  H   H3107     1.0  0.02766  0.82677  0.49164  1.0000
  C   C3889     1.0  0.20541  0.88436  0.49108  1.0000
  H   H3108     1.0  0.08945  0.77212  0.49097  1.0000
  S   S534      1.0  0.33527  0.87098  0.49099  1.0000
  C   C3890     1.0  0.49567  0.95472  0.66757  1.0000
  C   C3891     1.0  0.04523  0.86269  0.49102  1.0000
  H   H3109     1.0  0.48972  0.98527  0.77067  1.0000
  C   C3892     1.0  0.46010  0.98131  0.82677  1.0000
  C   C3893     1.0  0.47271  0.76528  0.94966  1.0000
  C   C3894     1.0  0.43997  0.75699  0.93897  1.0000
  C   C3895     1.0  0.47812  0.93749  0.84201  1.0000
  P   P127      1.0  0.47063  0.98782  0.82912  1.0000
  C   C3896     1.0  0.46827  0.87404  0.90629  1.0000
  S   S535      1.0  0.47144  0.74919  0.90058  1.0000
  C   C3897     1.0  0.48470  0.85185  0.87375  1.0000
  C   C3898     1.0  0.47747  0.89380  0.90262  1.0000
  Fe  Fe275     1.0  0.47750  0.82670  0.92396  1.0000
  S   S536      1.0  0.47587  0.81904  0.94327  1.0000
  S   S537      1.0  0.48437  0.84275  0.91352  1.0000
  Fe  Fe276     1.0  0.46916  0.80703  0.91982  1.0000
  S   S538      1.0  0.46634  0.79794  0.93872  1.0000
  S   S539      1.0  0.46632  0.80129  0.90496  1.0000
  Fe  Fe277     1.0  0.45889  0.81598  0.94238  1.0000
  S   S540      1.0  0.44191  0.82059  0.95513  1.0000
  Fe  Fe278     1.0  0.48354  0.80163  0.93803  1.0000
  H   H3110     1.0  0.46398  0.98056  0.74865  1.0000
  S   S541      1.0  0.45991  0.82489  0.92341  1.0000
  S   S542      1.0  0.48690  0.80963  0.91873  1.0000
  S   S543      1.0  0.48614  0.87714  0.94308  1.0000
  H   H3111     1.0  0.47387  0.87982  0.81978  1.0000
  C   C3899     1.0  0.45391  0.90396  0.87371  1.0000
  C   C3900     1.0  0.48629  0.91939  0.74530  1.0000
  C   C3901     1.0  0.46524  0.98931  0.74437  1.0000
  C   C3902     1.0  0.46901  0.92164  0.92859  1.0000
  S   S544      1.0  0.45396  0.91935  0.78507  1.0000
  C   C3903     1.0  0.44333  0.96956  0.74129  1.0000
  C   C3904     1.0  0.49503  0.86706  0.86210  1.0000
  C   C3905     1.0  0.47393  0.87066  0.86472  1.0000
  C   C3906     1.0  0.45582  0.92949  0.74983  1.0000
  H   H3112     1.0  0.44978  0.90210  0.88297  1.0000
  H   H3113     1.0  0.49131  0.93718  0.75948  1.0000
  C   C3907     1.0  0.48605  0.86754  0.97164  1.0000
  C   C3908     1.0  0.47858  0.88492  0.82202  1.0000
  H   H3114     1.0  0.45905  0.93607  0.74255  1.0000
  C   C3909     1.0  0.43041  0.76263  0.96492  1.0000
  C   C3910     1.0  0.46521  0.88040  0.91507  1.0000
  C   C3911     1.0  0.47134  0.93836  0.87333  1.0000
  H   H3115     1.0  0.48547  0.93036  0.89566  1.0000
  H   H3116     1.0  0.44129  0.95176  0.74602  1.0000
  C   C3912     1.0  0.45038  0.92168  0.74795  1.0000
  H   H3117     1.0  0.48963  0.93943  0.85169  1.0000
  H   H3118     1.0  0.47932  0.94757  0.88064  1.0000
  C   C3913     1.0  0.48543  0.74942  0.98765  1.0000
  C   C3914     1.0  0.48450  0.85218  0.92209  1.0000
  C   C3915     1.0  0.49208  0.85989  0.91754  1.0000
  C   C3916     1.0  0.49268  0.86726  0.92420  1.0000
  C   C3917     1.0  0.48520  0.86757  0.93518  1.0000
  C   C3918     1.0  0.47728  0.86016  0.93970  1.0000
  C   C3919     1.0  0.47708  0.85229  0.93323  1.0000
  C   C3920     1.0  0.42966  0.81215  0.97668  1.0000
  H   H3119     1.0  0.43925  0.96695  0.77458  1.0000
  H   H3120     1.0  0.47153  0.86032  0.94828  1.0000
  H   H3121     1.0  0.47110  0.84645  0.93678  1.0000
  C   C3921     1.0  0.47043  0.76330  0.90260  1.0000
  C   C3922     1.0  0.46861  0.77276  0.89317  1.0000
  C   C3923     1.0  0.46739  0.78423  0.89416  1.0000
  C   C3924     1.0  0.46809  0.78648  0.90456  1.0000
  C   C3925     1.0  0.47010  0.77704  0.91408  1.0000
  C   C3926     1.0  0.47125  0.76542  0.91310  1.0000
  H   H3122     1.0  0.46798  0.77122  0.88505  1.0000
  H   H3123     1.0  0.46586  0.79144  0.88679  1.0000
  H   H3124     1.0  0.47064  0.77871  0.92217  1.0000
  H   H3125     1.0  0.47268  0.75817  0.92043  1.0000
  H   H3126     1.0  0.44231  0.78009  0.90963  1.0000
  C   C3927     1.0  0.49410  0.97630  0.88791  1.0000
  Fe  Fe279     1.0  0.46590  0.93857  0.80948  1.0000
  H   H3127     1.0  0.44812  0.95728  0.83837  1.0000
  H   H3128     1.0  0.48549  0.79638  0.97309  1.0000
  H   H3129     1.0  0.44281  0.82905  0.98408  1.0000
  H   H3130     1.0  0.41774  0.76171  0.95599  1.0000
  C   C3928     1.0  0.46060  0.98590  0.78191  1.0000
  H   H3131     1.0  0.43999  0.91880  0.86929  1.0000
  C   C3929     1.0  0.48437  0.87475  0.86014  1.0000
  P   P128      1.0  0.48392  0.88974  0.85193  1.0000
  C   C3930     1.0  0.41458  0.81053  0.95223  1.0000
  C   C3931     1.0  0.43868  0.76879  0.93911  1.0000
  C   C3932     1.0  0.47256  0.98136  0.77777  1.0000
  H   H3132     1.0  0.49269  0.96642  0.79180  1.0000
  P   P129      1.0  0.43711  0.77286  0.95280  1.0000
  C   C3933     1.0  0.45692  0.92895  0.76120  1.0000
  C   C3934     1.0  0.46973  0.88880  0.77541  1.0000
  C   C3935     1.0  0.47751  0.93415  0.83211  1.0000
  Fe  Fe280     1.0  0.46107  0.93285  0.78876  1.0000
  C   C3936     1.0  0.49434  0.90261  0.86025  1.0000
  C   C3937     1.0  0.41608  0.75044  0.97316  1.0000
  S   S545      1.0  0.47614  0.92592  0.79787  1.0000
  H   H3133     1.0  0.48482  0.97843  0.84730  1.0000
  C   C3938     1.0  0.47014  0.89917  0.85746  1.0000
  H   H3134     1.0  0.46767  0.89462  0.92046  1.0000
  C   C3939     1.0  0.41662  0.78953  0.95929  1.0000
  C   C3940     1.0  0.45276  0.77841  0.96217  1.0000
  C   C3941     1.0  0.47409  0.85932  0.87160  1.0000
  C   C3942     1.0  0.44191  0.97828  0.75737  1.0000
  C   C3943     1.0  0.45273  0.92047  0.77068  1.0000
  H   H3135     1.0  0.44955  0.92306  0.84814  1.0000
  C   C3944     1.0  0.44170  0.75363  0.92842  1.0000
  H   H3136     1.0  0.46886  0.88971  0.87548  1.0000
  H   H3137     1.0  0.47441  0.87741  0.84042  1.0000
  C   C3945     1.0  0.47861  0.89348  0.76692  1.0000
  H   H3138     1.0  0.45969  0.87739  0.92348  1.0000
  H   H3139     1.0  0.47013  0.94126  0.84760  1.0000
  C   C3946     1.0  0.45723  0.97115  0.83471  1.0000
  H   H3140     1.0  0.43900  0.78619  0.92808  1.0000
  H   H3141     1.0  0.40098  0.80247  0.96439  1.0000
  C   C3947     1.0  0.48785  0.98786  0.88480  1.0000
  H   H3142     1.0  0.48044  0.76062  0.94444  1.0000
  C   C3948     1.0  0.47893  0.88357  0.83373  1.0000
  C   C3949     1.0  0.47558  0.86456  0.97231  1.0000
  C   C3950     1.0  0.48399  0.89310  0.81323  1.0000
  C   C3951     1.0  0.43293  0.79724  0.94588  1.0000
  C   C3952     1.0  0.49246  0.92948  0.75618  1.0000
  H   H3143     1.0  0.46099  0.93509  0.76260  1.0000
  H   H3144     1.0  0.44247  0.98544  0.76069  1.0000
  C   C3953     1.0  0.49492  0.85921  0.97648  1.0000
  H   H3145     1.0  0.48478  0.84313  0.87923  1.0000
  H   H3146     1.0  0.48342  0.89440  0.80421  1.0000
  H   H3147     1.0  0.47061  0.90954  0.88287  1.0000
  H   H3148     1.0  0.46888  0.87097  0.96820  1.0000
  H   H3149     1.0  0.43954  0.96540  0.82080  1.0000
  C   C3954     1.0  0.40986  0.80098  0.95913  1.0000
  C   C3955     1.0  0.43452  0.75852  0.97533  1.0000
  C   C3956     1.0  0.47392  0.85327  0.97795  1.0000
  H   H3150     1.0  0.47562  0.97231  0.77693  1.0000
  H   H3151     1.0  0.46537  0.89270  0.78298  1.0000
  H   H3152     1.0  0.46441  0.92687  0.86784  1.0000
  C   C3957     1.0  0.46895  0.92759  0.87399  1.0000
  C   C3958     1.0  0.42821  0.78757  0.95261  1.0000
  H   H3153     1.0  0.46866  0.94596  0.86671  1.0000
  C   C3959     1.0  0.48810  0.82048  0.98049  1.0000
  C   C3960     1.0  0.42034  0.74628  0.98344  1.0000
  H   H3154     1.0  0.48251  0.77063  0.95866  1.0000
  C   C3961     1.0  0.47732  0.93928  0.88116  1.0000
  H   H3155     1.0  0.44202  0.90715  0.75607  1.0000
  C   C3962     1.0  0.46390  0.77760  0.96384  1.0000
  H   H3156     1.0  0.48386  0.87635  0.74727  1.0000
  C   C3963     1.0  0.44742  0.91260  0.76874  1.0000
  C   C3964     1.0  0.45078  0.80735  0.97452  1.0000
  C   C3965     1.0  0.44131  0.77370  0.91787  1.0000
  C   C3966     1.0  0.42606  0.80864  0.94552  1.0000
  C   C3967     1.0  0.47590  0.87751  0.89569  1.0000
  C   C3968     1.0  0.49518  0.85565  0.86882  1.0000
  C   C3969     1.0  0.47152  0.91876  0.91765  1.0000
  C   C3970     1.0  0.40090  0.99220  0.78519  1.0000
  C   C3971     1.0  0.46159  0.76580  0.94819  1.0000
  H   H3157     1.0  0.46831  0.86800  0.76245  1.0000
  C   C3972     1.0  0.48544  0.92962  0.74885  1.0000
  C   C3973     1.0  0.48351  0.81098  0.98085  1.0000
  H   H3158     1.0  0.43862  0.95007  0.76735  1.0000
  C   C3974     1.0  0.48705  0.96745  0.82442  1.0000
  C   C3975     1.0  0.48037  0.88744  0.89379  1.0000
  P   P130      1.0  0.48441  0.90576  0.90061  1.0000
  C   C3976     1.0  0.47607  0.91545  0.93660  1.0000
  C   C3977     1.0  0.48559  0.90635  0.93370  1.0000
  H   H3159     1.0  0.46580  0.92348  0.91167  1.0000
  C   C3978     1.0  0.48910  0.93644  0.84433  1.0000
  Fe  Fe281     1.0  0.48288  0.94134  0.78577  1.0000
  H   H3160     1.0  0.49092  0.90135  0.94000  1.0000
  C   C3979     1.0  0.45153  0.77246  0.95436  1.0000
  C   C3980     1.0  0.44499  0.97001  0.82265  1.0000
  C   C3981     1.0  0.47386  0.77101  0.95761  1.0000
  C   C3982     1.0  0.44136  0.95918  0.74924  1.0000
  H   H3161     1.0  0.49043  0.78818  0.90812  1.0000
  C   C3983     1.0  0.46981  0.89020  0.91329  1.0000
  C   C3984     1.0  0.44243  0.76196  0.91786  1.0000
  H   H3162     1.0  0.48567  0.90585  0.86512  1.0000
  C   C3985     1.0  0.46189  0.98738  0.86869  1.0000
  H   H3163     1.0  0.49420  0.90438  0.82990  1.0000
  H   H3164     1.0  0.48639  0.88998  0.88559  1.0000
  H   H3165     1.0  0.46155  0.92861  0.93089  1.0000
  H   H3166     1.0  0.46115  0.96731  0.84226  1.0000
  C   C3986     1.0  0.47883  0.91854  0.89018  1.0000
  S   S546      1.0  0.45018  0.94428  0.80147  1.0000
  H   H3167     1.0  0.47558  0.80926  0.98714  1.0000
  Fe  Fe282     1.0  0.45931  0.95811  0.78923  1.0000
  C   C3987     1.0  0.49009  0.89864  0.82783  1.0000
  C   C3988     1.0  0.48984  0.89986  0.81614  1.0000
  C   C3989     1.0  0.44840  0.91335  0.86603  1.0000
  H   H3168     1.0  0.46861  0.91083  0.84057  1.0000
  H   H3169     1.0  0.44272  0.74450  0.92845  1.0000
  C   C3990     1.0  0.47261  0.91774  0.88244  1.0000
  H   H3170     1.0  0.44381  0.98380  0.80722  1.0000
  H   H3171     1.0  0.49392  0.90632  0.80939  1.0000
  C   C3991     1.0  0.43947  0.77712  0.92843  1.0000
  S   S547      1.0  0.46386  0.93600  0.82891  1.0000
  H   H3172     1.0  0.44193  0.79601  0.94091  1.0000
  C   C3992     1.0  0.44333  0.97935  0.74525  1.0000
  S   S548      1.0  0.46865  0.94737  0.77568  1.0000
  C   C3993     1.0  0.45378  0.91575  0.85412  1.0000
  H   H3173     1.0  0.46512  0.86611  0.90794  1.0000
  S   S549      1.0  0.47413  0.95329  0.79825  1.0000
  H   H3174     1.0  0.45981  0.98725  0.87799  1.0000
  H   H3175     1.0  0.46346  0.83080  0.97759  1.0000
  H   H3176     1.0  0.43989  0.75028  0.94696  1.0000
  H   H3177     1.0  0.39737  0.78410  0.98697  1.0000
  C   C3994     1.0  0.45915  0.83026  0.98677  1.0000
  H   H3178     1.0  0.46561  0.87625  0.86307  1.0000
  C   C3995     1.0  0.48783  0.92947  0.82471  1.0000
  C   C3996     1.0  0.43980  0.95827  0.76124  1.0000
  H   H3179     1.0  0.45899  0.87617  0.78031  1.0000
  H   H3180     1.0  0.44424  0.75925  0.90964  1.0000
  H   H3181     1.0  0.48091  0.90091  0.76823  1.0000
  H   H3182     1.0  0.46598  0.85631  0.87533  1.0000
  C   C3997     1.0  0.48476  0.89037  0.83672  1.0000
  C   C3998     1.0  0.46462  0.90873  0.84984  1.0000
  H   H3183     1.0  0.47947  0.98702  0.75256  1.0000
  H   H3184     1.0  0.47855  0.87227  0.88911  1.0000
  C   C3999     1.0  0.42949  0.75040  0.98452  1.0000
  C   C4000     1.0  0.40902  0.98187  0.78847  1.0000
  C   C4001     1.0  0.42104  0.75865  0.96396  1.0000
  C   C4002     1.0  0.47133  0.87498  0.76379  1.0000
  H   H3185     1.0  0.42560  0.97443  0.79363  1.0000
  H   H3186     1.0  0.40746  0.97341  0.78886  1.0000
  H   H3187     1.0  0.49500  0.88380  0.78538  1.0000
  C   C4003     1.0  0.44981  0.96546  0.83257  1.0000
  C   C4004     1.0  0.49329  0.84796  0.98219  1.0000
  H   H3188     1.0  0.40915  0.74707  0.97223  1.0000
  H   H3189     1.0  0.49495  0.74349  0.96365  1.0000
  H   H3190     1.0  0.47996  0.97806  0.86826  1.0000
  C   C4005     1.0  0.41922  0.98243  0.79118  1.0000
  C   C4006     1.0  0.46736  0.98784  0.84456  1.0000
  C   C4007     1.0  0.46475  0.89694  0.86945  1.0000
  C   C4008     1.0  0.48127  0.90978  0.91457  1.0000
  H   H3191     1.0  0.44182  0.76124  0.97634  1.0000
  H   H3192     1.0  0.44413  0.90605  0.77603  1.0000
  C   C4009     1.0  0.44622  0.91322  0.75745  1.0000
  S   S550      1.0  0.45035  0.97714  0.78561  1.0000
  C   C4010     1.0  0.48017  0.87969  0.75523  1.0000
  H   H3193     1.0  0.47412  0.91759  0.94512  1.0000
  C   C4011     1.0  0.48816  0.90349  0.92275  1.0000
  H   H3194     1.0  0.46095  0.76113  0.94210  1.0000
  P   P131      1.0  0.49462  0.89564  0.74515  1.0000
  H   H3195     1.0  0.48742  0.92698  0.81700  1.0000
  C   C4012     1.0  0.48391  0.88897  0.75673  1.0000
  C   C4013     1.0  0.48915  0.80357  0.97297  1.0000
  C   C4014     1.0  0.49462  0.90918  0.74848  1.0000
  C   C4015     1.0  0.49497  0.98383  0.82373  1.0000
  C   C4016     1.0  0.47321  0.98221  0.86325  1.0000
  H   H3196     1.0  0.42200  0.81622  0.97295  1.0000
  C   C4017     1.0  0.46608  0.87957  0.77385  1.0000
  C   C4018     1.0  0.47595  0.98247  0.85124  1.0000
  H   H3197     1.0  0.45946  0.80780  0.96912  1.0000
  C   C4019     1.0  0.44086  0.81265  0.96967  1.0000
  H   H3198     1.0  0.40944  0.81942  0.95217  1.0000
  C   C4020     1.0  0.44937  0.80193  0.98654  1.0000
  H   H3199     1.0  0.42979  0.81605  0.94029  1.0000
  C   C4021     1.0  0.48096  0.92945  0.88959  1.0000
  H   H3200     1.0  0.41278  0.78229  0.96470  1.0000
  C   C4022     1.0  0.44013  0.96779  0.76530  1.0000
  C   C4023     1.0  0.45512  0.98589  0.81687  1.0000
  C   C4024     1.0  0.48523  0.97917  0.82510  1.0000
  H   H3201     1.0  0.46487  0.78242  0.96964  1.0000
  H   H3202     1.0  0.49002  0.81841  0.89087  1.0000
  H   H3203     1.0  0.47986  0.96352  0.82527  1.0000
  C   C4025     1.0  0.42828  0.80652  0.98851  1.0000
  C   C4026     1.0  0.44750  0.98031  0.81493  1.0000
  H   H3204     1.0  0.44514  0.78373  0.96691  1.0000
  C   C4027     1.0  0.48052  0.98871  0.77415  1.0000
  H   H3205     1.0  0.47905  0.93755  0.74623  1.0000
  H   H3206     1.0  0.48979  0.96904  0.89033  1.0000
  H   H3207     1.0  0.47614  0.74316  0.97889  1.0000
  H   H3208     1.0  0.47863  0.98948  0.88485  1.0000
  C   C4028     1.0  0.48275  0.84488  0.98300  1.0000
  H   H3209     1.0  0.48419  0.75822  0.98222  1.0000
  H   H3210     1.0  0.44988  0.77816  0.98795  1.0000
  H   H3211     1.0  0.48739  0.87624  0.96711  1.0000
  H   H3212     1.0  0.46577  0.85118  0.97827  1.0000
  C   C4029     1.0  0.44743  0.82928  0.99041  1.0000
  H   H3213     1.0  0.39299  0.99175  0.78309  1.0000
  P   P132      1.0  0.48079  0.83026  0.99046  1.0000
  H   H3214     1.0  0.49543  0.89628  0.92075  1.0000
  H   H3215     1.0  0.45696  0.79810  0.99041  1.0000
  S   S551      1.0  0.51970  0.09681  0.02530  1.0000
  H   H3216     1.0  0.55571  0.15629  0.00848  1.0000
  H   H3217     1.0  0.52761  0.19459  0.02375  1.0000
  S   S552      1.0  0.57434  0.01334  0.16756  1.0000
  C   C4030     1.0  0.60161  0.02684  0.19919  1.0000
  C   C4031     1.0  0.55554  0.06149  0.17895  1.0000
  S   S553      1.0  0.57150  0.02980  0.13565  1.0000
  Fe  Fe283     1.0  0.52709  0.08288  0.01470  1.0000
  C   C4032     1.0  0.52993  0.00466  0.23100  1.0000
  C   C4033     1.0  0.54209  0.04262  0.15133  1.0000
  H   H3218     1.0  0.55035  0.09021  0.18965  1.0000
  Fe  Fe284     1.0  0.58291  0.14210  0.01114  1.0000
  H   H3219     1.0  0.59227  0.10912  0.99728  1.0000
  S   S554      1.0  0.58020  0.12349  0.01748  1.0000
  Fe  Fe285     1.0  0.58787  0.16182  0.01887  1.0000
  H   H3220     1.0  0.55729  0.22701  0.04354  1.0000
  S   S555      1.0  0.58968  0.16510  0.03558  1.0000
  Fe  Fe286     1.0  0.50348  0.09991  0.01859  1.0000
  S   S556      1.0  0.53195  0.12461  0.00737  1.0000
  H   H3221     1.0  0.55691  0.03368  0.15902  1.0000
  S   S557      1.0  0.57145  0.15623  0.02043  1.0000
  S   S558      1.0  0.59846  0.23973  0.02487  1.0000
  Fe  Fe287     1.0  0.51987  0.02773  0.11136  1.0000
  S   S559      1.0  0.53058  0.03641  0.09474  1.0000
  S   S560      1.0  0.51314  0.03700  0.12632  1.0000
  C   C4034     1.0  0.50425  0.18890  0.09027  1.0000
  S   S561      1.0  0.53420  0.01258  0.08475  1.0000
  Fe  Fe288     1.0  0.54276  0.01868  0.09544  1.0000
  H   H3222     1.0  0.60924  0.00235  0.10572  1.0000
  Fe  Fe289     1.0  0.52095  0.02973  0.08573  1.0000
  S   S562      1.0  0.51131  0.04239  0.07233  1.0000
  H   H3223     1.0  0.50028  0.21702  0.06383  1.0000
  S   S563      1.0  0.50923  0.02232  0.10240  1.0000
  C   C4035     1.0  0.54101  0.21859  0.03004  1.0000
  H   H3224     1.0  0.54334  0.01317  0.19974  1.0000
  C   C4036     1.0  0.53250  0.06789  0.07423  1.0000
  H   H3225     1.0  0.53785  0.07590  0.20023  1.0000
  H   H3226     1.0  0.53138  0.17144  0.07029  1.0000
  C   C4037     1.0  0.56857  0.06111  0.01570  1.0000
  S   S564      1.0  0.51087  0.02955  0.18468  1.0000
  C   C4038     1.0  0.55652  0.22655  0.00324  1.0000
  H   H3227     1.0  0.54808  0.01899  0.13764  1.0000
  C   C4039     1.0  0.55174  0.08225  0.18662  1.0000
  S   S565      1.0  0.55513  0.18014  0.99727  1.0000
  C   C4040     1.0  0.54658  0.20208  0.06611  1.0000
  H   H3228     1.0  0.60415  0.03735  0.14590  1.0000
  H   H3229     1.0  0.54381  0.03629  0.14598  1.0000
  H   H3230     1.0  0.58151  0.02037  0.07019  1.0000
  H   H3231     1.0  0.58323  0.01059  0.12392  1.0000
  H   H3232     1.0  0.50076  0.00135  0.12353  1.0000
  C   C4041     1.0  0.52583  0.20262  0.07418  1.0000
  Fe  Fe290     1.0  0.52584  0.10872  0.00840  1.0000
  C   C4042     1.0  0.57392  0.20889  0.99386  1.0000
  H   H3233     1.0  0.57615  0.08433  0.07371  1.0000
  H   H3234     1.0  0.58648  0.00404  0.19628  1.0000
  H   H3235     1.0  0.52642  0.05291  0.14547  1.0000
  H   H3236     1.0  0.59427  0.03478  0.06251  1.0000
  H   H3237     1.0  0.50710  0.03514  0.15112  1.0000
  C   C4043     1.0  0.51910  0.04884  0.05866  1.0000
  C   C4044     1.0  0.53107  0.04437  0.05455  1.0000
  C   C4045     1.0  0.53686  0.04950  0.04334  1.0000
  C   C4046     1.0  0.53072  0.05917  0.03633  1.0000
  C   C4047     1.0  0.51880  0.06368  0.04052  1.0000
  C   C4048     1.0  0.51301  0.05852  0.05163  1.0000
  H   H3238     1.0  0.53577  0.03686  0.05991  1.0000
  H   H3239     1.0  0.55808  0.99873  0.13558  1.0000
  H   H3240     1.0  0.51401  0.07112  0.03516  1.0000
  H   H3241     1.0  0.57030  0.00708  0.04777  1.0000
  C   C4049     1.0  0.56717  0.12301  0.01432  1.0000
  C   C4050     1.0  0.56663  0.03253  0.06419  1.0000
  C   C4051     1.0  0.59544  0.03968  0.15128  1.0000
  S   S566      1.0  0.58680  0.03117  0.21969  1.0000
  C   C4052     1.0  0.50993  0.01942  0.22361  1.0000
  C   C4053     1.0  0.56203  0.11329  0.01934  1.0000
  C   C4054     1.0  0.54967  0.22538  0.04190  1.0000
  H   H3242     1.0  0.51590  0.00804  0.15522  1.0000
  C   C4055     1.0  0.59371  0.03684  0.16348  1.0000
  H   H3243     1.0  0.55774  0.08810  0.03004  1.0000
  C   C4056     1.0  0.56071  0.03636  0.19696  1.0000
  H   H3244     1.0  0.60957  0.18203  0.99542  1.0000
  H   H3245     1.0  0.55596  0.00624  0.06686  1.0000
  C   C4057     1.0  0.51926  0.04322  0.20339  1.0000
  H   H3246     1.0  0.52019  0.22865  0.05260  1.0000
  H   H3247     1.0  0.51413  0.17749  0.01347  1.0000
  H   H3248     1.0  0.56596  0.13972  0.00241  1.0000
  H   H3249     1.0  0.53766  0.23229  0.05642  1.0000
  H   H3250     1.0  0.53012  0.06423  0.08355  1.0000
  S   S567      1.0  0.53803  0.06567  0.02244  1.0000
  H   H3251     1.0  0.58716  0.04734  0.13659  1.0000
  H   H3252     1.0  0.53347  0.20304  0.00321  1.0000
  C   C4058     1.0  0.53260  0.01879  0.17397  1.0000
  C   C4059     1.0  0.52311  0.01777  0.18355  1.0000
  C   C4060     1.0  0.53800  0.15531  0.01717  1.0000
  C   C4061     1.0  0.50931  0.16314  0.05821  1.0000
  H   H3253     1.0  0.55015  0.01069  0.16589  1.0000
  H   H3254     1.0  0.53197  0.02654  0.16705  1.0000
  H   H3255     1.0  0.54608  0.04599  0.04006  1.0000
  C   C4062     1.0  0.56211  0.04400  0.05870  1.0000
  C   C4063     1.0  0.56916  0.02607  0.12370  1.0000
  C   C4064     1.0  0.56006  0.03308  0.11820  1.0000
  C   C4065     1.0  0.55779  0.02989  0.10897  1.0000
  C   C4066     1.0  0.56491  0.01994  0.10489  1.0000
  H   H3256     1.0  0.53222  0.01957  0.23534  1.0000
  C   C4067     1.0  0.57617  0.01603  0.11973  1.0000
  H   H3257     1.0  0.55455  0.04080  0.12131  1.0000
  H   H3258     1.0  0.57915  0.08227  0.03282  1.0000
  C   C4068     1.0  0.54282  0.00979  0.17333  1.0000
  H   H3259     1.0  0.51456  0.13372  0.04991  1.0000
  C   C4069     1.0  0.58281  0.20195  0.04234  1.0000
  C   C4070     1.0  0.58308  0.19199  0.05149  1.0000
  C   C4071     1.0  0.58511  0.18083  0.04922  1.0000
  C   C4072     1.0  0.58669  0.17948  0.03779  1.0000
  C   C4073     1.0  0.58607  0.18945  0.02859  1.0000
  C   C4074     1.0  0.58420  0.20069  0.03086  1.0000
  H   H3260     1.0  0.58202  0.19287  0.06036  1.0000
  H   H3261     1.0  0.58562  0.17319  0.05635  1.0000
  H   H3262     1.0  0.58729  0.18849  0.01972  1.0000
  H   H3263     1.0  0.54108  0.05767  0.19351  1.0000
  C   C4075     1.0  0.54459  0.19628  0.02459  1.0000
  C   C4076     1.0  0.55495  0.19029  0.02847  1.0000
  C   C4077     1.0  0.55656  0.17840  0.03386  1.0000
  C   C4078     1.0  0.54774  0.17246  0.03567  1.0000
  C   C4079     1.0  0.53727  0.17841  0.03214  1.0000
  C   C4080     1.0  0.53571  0.19026  0.02655  1.0000
  H   H3264     1.0  0.56481  0.17374  0.03634  1.0000
  H   H3265     1.0  0.54912  0.16319  0.03948  1.0000
  C   C4081     1.0  0.54433  0.06642  0.06838  1.0000
  C   C4082     1.0  0.52303  0.00026  0.22663  1.0000
  C   C4083     1.0  0.58445  0.08961  0.04394  1.0000
  S   S568      1.0  0.57874  0.00233  0.23958  1.0000
  C   C4084     1.0  0.52879  0.22620  0.04707  1.0000
  C   C4085     1.0  0.53862  0.22830  0.04920  1.0000
  H   H3266     1.0  0.54695  0.10624  0.02116  1.0000
  C   C4086     1.0  0.51146  0.06762  0.20036  1.0000
  S   S569      1.0  0.58712  0.17441  0.00150  1.0000
  H   H3267     1.0  0.61116  0.20002  0.00009  1.0000
  C   C4087     1.0  0.58689  0.01524  0.20716  1.0000
  C   C4088     1.0  0.56186  0.13249  0.00666  1.0000
  H   H3268     1.0  0.50741  0.00403  0.22006  1.0000
  S   S570      1.0  0.59953  0.14656  0.01115  1.0000
  H   H3269     1.0  0.55094  0.06148  0.07336  1.0000
  C   C4089     1.0  0.51452  0.04829  0.21325  1.0000
  C   C4090     1.0  0.52676  0.07793  0.05588  1.0000
  S   S571      1.0  0.58165  0.15320  0.99319  1.0000
  H   H3270     1.0  0.64178  0.23391  0.00990  1.0000
  C   C4091     1.0  0.51291  0.00756  0.22317  1.0000
  C   C4092     1.0  0.55887  0.02795  0.20738  1.0000
  H   H3271     1.0  0.52238  0.21952  0.03616  1.0000
  H   H3272     1.0  0.55060  0.03520  0.10494  1.0000
  H   H3273     1.0  0.53046  0.17375  0.03346  1.0000
  C   C4093     1.0  0.57819  0.02921  0.06561  1.0000
  C   C4094     1.0  0.53237  0.05205  0.15099  1.0000
  C   C4095     1.0  0.53856  0.07636  0.04998  1.0000
  C   C4096     1.0  0.51538  0.17779  0.06378  1.0000
  C   C4097     1.0  0.51586  0.06249  0.19060  1.0000
  H   H3274     1.0  0.52221  0.03380  0.20429  1.0000
  C   C4098     1.0  0.51941  0.15489  0.06070  1.0000
  C   C4099     1.0  0.52729  0.15790  0.06514  1.0000
  C   C4100     1.0  0.58079  0.04891  0.05592  1.0000
  H   H3275     1.0  0.51596  0.06791  0.18186  1.0000
  S   S572      1.0  0.58080  0.21564  0.04586  1.0000
  C   C4101     1.0  0.58590  0.04535  0.14605  1.0000
  H   H3276     1.0  0.53498  0.15143  0.06730  1.0000
  C   C4102     1.0  0.55128  0.11343  0.01700  1.0000
  Fe  Fe291     1.0  0.52329  0.00566  0.10226  1.0000
  C   C4103     1.0  0.56907  0.05236  0.05475  1.0000
  C   C4104     1.0  0.55269  0.01955  0.20837  1.0000
  H   H3277     1.0  0.50592  0.20680  0.02558  1.0000
  P   P133      1.0  0.55800  0.04799  0.17429  1.0000
  C   C4105     1.0  0.54382  0.17268  0.00410  1.0000
  H   H3278     1.0  0.53798  0.03821  0.22107  1.0000
  H   H3279     1.0  0.56562  0.04273  0.19637  1.0000
  C   C4106     1.0  0.52372  0.07362  0.06796  1.0000
  C   C4107     1.0  0.60030  0.01344  0.18834  1.0000
  C   C4108     1.0  0.53032  0.06029  0.15778  1.0000
  C   C4109     1.0  0.55003  0.11441  0.04743  1.0000
  C   C4110     1.0  0.54212  0.12438  0.04301  1.0000
  C   C4111     1.0  0.54208  0.13533  0.04455  1.0000
  C   C4112     1.0  0.55012  0.13640  0.05018  1.0000
  C   C4113     1.0  0.55807  0.12647  0.05468  1.0000
  C   C4114     1.0  0.55797  0.11544  0.05324  1.0000
  P   P134      1.0  0.56834  0.12786  0.06218  1.0000
  C   C4115     1.0  0.56302  0.14158  0.06707  1.0000
  C   C4116     1.0  0.56942  0.11567  0.07465  1.0000
  C   C4117     1.0  0.55951  0.11110  0.08095  1.0000
  C   C4118     1.0  0.56037  0.10153  0.09047  1.0000
  C   C4119     1.0  0.57110  0.09649  0.09382  1.0000
  C   C4120     1.0  0.58098  0.10103  0.08765  1.0000
  C   C4121     1.0  0.58016  0.11059  0.07811  1.0000
  C   C4122     1.0  0.55659  0.14197  0.07858  1.0000
  C   C4123     1.0  0.55267  0.15262  0.08228  1.0000
  C   C4124     1.0  0.55519  0.16293  0.07454  1.0000
  C   C4125     1.0  0.56148  0.16264  0.06306  1.0000
  C   C4126     1.0  0.56528  0.15206  0.05928  1.0000
  C   C4127     1.0  0.58273  0.12766  0.05258  1.0000
  C   C4128     1.0  0.58654  0.12146  0.04355  1.0000
  C   C4129     1.0  0.59767  0.12135  0.03613  1.0000
  C   C4130     1.0  0.60506  0.12748  0.03762  1.0000
  C   C4131     1.0  0.60140  0.13358  0.04666  1.0000
  C   C4132     1.0  0.59035  0.13356  0.05420  1.0000
  H   H3280     1.0  0.55019  0.10594  0.04606  1.0000
  H   H3281     1.0  0.53620  0.12372  0.03813  1.0000
  H   H3282     1.0  0.53596  0.14307  0.04115  1.0000
  H   H3283     1.0  0.55012  0.14500  0.05093  1.0000
  H   H3284     1.0  0.56409  0.10767  0.05650  1.0000
  H   H3285     1.0  0.55111  0.11492  0.07849  1.0000
  H   H3286     1.0  0.55271  0.09801  0.09526  1.0000
  H   H3287     1.0  0.57176  0.08907  0.10121  1.0000
  H   H3288     1.0  0.58930  0.09714  0.09028  1.0000
  H   H3289     1.0  0.58792  0.11398  0.07348  1.0000
  H   H3290     1.0  0.55465  0.13408  0.08476  1.0000
  H   H3291     1.0  0.54781  0.15285  0.09120  1.0000
  H   H3292     1.0  0.55234  0.17116  0.07743  1.0000
  H   H3293     1.0  0.56362  0.17058  0.05710  1.0000
  H   H3294     1.0  0.57015  0.15204  0.05030  1.0000
  H   H3295     1.0  0.58085  0.11695  0.04199  1.0000
  H   H3296     1.0  0.60036  0.11691  0.02889  1.0000
  H   H3297     1.0  0.61348  0.12777  0.03157  1.0000
  H   H3298     1.0  0.60697  0.13864  0.04759  1.0000
  H   H3299     1.0  0.58771  0.13839  0.06112  1.0000
  S   S573      1.0  0.57498  0.99647  0.14990  1.0000
  C   C4133     1.0  0.55621  0.03655  0.18744  1.0000
  H   H3300     1.0  0.55181  0.04296  0.22956  1.0000
  C   C4134     1.0  0.57462  0.04808  0.15303  1.0000
  H   H3301     1.0  0.53611  0.21062  0.08017  1.0000
  C   C4135     1.0  0.53802  0.05909  0.16491  1.0000
  C   C4136     1.0  0.54818  0.01966  0.19898  1.0000
  S   S574      1.0  0.51600  0.15535  0.03071  1.0000
  C   C4137     1.0  0.52517  0.00580  0.15117  1.0000
  C   C4138     1.0  0.57270  0.04472  0.16534  1.0000
  C   C4139     1.0  0.53389  0.99853  0.19177  1.0000
  C   C4140     1.0  0.54761  0.04941  0.16558  1.0000
  C   C4141     1.0  0.53083  0.99419  0.15026  1.0000
  H   H3302     1.0  0.57967  0.01269  0.21402  1.0000
  C   C4142     1.0  0.58531  0.03737  0.06137  1.0000
  H   H3303     1.0  0.60115  0.03248  0.16746  1.0000
  P   P135      1.0  0.54257  0.21175  0.01812  1.0000
  C   C4143     1.0  0.52631  0.16144  0.01910  1.0000
  H   H3304     1.0  0.54049  0.07921  0.04054  1.0000
  C   C4144     1.0  0.54952  0.04116  0.15878  1.0000
  C   C4145     1.0  0.54657  0.06386  0.18876  1.0000
  C   C4146     1.0  0.56157  0.08208  0.01410  1.0000
  H   H3305     1.0  0.52277  0.06760  0.15747  1.0000
  H   H3306     1.0  0.59551  0.99923  0.07821  1.0000
  H   H3307     1.0  0.54040  0.14625  0.02151  1.0000
  H   H3308     1.0  0.53643  0.06571  0.16985  1.0000
  C   C4147     1.0  0.56253  0.06964  0.17295  1.0000
  S   S575      1.0  0.56224  0.01585  0.09328  1.0000
  H   H3309     1.0  0.51457  0.07439  0.07237  1.0000
  C   C4148     1.0  0.52587  0.19606  0.06632  1.0000
  C   C4149     1.0  0.54584  0.12327  0.00964  1.0000
  C   C4150     1.0  0.58240  0.03926  0.17052  1.0000
  C   C4151     1.0  0.56063  0.07998  0.17680  1.0000
  C   C4152     1.0  0.57417  0.01312  0.11020  1.0000
  H   H3310     1.0  0.54626  0.02812  0.18147  1.0000
  C   C4153     1.0  0.54989  0.02815  0.18857  1.0000
  P   P136      1.0  0.51299  0.03942  0.22794  1.0000
  H   H3311     1.0  0.58885  0.09529  0.05709  1.0000
  H   H3312     1.0  0.56620  0.10587  0.02520  1.0000
  C   C4154     1.0  0.54750  0.07060  0.05617  1.0000
  C   C4155     1.0  0.52321  0.17285  0.01250  1.0000
  H   H3313     1.0  0.56742  0.05249  0.14870  1.0000
  C   C4156     1.0  0.55524  0.21494  0.00699  1.0000
  C   C4157     1.0  0.53619  0.20550  0.07415  1.0000
  C   C4158     1.0  0.54470  0.07420  0.19258  1.0000
  Fe  Fe292     1.0  0.57146  0.16777  0.00241  1.0000
  H   H3314     1.0  0.56232  0.02795  0.21469  1.0000
  H   H3315     1.0  0.50320  0.16079  0.05477  1.0000
  C   C4159     1.0  0.57069  0.07673  0.05112  1.0000
  H   H3316     1.0  0.58992  0.09447  0.03665  1.0000
  C   C4160     1.0  0.53468  0.04175  0.22891  1.0000
  C   C4161     1.0  0.49882  0.22018  0.03563  1.0000
  P   P137      1.0  0.56280  0.06743  0.04854  1.0000
  H   H3317     1.0  0.55959  0.21810  0.02699  1.0000
  H   H3318     1.0  0.56547  0.07351  0.99974  1.0000
  C   C4162     1.0  0.49766  0.04238  0.23536  1.0000
  C   C4163     1.0  0.51736  0.21536  0.00029  1.0000
  C   C4164     1.0  0.49727  0.22305  0.04642  1.0000
  C   C4165     1.0  0.53627  0.19299  0.05805  1.0000
  C   C4166     1.0  0.57662  0.08399  0.06479  1.0000
  H   H3319     1.0  0.55308  0.04641  0.05782  1.0000
  H   H3320     1.0  0.52324  0.04630  0.18456  1.0000
  H   H3321     1.0  0.51340  0.19179  0.04170  1.0000
  P   P138      1.0  0.51257  0.19246  0.06598  1.0000
  H   H3322     1.0  0.50724  0.06459  0.21919  1.0000
  H   H3323     1.0  0.56471  0.07255  0.07002  1.0000
  C   C4167     1.0  0.56406  0.06927  0.03298  1.0000
  H   H3324     1.0  0.55874  0.09075  0.00892  1.0000
  C   C4168     1.0  0.53002  0.22119  0.03764  1.0000
  H   H3325     1.0  0.58399  0.20830  0.02372  1.0000
  H   H3326     1.0  0.56186  0.19479  0.02720  1.0000
  C   C4169     1.0  0.51085  0.06055  0.21166  1.0000
  C   C4170     1.0  0.55122  0.13269  0.00438  1.0000
  H   H3327     1.0  0.52110  0.14618  0.05916  1.0000
  S   S576      1.0  0.53474  0.09468  0.99811  1.0000
  C   C4171     1.0  0.52762  0.21132  0.00465  1.0000
  H   H3328     1.0  0.60574  0.03335  0.19983  1.0000
  C   C4172     1.0  0.51695  0.02400  0.22774  1.0000
  C   C4173     1.0  0.52311  0.22899  0.01198  1.0000
  H   H3329     1.0  0.52962  0.18731  0.99999  1.0000
  C   C4174     1.0  0.52366  0.00755  0.19235  1.0000
  C   C4175     1.0  0.52525  0.16929  0.06674  1.0000
  H   H3330     1.0  0.57111  0.05356  0.01174  1.0000
  H   H3331     1.0  0.53634  0.18848  0.05153  1.0000
  H   H3332     1.0  0.57002  0.05072  0.03281  1.0000
  C   C4176     1.0  0.56092  0.08054  0.02607  1.0000
  C   C4177     1.0  0.53018  0.21777  0.01114  1.0000
  C   C4178     1.0  0.52686  0.01648  0.23166  1.0000
  H   H3333     1.0  0.58639  0.05513  0.05279  1.0000
  H   H3334     1.0  0.56105  0.02627  0.06767  1.0000
  C   C4179     1.0  0.59216  0.02373  0.20806  1.0000
  H   H3335     1.0  0.56613  0.08619  0.17222  1.0000
  C   C4180     1.0  0.54670  0.16096  0.00972  1.0000
  H   H3336     1.0  0.56949  0.06800  0.16537  1.0000
  C   C4181     1.0  0.50478  0.20896  0.03396  1.0000
  C   C4182     1.0  0.56641  0.22930  0.99491  1.0000
  H   H3337     1.0  0.50734  0.13335  0.07131  1.0000
  H   H3338     1.0  0.55139  0.01296  0.21643  1.0000
  C   C4183     1.0  0.61011  0.20026  0.99146  1.0000
  C   C4184     1.0  0.51991  0.05033  0.19211  1.0000
  C   C4185     1.0  0.50730  0.20324  0.05401  1.0000
  C   C4186     1.0  0.50900  0.20049  0.04312  1.0000
  H   H3339     1.0  0.58132  0.03664  0.17995  1.0000
  C   C4187     1.0  0.56786  0.05954  0.02770  1.0000
  H   H3340     1.0  0.55457  0.19367  0.05152  1.0000
  C   C4188     1.0  0.56539  0.07236  0.00892  1.0000
  S   S577      1.0  0.53286  0.01049  0.11285  1.0000
  C   C4189     1.0  0.58382  0.09010  0.05544  1.0000
  H   H3341     1.0  0.51778  0.20573  0.08016  1.0000
  C   C4190     1.0  0.56390  0.20611  0.00209  1.0000
  H   H3342     1.0  0.51996  0.08199  0.05095  1.0000
  C   C4191     1.0  0.58654  0.11418  0.99138  1.0000
  C   C4192     1.0  0.55090  0.22044  0.03242  1.0000
  C   C4193     1.0  0.54659  0.19591  0.05801  1.0000
  C   C4194     1.0  0.60589  0.02146  0.18957  1.0000
  H   H3343     1.0  0.52524  0.23442  0.01639  1.0000
  H   H3344     1.0  0.56301  0.19710  0.00461  1.0000
  H   H3345     1.0  0.54996  0.23347  0.00695  1.0000
  S   S578      1.0  0.51026  0.08484  0.00943  1.0000
  Fe  Fe293     1.0  0.51723  0.09786  0.99364  1.0000
  C   C4195     1.0  0.54329  0.01209  0.14117  1.0000
  C   C4196     1.0  0.52269  0.04331  0.23436  1.0000
  Fe  Fe294     1.0  0.57900  0.01382  0.14820  1.0000
  C   C4197     1.0  0.53199  0.17846  0.00489  1.0000
  C   C4198     1.0  0.57301  0.00166  0.05570  1.0000
  S   S579      1.0  0.59821  0.00647  0.14751  1.0000
  H   H3346     1.0  0.55456  0.20454  0.06587  1.0000
  C   C4199     1.0  0.57006  0.07736  0.06264  1.0000
  C   C4200     1.0  0.57809  0.08281  0.04179  1.0000
  H   H3347     1.0  0.50830  0.07704  0.19920  1.0000
  Fe  Fe295     1.0  0.58259  0.23185  0.03152  1.0000
  H   H3348     1.0  0.61338  0.02376  0.18289  1.0000
  H   H3349     1.0  0.57471  0.10249  0.99759  1.0000
  Fe  Fe296     1.0  0.59324  0.00427  0.16713  1.0000
  S   S580      1.0  0.50902  0.11295  0.00253  1.0000
  H   H3350     1.0  0.52699  0.02365  0.14732  1.0000
  H   H3351     1.0  0.50522  0.05173  0.10168  1.0000
  C   C4201     1.0  0.59074  0.01034  0.19713  1.0000
  Fe  Fe297     1.0  0.57169  0.99543  0.16919  1.0000
  H   H3352     1.0  0.51625  0.00671  0.19964  1.0000
  S   S581      1.0  0.60587  0.00728  0.17584  1.0000
  C   C4202     1.0  0.53141  0.01469  0.14668  1.0000
  C   C4203     1.0  0.50058  0.03229  0.14880  1.0000
  H   H3353     1.0  0.51334  0.18559  0.09091  1.0000
  H   H3354     1.0  0.50843  0.10898  0.05821  1.0000
  Fe  Fe298     1.0  0.59737  0.15867  0.99385  1.0000
  H   H3355     1.0  0.49920  0.18077  0.05807  1.0000
  H   H3356     1.0  0.50260  0.10183  0.07976  1.0000
  C   C4204     1.0  0.50717  0.17451  0.05993  1.0000
  H   H3357     1.0  0.50082  0.10247  0.04487  1.0000
  C   C4205     1.0  0.51307  0.23321  0.00729  1.0000
  H   H3358     1.0  0.57964  0.00545  0.10711  1.0000
  H   H3359     1.0  0.54704  0.14029  0.99867  1.0000
  C   C4206     1.0  0.51001  0.22625  0.00174  1.0000
  S   S582      1.0  0.58004  0.23315  0.01376  1.0000
  C   C4207     1.0  0.54894  0.00061  0.14009  1.0000
  H   H3360     1.0  0.51502  0.21000  0.99590  1.0000
  H   H3361     1.0  0.50218  0.02503  0.22064  1.0000
  C   C4208     1.0  0.60306  0.00162  0.09102  1.0000
  H   H3362     1.0  0.60616  0.00924  0.08537  1.0000
  C   C4209     1.0  0.54353  0.99971  0.18232  1.0000
  H   H3363     1.0  0.56192  0.99421  0.08497  1.0000
  C   C4210     1.0  0.54250  0.04451  0.23364  1.0000
  C   C4211     1.0  0.57661  0.11048  0.99158  1.0000
  H   H3364     1.0  0.50192  0.22930  0.99860  1.0000
  Fe  Fe299     1.0  0.58130  0.02022  0.23760  1.0000
  C   C4212     1.0  0.50149  0.03213  0.13714  1.0000
  H   H3365     1.0  0.56730  0.23828  0.99238  1.0000
  C   C4213     1.0  0.50158  0.21464  0.05554  1.0000
  H   H3366     1.0  0.49983  0.06284  0.08287  1.0000
  H   H3367     1.0  0.50379  0.06206  0.05477  1.0000
  C   C4214     1.0  0.50546  0.13358  0.05417  1.0000
  C   C4215     1.0  0.50008  0.99819  0.13288  1.0000
  H   H3368     1.0  0.53761  0.99891  0.23402  1.0000
  C   C4216     1.0  0.50138  0.13340  0.06617  1.0000
  C   C4217     1.0  0.56492  0.00119  0.06646  1.0000
  C   C4218     1.0  0.58458  0.99517  0.05518  1.0000
  C   C4219     1.0  0.59700  0.99590  0.08700  1.0000
  H   H3369     1.0  0.50083  0.13450  0.03808  1.0000
  C   C4220     1.0  0.56836  0.99428  0.07674  1.0000
  C   C4221     1.0  0.50262  0.10296  0.06181  1.0000
  C   C4222     1.0  0.60481  0.99776  0.10248  1.0000
  C   C4223     1.0  0.49772  0.13396  0.04747  1.0000
  H   H3370     1.0  0.49770  0.18594  0.10903  1.0000
  H   H3371     1.0  0.59084  0.99553  0.04682  1.0000
  Fe  Fe300     1.0  0.49859  0.16762  0.03019  1.0000
  C   C4224     1.0  0.49933  0.09892  0.07392  1.0000
  C   C4225     1.0  0.50130  0.19298  0.07926  1.0000
  C   C4226     1.0  0.49847  0.09916  0.05426  1.0000
  H   H3372     1.0  0.62593  0.23654  0.02762  1.0000
  C   C4227     1.0  0.63597  0.24246  0.01031  1.0000
  H   H3373     1.0  0.56875  0.99271  0.10597  1.0000
  H   H3374     1.0  0.52140  0.99427  0.17441  1.0000
  C   C4228     1.0  0.51022  0.99316  0.13734  1.0000
  C   C4229     1.0  0.49618  0.05625  0.10151  1.0000
  H   H3375     1.0  0.49595  0.12429  0.02351  1.0000
  H   H3376     1.0  0.50749  0.24178  0.00818  1.0000
  C   C4230     1.0  0.63384  0.99459  0.45528  1.0000
  H   H3377     1.0  0.85189  0.09339  0.46873  1.0000
  H   H3378     1.0  0.92239  0.14895  0.42991  1.0000
  H   H3379     1.0  0.97778  0.18008  0.42639  1.0000
  H   H3380     1.0  0.95908  0.18109  0.44110  1.0000
  C   C4231     1.0  0.53362  0.00989  0.26006  1.0000
  C   C4232     1.0  0.58638  0.00392  0.30395  1.0000
  H   H3381     1.0  0.59637  0.04235  0.27196  1.0000
  H   H3382     1.0  0.52315  0.99942  0.25782  1.0000
  H   H3383     1.0  0.55149  0.00209  0.30365  1.0000
  H   H3384     1.0  0.54447  0.05099  0.24757  1.0000
  H   H3385     1.0  0.92351  0.17892  0.48703  1.0000
  H   H3386     1.0  0.58781  0.01267  0.41822  1.0000
  C   C4233     1.0  0.73270  0.00465  0.39242  1.0000
  C   C4234     1.0  0.91653  0.20318  0.44615  1.0000
  S   S583      1.0  0.90091  0.19646  0.48820  1.0000
  H   H3387     1.0  0.96899  0.20390  0.44113  1.0000
  H   H3388     1.0  0.73440  0.00242  0.42207  1.0000
  C   C4235     1.0  0.58999  0.02099  0.41339  1.0000
  Fe  Fe301     1.0  0.72750  0.04377  0.42123  1.0000
  S   S584      1.0  0.72490  0.03569  0.44039  1.0000
  S   S585      1.0  0.73530  0.05961  0.41336  1.0000
  Fe  Fe302     1.0  0.71422  0.02843  0.41635  1.0000
  S   S586      1.0  0.71037  0.01908  0.43515  1.0000
  S   S587      1.0  0.70847  0.02510  0.40169  1.0000
  Fe  Fe303     1.0  0.70659  0.03675  0.43927  1.0000
  S   S588      1.0  0.69172  0.04257  0.45358  1.0000
  Fe  Fe304     1.0  0.72893  0.01874  0.43468  1.0000
  S   S589      1.0  0.73883  0.00213  0.44428  1.0000
  S   S590      1.0  0.70870  0.04630  0.42050  1.0000
  S   S591      1.0  0.73336  0.02667  0.41539  1.0000
  Fe  Fe305     1.0  0.81893  0.04806  0.43539  1.0000
  S   S592      1.0  0.82261  0.02856  0.43738  1.0000
  S   S593      1.0  0.83050  0.05879  0.43708  1.0000
  Fe  Fe306     1.0  0.79468  0.05183  0.43006  1.0000
  S   S594      1.0  0.79650  0.03272  0.43127  1.0000
  S   S595      1.0  0.77887  0.06641  0.42719  1.0000
  Fe  Fe307     1.0  0.80375  0.03027  0.44703  1.0000
  S   S596      1.0  0.79809  0.01853  0.46428  1.0000
  Fe  Fe308     1.0  0.81513  0.03290  0.42143  1.0000
  S   S597      1.0  0.82420  0.02595  0.40508  1.0000
  S   S598      1.0  0.80074  0.04939  0.44644  1.0000
  S   S599      1.0  0.81267  0.05238  0.41875  1.0000
  C   C4236     1.0  0.98317  0.10444  0.41061  1.0000
  C   C4237     1.0  0.50000  0.04382  0.34562  1.0000
  H   H3389     1.0  0.94631  0.09255  0.45370  1.0000
  C   C4238     1.0  0.91674  0.01708  0.48453  1.0000
  C   C4239     1.0  0.82737  0.00252  0.41643  1.0000
  Fe  Fe309     1.0  0.87261  0.04344  0.47988  1.0000
  C   C4240     1.0  0.88130  0.99375  0.43653  1.0000
  S   S600      1.0  0.86890  0.03503  0.46734  1.0000
  H   H3390     1.0  0.99027  0.22618  0.48348  1.0000
  C   C4241     1.0  0.83356  0.04826  0.48550  1.0000
  S   S601      1.0  0.89577  0.07379  0.47623  1.0000
  H   H3391     1.0  0.84583  0.08314  0.48942  1.0000
  H   H3392     1.0  0.90838  0.00281  0.48824  1.0000
  C   C4242     1.0  0.75203  0.00193  0.48203  1.0000
  H   H3393     1.0  0.92832  0.20822  0.42974  1.0000
  H   H3394     1.0  0.60216  0.99607  0.27742  1.0000
  P   P139      1.0  0.98637  0.09989  0.44428  1.0000
  H   H3395     1.0  0.69699  0.11226  0.48121  1.0000
  H   H3396     1.0  0.90286  0.01956  0.41828  1.0000
  H   H3397     1.0  0.50092  0.03416  0.25269  1.0000
  C   C4243     1.0  0.99121  0.22863  0.41216  1.0000
  C   C4244     1.0  0.52313  0.00664  0.26134  1.0000
  H   H3398     1.0  0.80158  0.00611  0.43798  1.0000
  C   C4245     1.0  0.69678  0.09600  0.42855  1.0000
  H   H3399     1.0  0.52258  0.03331  0.27310  1.0000
  S   S602      1.0  0.57224  0.02859  0.27807  1.0000
  C   C4246     1.0  0.80208  0.07402  0.45313  1.0000
  C   C4247     1.0  0.79905  0.05017  0.39596  1.0000
  C   C4248     1.0  0.91408  0.19408  0.45575  1.0000
  H   H3400     1.0  0.90550  0.09381  0.47260  1.0000
  H   H3401     1.0  0.73777  0.04063  0.47203  1.0000
  H   H3402     1.0  0.81309  0.01155  0.39297  1.0000
  H   H3403     1.0  0.77613  0.07990  0.47263  1.0000
  C   C4249     1.0  0.88474  0.00879  0.47922  1.0000
  C   C4250     1.0  0.68343  0.07023  0.46787  1.0000
  C   C4251     1.0  0.83888  0.03638  0.48600  1.0000
  P   P140      1.0  0.62404  0.99601  0.28341  1.0000
  H   H3404     1.0  0.76686  0.00903  0.45369  1.0000
  C   C4252     1.0  0.66789  0.06587  0.48502  1.0000
  C   C4253     1.0  0.79213  0.02742  0.47455  1.0000
  C   C4254     1.0  0.78517  0.03867  0.47157  1.0000
  C   C4255     1.0  0.78208  0.04649  0.47906  1.0000
  C   C4256     1.0  0.95510  0.16612  0.43790  1.0000
  C   C4257     1.0  0.98455  0.16232  0.47480  1.0000
  H   H3405     1.0  0.92799  0.15722  0.48848  1.0000
  H   H3406     1.0  0.78236  0.04140  0.46337  1.0000
  H   H3407     1.0  0.77717  0.05536  0.47651  1.0000
  H   H3408     1.0  0.60131  0.03488  0.29152  1.0000
  H   H3409     1.0  0.93456  0.16195  0.43021  1.0000
  C   C4258     1.0  0.84007  0.05218  0.44674  1.0000
  C   C4259     1.0  0.84546  0.05921  0.44996  1.0000
  C   C4260     1.0  0.85387  0.05408  0.45687  1.0000
  C   C4261     1.0  0.85721  0.04187  0.46022  1.0000
  C   C4262     1.0  0.85168  0.03485  0.45718  1.0000
  C   C4263     1.0  0.84291  0.04000  0.45070  1.0000
  H   H3410     1.0  0.84328  0.06864  0.44690  1.0000
  H   H3411     1.0  0.85812  0.05955  0.45916  1.0000
  H   H3412     1.0  0.85424  0.02539  0.45977  1.0000
  H   H3413     1.0  0.83878  0.03453  0.44828  1.0000
  C   C4264     1.0  0.82964  0.01082  0.40595  1.0000
  C   C4265     1.0  0.83574  0.00706  0.39556  1.0000
  H   H3414     1.0  0.82277  0.00540  0.42450  1.0000
  H   H3415     1.0  0.83756  0.01344  0.38747  1.0000
  C   C4266     1.0  0.74717  0.06077  0.41817  1.0000
  C   C4267     1.0  0.75506  0.05093  0.42299  1.0000
  C   C4268     1.0  0.76493  0.05242  0.42587  1.0000
  C   C4269     1.0  0.76669  0.06375  0.42413  1.0000
  C   C4270     1.0  0.75855  0.07348  0.41968  1.0000
  C   C4271     1.0  0.74896  0.07199  0.41656  1.0000
  H   H3416     1.0  0.75373  0.04221  0.42423  1.0000
  H   H3417     1.0  0.77114  0.04487  0.42939  1.0000
  H   H3418     1.0  0.75985  0.08223  0.41834  1.0000
  H   H3419     1.0  0.74291  0.07960  0.41282  1.0000
  C   C4272     1.0  0.67786  0.00698  0.41089  1.0000
  C   C4273     1.0  0.68245  0.01194  0.39922  1.0000
  C   C4274     1.0  0.69224  0.01694  0.39642  1.0000
  C   C4275     1.0  0.69739  0.01718  0.40529  1.0000
  C   C4276     1.0  0.69325  0.01159  0.41684  1.0000
  C   C4277     1.0  0.68348  0.00657  0.41963  1.0000
  H   H3420     1.0  0.88068  0.09869  0.48960  1.0000
  H   H3421     1.0  0.69545  0.02117  0.38745  1.0000
  H   H3422     1.0  0.69721  0.01157  0.42372  1.0000
  C   C4278     1.0  0.70255  0.99376  0.36462  1.0000
  C   C4279     1.0  0.57751  0.02819  0.29850  1.0000
  H   H3423     1.0  0.57417  0.03759  0.29642  1.0000
  C   C4280     1.0  0.51229  0.02237  0.27142  1.0000
  H   H3424     1.0  0.95001  0.14445  0.46492  1.0000
  H   H3425     1.0  0.91086  0.21189  0.44575  1.0000
  C   C4281     1.0  0.54337  0.02000  0.29735  1.0000
  C   C4282     1.0  0.97252  0.09205  0.46609  1.0000
  H   H3426     1.0  0.90644  0.19567  0.46278  1.0000
  S   S603      1.0  0.56440  0.02599  0.25003  1.0000
  C   C4283     1.0  0.89473  0.01313  0.44809  1.0000
  C   C4284     1.0  0.60591  0.02654  0.26587  1.0000
  P   P141      1.0  0.77697  0.03266  0.39162  1.0000
  H   H3427     1.0  0.81902  0.06811  0.45738  1.0000
  C   C4285     1.0  0.97346  0.09513  0.45391  1.0000
  H   H3428     1.0  0.77449  0.07222  0.39688  1.0000
  C   C4286     1.0  0.80961  0.00371  0.39601  1.0000
  S   S604      1.0  0.93750  0.22659  0.47111  1.0000
  C   C4287     1.0  0.54338  0.00811  0.30192  1.0000
  H   H3429     1.0  0.76413  0.00418  0.43699  1.0000
  H   H3430     1.0  0.67343  0.02483  0.47669  1.0000
  C   C4288     1.0  0.63538  0.99304  0.27066  1.0000
  H   H3431     1.0  0.50042  0.06155  0.34507  1.0000
  C   C4289     1.0  0.70904  0.01945  0.47736  1.0000
  C   C4290     1.0  0.70526  0.02506  0.46693  1.0000
  C   C4291     1.0  0.69542  0.03443  0.46688  1.0000
  C   C4292     1.0  0.68893  0.03763  0.47742  1.0000
  H   H3432     1.0  0.81969  0.99637  0.38110  1.0000
  H   H3433     1.0  0.71672  0.01230  0.47734  1.0000
  H   H3434     1.0  0.71006  0.02218  0.45893  1.0000
  H   H3435     1.0  0.68113  0.04460  0.47747  1.0000
  C   C4293     1.0  0.60961  0.00007  0.42670  1.0000
  H   H3436     1.0  0.99301  0.07555  0.45704  1.0000
  H   H3437     1.0  0.75277  0.99568  0.49025  1.0000
  C   C4294     1.0  0.98808  0.09764  0.42978  1.0000
  C   C4295     1.0  0.96229  0.08911  0.47371  1.0000
  H   H3438     1.0  0.74634  0.01277  0.38049  1.0000
  C   C4296     1.0  0.97715  0.22048  0.45503  1.0000
  C   C4297     1.0  0.98529  0.22154  0.46055  1.0000
  H   H3439     1.0  0.96158  0.08687  0.48312  1.0000
  C   C4298     1.0  0.70487  0.99750  0.46261  1.0000
  C   C4299     1.0  0.69412  0.00218  0.45920  1.0000
  H   H3440     1.0  0.98333  0.17179  0.47191  1.0000
  C   C4300     1.0  0.52274  0.02579  0.26995  1.0000
  H   H3441     1.0  0.80028  0.03296  0.39382  1.0000
  C   C4301     1.0  0.80182  0.00193  0.40686  1.0000
  H   H3442     1.0  0.95472  0.15026  0.43331  1.0000
  H   H3443     1.0  0.63851  0.01060  0.26527  1.0000
  H   H3444     1.0  0.67813  0.09297  0.47144  1.0000
  H   H3445     1.0  0.79956  0.00827  0.41233  1.0000
  C   C4302     1.0  0.98796  0.13792  0.48220  1.0000
  C   C4303     1.0  0.80974  0.07136  0.46064  1.0000
  C   C4304     1.0  0.74189  0.07706  0.47387  1.0000
  H   H3446     1.0  0.77304  0.03859  0.36761  1.0000
  H   H3447     1.0  0.78404  0.07878  0.45167  1.0000
  C   C4305     1.0  0.89393  0.01815  0.43644  1.0000
  H   H3448     1.0  0.73572  0.05205  0.37317  1.0000
  C   C4306     1.0  0.95238  0.17001  0.47665  1.0000
  H   H3449     1.0  0.98663  0.21551  0.46875  1.0000
  H   H3450     1.0  0.71811  0.03918  0.48489  1.0000
  H   H3451     1.0  0.88722  0.01548  0.45501  1.0000
  H   H3452     1.0  0.88591  0.02424  0.43456  1.0000
  C   C4307     1.0  0.64423  0.03638  0.48493  1.0000
  H   H3453     1.0  0.70003  0.07259  0.48961  1.0000
  C   C4308     1.0  0.64098  0.00194  0.26333  1.0000
  Fe  Fe310     1.0  0.91471  0.20700  0.48262  1.0000
  C   C4309     1.0  0.93185  0.18095  0.44762  1.0000
  C   C4310     1.0  0.60190  0.03368  0.27405  1.0000
  C   C4311     1.0  0.99059  0.09428  0.40721  1.0000
  C   C4312     1.0  0.74598  0.08067  0.46176  1.0000
  H   H3454     1.0  0.71590  0.09982  0.47295  1.0000
  H   H3455     1.0  0.54907  0.01327  0.33987  1.0000
  C   C4313     1.0  0.90902  0.08711  0.47946  1.0000
  C   C4314     1.0  0.92643  0.20112  0.43714  1.0000
  S   S605      1.0  0.95763  0.19734  0.48284  1.0000
  C   C4315     1.0  0.94571  0.22208  0.42291  1.0000
  C   C4316     1.0  0.70341  0.07203  0.43825  1.0000
  S   S606      1.0  0.66375  0.00396  0.41489  1.0000
  H   H3456     1.0  0.83837  0.05381  0.48683  1.0000
  P   P142      1.0  0.85825  0.99882  0.43425  1.0000
  H   H3457     1.0  0.96424  0.09794  0.44016  1.0000
  C   C4317     1.0  0.79321  0.07555  0.47662  1.0000
  H   H3458     1.0  0.69418  0.10526  0.42478  1.0000
  H   H3459     1.0  0.91973  0.17604  0.46399  1.0000
  C   C4318     1.0  0.52259  0.02419  0.29784  1.0000
  C   C4319     1.0  0.67023  0.01836  0.44860  1.0000
  C   C4320     1.0  0.66178  0.01882  0.44256  1.0000
  C   C4321     1.0  0.66185  0.02591  0.43131  1.0000
  C   C4322     1.0  0.67020  0.03275  0.42612  1.0000
  C   C4323     1.0  0.67839  0.03261  0.43224  1.0000
  C   C4324     1.0  0.67836  0.02548  0.44346  1.0000
  C   C4325     1.0  0.65633  0.03419  0.48405  1.0000
  C   C4326     1.0  0.99216  0.23887  0.41459  1.0000
  H   H3460     1.0  0.92329  0.99795  0.44326  1.0000
  H   H3461     1.0  0.92469  0.03200  0.47834  1.0000
  H   H3462     1.0  0.81411  0.99555  0.46576  1.0000
  C   C4327     1.0  0.93095  0.15645  0.43834  1.0000
  C   C4328     1.0  0.92147  0.02579  0.47589  1.0000
  H   H3463     1.0  0.52317  0.05465  0.25684  1.0000
  H   H3464     1.0  0.71702  0.99623  0.36965  1.0000
  H   H3465     1.0  0.69401  0.00414  0.44999  1.0000
  C   C4329     1.0  0.78552  0.07790  0.46917  1.0000
  C   C4330     1.0  0.97628  0.13243  0.45198  1.0000
  H   H3466     1.0  0.70341  0.09104  0.41178  1.0000
  S   S607      1.0  0.59349  0.00511  0.32338  1.0000
  C   C4331     1.0  0.92169  0.18299  0.45646  1.0000
  H   H3467     1.0  0.65514  0.01370  0.44648  1.0000
  H   H3468     1.0  0.65562  0.02585  0.42651  1.0000
  H   H3469     1.0  0.67047  0.03799  0.41729  1.0000
  H   H3470     1.0  0.68484  0.03793  0.42827  1.0000
  H   H3471     1.0  0.68461  0.02557  0.44818  1.0000
  H   H3472     1.0  0.98965  0.13789  0.46417  1.0000
  C   C4332     1.0  0.58453  0.04225  0.40895  1.0000
  C   C4333     1.0  0.83318  0.02903  0.48380  1.0000
  H   H3473     1.0  0.79218  0.99752  0.37425  1.0000
  H   H3474     1.0  0.81044  0.02543  0.35819  1.0000
  C   C4334     1.0  0.74592  0.06548  0.47969  1.0000
  H   H3475     1.0  0.88717  0.18070  0.48959  1.0000
  C   C4335     1.0  0.95685  0.21661  0.41733  1.0000
  H   H3476     1.0  0.52396  0.99739  0.28844  1.0000
  H   H3477     1.0  0.91766  0.01978  0.45183  1.0000
  C   C4336     1.0  0.78996  0.07720  0.45741  1.0000
  H   H3478     1.0  0.55144  0.02297  0.29535  1.0000
  C   C4337     1.0  0.98215  0.09369  0.49044  1.0000
  H   H3479     1.0  0.97607  0.11402  0.42439  1.0000
  C   C4338     1.0  0.77741  0.02394  0.41542  1.0000
  Fe  Fe311     1.0  0.58792  0.99726  0.25429  1.0000
  C   C4339     1.0  0.70768  0.09827  0.47262  1.0000
  H   H3480     1.0  0.71931  0.99536  0.40258  1.0000
  C   C4340     1.0  0.90497  0.18125  0.48844  1.0000
  C   C4341     1.0  0.98475  0.11530  0.44339  1.0000
  H   H3481     1.0  0.98935  0.12850  0.48481  1.0000
  C   C4342     1.0  0.78734  0.02374  0.38184  1.0000
  H   H3482     1.0  0.61287  0.01493  0.29677  1.0000
  C   C4343     1.0  0.94770  0.17248  0.46678  1.0000
  H   H3483     1.0  0.54086  0.01211  0.32396  1.0000
  C   C4344     1.0  0.95368  0.09236  0.45712  1.0000
  C   C4345     1.0  0.60588  0.00518  0.37160  1.0000
  H   H3484     1.0  0.71301  0.99629  0.45605  1.0000
  H   H3485     1.0  0.84766  0.03300  0.48761  1.0000
  C   C4346     1.0  0.68363  0.00424  0.46764  1.0000
  C   C4347     1.0  0.68400  0.00099  0.47958  1.0000
  C   C4348     1.0  0.84476  0.08890  0.47124  1.0000
  H   H3486     1.0  0.83753  0.01995  0.48373  1.0000
  C   C4349     1.0  0.92067  0.14292  0.45928  1.0000
  H   H3487     1.0  0.92841  0.15084  0.46791  1.0000
  C   C4350     1.0  0.97654  0.16504  0.42124  1.0000
  C   C4351     1.0  0.93317  0.15670  0.44898  1.0000
  C   C4352     1.0  0.53499  0.01396  0.33208  1.0000
  C   C4353     1.0  0.62578  0.00979  0.39757  1.0000
  S   S608      1.0  0.54678  0.00203  0.25279  1.0000
  H   H3488     1.0  0.88787  0.01664  0.47795  1.0000
  C   C4354     1.0  0.82234  0.05286  0.48300  1.0000
  C   C4355     1.0  0.96390  0.09537  0.44947  1.0000
  C   C4356     1.0  0.99468  0.10645  0.47755  1.0000
  H   H3489     1.0  0.96944  0.22685  0.44002  1.0000
  C   C4357     1.0  0.62972  0.01622  0.40304  1.0000
  C   C4358     1.0  0.64150  0.01694  0.39990  1.0000
  C   C4359     1.0  0.64946  0.01108  0.39147  1.0000
  C   C4360     1.0  0.66161  0.06403  0.47795  1.0000
  C   C4361     1.0  0.82669  0.07669  0.47765  1.0000
  H   H3490     1.0  0.64410  0.01796  0.46852  1.0000
  C   C4362     1.0  0.74361  0.04843  0.37660  1.0000
  C   C4363     1.0  0.53344  0.01943  0.26443  1.0000
  C   C4364     1.0  0.82910  0.00339  0.46084  1.0000
  H   H3491     1.0  0.74290  0.08961  0.45730  1.0000
  C   C4365     1.0  0.77307  0.02356  0.40602  1.0000
  H   H3492     1.0  0.59708  0.05095  0.39565  1.0000
  C   C4366     1.0  0.51523  0.01793  0.34415  1.0000
  C   C4367     1.0  0.75452  0.04543  0.36910  1.0000
  C   C4368     1.0  0.92760  0.15020  0.45949  1.0000
  H   H3493     1.0  0.61127  0.03254  0.39216  1.0000
  C   C4369     1.0  0.79785  0.99854  0.44252  1.0000
  H   H3494     1.0  0.97065  0.13636  0.45915  1.0000
  C   C4370     1.0  0.70773  0.08920  0.46764  1.0000
  C   C4371     1.0  0.60319  0.03214  0.39876  1.0000
  C   C4372     1.0  0.52259  0.01231  0.30238  1.0000
  H   H3495     1.0  0.62382  0.02035  0.40999  1.0000
  H   H3496     1.0  0.64463  0.02160  0.40438  1.0000
  H   H3497     1.0  0.65868  0.01124  0.38944  1.0000
  S   S609      1.0  0.62591  0.00436  0.47455  1.0000
  C   C4373     1.0  0.64562  0.00458  0.38608  1.0000
  C   C4374     1.0  0.75824  0.06124  0.46109  1.0000
  Fe  Fe312     1.0  0.93974  0.20775  0.48054  1.0000
  H   H3498     1.0  0.95842  0.14024  0.48226  1.0000
  C   C4375     1.0  0.79464  0.04160  0.39407  1.0000
  C   C4376     1.0  0.91224  0.00929  0.48143  1.0000
  Fe  Fe313     1.0  0.92051  0.22919  0.48439  1.0000
  C   C4377     1.0  0.98343  0.13880  0.44290  1.0000
  C   C4378     1.0  0.77571  0.05522  0.39393  1.0000
  H   H3499     1.0  0.72141  0.06494  0.48389  1.0000
  S   S610      1.0  0.97926  0.20388  0.41651  1.0000
  C   C4379     1.0  0.75301  0.04220  0.39310  1.0000
  C   C4380     1.0  0.63383  0.00393  0.38912  1.0000
  C   C4381     1.0  0.74288  0.04687  0.38858  1.0000
  P   P143      1.0  0.94165  0.16664  0.44910  1.0000
  C   C4382     1.0  0.92398  0.14918  0.43815  1.0000
  H   H3500     1.0  0.70046  0.05372  0.48022  1.0000
  H   H3501     1.0  0.72190  0.07053  0.44877  1.0000
  H   H3502     1.0  0.70592  0.06269  0.44186  1.0000
  H   H3503     1.0  0.95899  0.21749  0.40792  1.0000
  C   C4383     1.0  0.78923  0.99894  0.45289  1.0000
  C   C4384     1.0  0.76468  0.04075  0.37359  1.0000
  C   C4385     1.0  0.58194  0.03145  0.41527  1.0000
  Fe  Fe314     1.0  0.92721  0.22188  0.46123  1.0000
  H   H3504     1.0  0.75509  0.04679  0.35979  1.0000
  P   P144      1.0  0.69713  0.07498  0.46133  1.0000
  H   H3505     1.0  0.97320  0.14978  0.41832  1.0000
  C   C4386     1.0  0.69857  0.08004  0.44566  1.0000
  C   C4387     1.0  0.84136  0.08314  0.48287  1.0000
  P   P145      1.0  0.90661  0.99987  0.46578  1.0000
  H   H3506     1.0  0.73944  0.05591  0.45363  1.0000
  H   H3507     1.0  0.65627  0.99448  0.30162  1.0000
  C   C4388     1.0  0.96527  0.21013  0.42387  1.0000
  H   H3508     1.0  0.80557  0.07316  0.44409  1.0000
  H   H3509     1.0  0.76654  0.05727  0.39359  1.0000
  C   C4389     1.0  0.58225  0.02301  0.30847  1.0000
  S   S611      1.0  0.57158  0.00063  0.26821  1.0000
  H   H3510     1.0  0.60869  0.00879  0.36233  1.0000
  C   C4390     1.0  0.83995  0.00416  0.45310  1.0000
  H   H3511     1.0  0.68054  0.06890  0.45154  1.0000
  C   C4391     1.0  0.57752  0.02137  0.29095  1.0000
  H   H3512     1.0  0.75748  0.07554  0.44601  1.0000
  H   H3513     1.0  0.80792  0.04864  0.47907  1.0000
  H   H3514     1.0  0.51458  0.03035  0.29603  1.0000
  C   C4392     1.0  0.59512  0.04258  0.40066  1.0000
  Fe  Fe315     1.0  0.57489  0.01866  0.26407  1.0000
  H   H3515     1.0  0.77923  0.00876  0.38873  1.0000
  C   C4393     1.0  0.91254  0.01001  0.46966  1.0000
  H   H3516     1.0  0.73445  0.04936  0.39438  1.0000
  C   C4394     1.0  0.51250  0.01278  0.26713  1.0000
  C   C4395     1.0  0.59879  0.99558  0.39548  1.0000
  H   H3517     1.0  0.65492  0.99751  0.48349  1.0000
  C   C4396     1.0  0.76395  0.03890  0.38568  1.0000
  S   S612      1.0  0.93116  0.20269  0.46925  1.0000
  C   C4397     1.0  0.91740  0.01878  0.46099  1.0000
  H   H3518     1.0  0.75229  0.04120  0.40239  1.0000
  H   H3519     1.0  0.78635  0.00686  0.45628  1.0000
  H   H3520     1.0  0.58252  0.02846  0.31401  1.0000
  C   C4398     1.0  0.95935  0.15713  0.43158  1.0000
  C   C4399     1.0  0.70886  0.05433  0.47430  1.0000
  C   C4400     1.0  0.72089  0.06373  0.45668  1.0000
  C   C4401     1.0  0.83904  0.08874  0.46283  1.0000
  H   H3521     1.0  0.86746  0.01618  0.48830  1.0000
  C   C4402     1.0  0.60466  0.02945  0.28507  1.0000
  C   C4403     1.0  0.61528  0.01075  0.27987  1.0000
  C   C4404     1.0  0.70975  0.06328  0.46413  1.0000
  C   C4405     1.0  0.66407  0.02616  0.47754  1.0000
  C   C4406     1.0  0.97687  0.12076  0.45221  1.0000
  C   C4407     1.0  0.51996  0.01890  0.35304  1.0000
  C   C4408     1.0  0.96192  0.17429  0.43607  1.0000
  H   H3522     1.0  0.57829  0.05035  0.41041  1.0000
  C   C4409     1.0  0.69703  0.10528  0.47728  1.0000
  H   H3523     1.0  0.67990  0.00292  0.42867  1.0000
  C   C4410     1.0  0.98803  0.14325  0.47044  1.0000
  S   S613      1.0  0.92908  0.22828  0.44187  1.0000
  H   H3524     1.0  0.98317  0.14777  0.44293  1.0000
  C   C4411     1.0  0.80215  0.01074  0.36529  1.0000
  C   C4412     1.0  0.79330  0.00614  0.37389  1.0000
  C   C4413     1.0  0.98343  0.10480  0.48366  1.0000
  H   H3525     1.0  0.50787  0.00264  0.36559  1.0000
  S   S614      1.0  0.93895  0.11488  0.48485  1.0000
  C   C4414     1.0  0.66392  0.99721  0.46552  1.0000
  H   H3526     1.0  0.80791  0.00570  0.35895  1.0000
  C   C4415     1.0  0.79520  0.02368  0.48542  1.0000
  C   C4416     1.0  0.64235  0.99500  0.29363  1.0000
  H   H3527     1.0  0.94530  0.18152  0.46225  1.0000
  H   H3528     1.0  0.57367  0.03118  0.42160  1.0000
  Fe  Fe316     1.0  0.88599  0.05903  0.48436  1.0000
  C   C4417     1.0  0.99180  0.12181  0.43415  1.0000
  C   C4418     1.0  0.52638  0.05110  0.24900  1.0000
  P   P146      1.0  0.81545  0.06828  0.48208  1.0000
  H   H3529     1.0  0.92156  0.00640  0.42271  1.0000
  S   S615      1.0  0.59209  0.01472  0.25124  1.0000
  C   C4419     1.0  0.80544  0.07246  0.47234  1.0000
  C   C4420     1.0  0.76146  0.00152  0.47219  1.0000
  C   C4421     1.0  0.98190  0.10612  0.42186  1.0000
  C   C4422     1.0  0.99031  0.23765  0.44458  1.0000
  C   C4423     1.0  0.73996  0.01756  0.47041  1.0000
  C   C4424     1.0  0.74931  0.01736  0.46065  1.0000
  C   C4425     1.0  0.76000  0.00936  0.46151  1.0000
  H   H3530     1.0  0.50864  0.04220  0.33990  1.0000
  H   H3531     1.0  0.63115  0.99846  0.38520  1.0000
  C   C4426     1.0  0.95134  0.21445  0.44163  1.0000
  C   C4427     1.0  0.87309  0.00858  0.48507  1.0000
  C   C4428     1.0  0.94297  0.22112  0.43505  1.0000
  H   H3532     1.0  0.68344  0.07025  0.48569  1.0000
  S   S616      1.0  0.90992  0.22597  0.47372  1.0000
  C   C4429     1.0  0.69511  0.09205  0.44074  1.0000
  S   S617      1.0  0.99046  0.18179  0.44400  1.0000
  H   H3533     1.0  0.80803  0.04814  0.39696  1.0000
  C   C4430     1.0  0.95521  0.14924  0.47805  1.0000
  C   C4431     1.0  0.53963  0.01464  0.34107  1.0000
  C   C4432     1.0  0.79180  0.06121  0.39693  1.0000
  H   H3534     1.0  0.73156  0.02346  0.46955  1.0000
  H   H3535     1.0  0.74810  0.02308  0.45227  1.0000
  S   S618      1.0  0.89139  0.04075  0.48097  1.0000
  C   C4433     1.0  0.83895  0.99510  0.39544  1.0000
  C   C4434     1.0  0.81320  0.99522  0.38927  1.0000
  C   C4435     1.0  0.77427  0.01693  0.42654  1.0000
  C   C4436     1.0  0.53300  0.02802  0.29523  1.0000
  C   C4437     1.0  0.91908  0.16235  0.48881  1.0000
  C   C4438     1.0  0.82999  0.08274  0.46602  1.0000
  H   H3536     1.0  0.75627  0.00366  0.42061  1.0000
  S   S619      1.0  0.49893  0.03016  0.27844  1.0000
  H   H3537     1.0  0.91651  0.13784  0.46744  1.0000
  C   C4439     1.0  0.60079  0.02128  0.40533  1.0000
  C   C4440     1.0  0.98629  0.15542  0.46674  1.0000
  H   H3538     1.0  0.94492  0.08702  0.47518  1.0000
  H   H3539     1.0  0.61488  0.01489  0.37696  1.0000
  C   C4441     1.0  0.68642  0.10332  0.47681  1.0000
  C   C4442     1.0  0.97552  0.22805  0.44433  1.0000
  H   H3540     1.0  0.67598  0.00219  0.48628  1.0000
  C   C4443     1.0  0.74417  0.99858  0.37449  1.0000
  C   C4444     1.0  0.74157  0.00596  0.38229  1.0000
  P   P147      1.0  0.49946  0.02098  0.34591  1.0000
  C   C4445     1.0  0.85717  0.01436  0.42837  1.0000
  C   C4446     1.0  0.86304  0.02060  0.43207  1.0000
  C   C4447     1.0  0.86154  0.03277  0.42799  1.0000
  C   C4448     1.0  0.85396  0.03883  0.42045  1.0000
  C   C4449     1.0  0.84792  0.03272  0.41691  1.0000
  C   C4450     1.0  0.84940  0.02057  0.42098  1.0000
  H   H3541     1.0  0.51423  0.02109  0.36111  1.0000
  H   H3542     1.0  0.63050  0.03213  0.48003  1.0000
  H   H3543     1.0  0.50447  0.01015  0.26815  1.0000
  H   H3544     1.0  0.54151  0.02199  0.26348  1.0000
  H   H3545     1.0  0.94931  0.21367  0.45101  1.0000
  C   C4451     1.0  0.64761  0.02241  0.47286  1.0000
  C   C4452     1.0  0.53303  0.00414  0.30421  1.0000
  S   S620      1.0  0.97127  0.11681  0.48254  1.0000
  H   H3546     1.0  0.67810  0.01246  0.39242  1.0000
  H   H3547     1.0  0.84481  0.01003  0.45382  1.0000
  H   H3548     1.0  0.86055  0.00486  0.40822  1.0000
  H   H3549     1.0  0.67816  0.10881  0.48035  1.0000
  C   C4453     1.0  0.96992  0.15674  0.42313  1.0000
  C   C4454     1.0  0.60944  0.00852  0.37991  1.0000
  Fe  Fe317     1.0  0.56266  0.00750  0.25311  1.0000
  H   H3550     1.0  0.86836  0.01623  0.43848  1.0000
  H   H3551     1.0  0.86573  0.03764  0.43119  1.0000
  H   H3552     1.0  0.85236  0.04832  0.41776  1.0000
  H   H3553     1.0  0.84171  0.03745  0.41139  1.0000
  H   H3554     1.0  0.84413  0.01611  0.41866  1.0000
  C   C4455     1.0  0.53212  0.01712  0.35155  1.0000
  H   H3555     1.0  0.75579  0.07795  0.48870  1.0000
  H   H3556     1.0  0.65185  0.99963  0.37988  1.0000
  C   C4456     1.0  0.78018  0.06375  0.39583  1.0000
  C   C4457     1.0  0.70193  0.08801  0.42123  1.0000
  C   C4458     1.0  0.90352  0.01560  0.42729  1.0000
  C   C4459     1.0  0.95615  0.15840  0.48227  1.0000
  C   C4460     1.0  0.93408  0.19004  0.43783  1.0000
  C   C4461     1.0  0.95288  0.08924  0.46923  1.0000
  C   C4462     1.0  0.81657  0.04535  0.48101  1.0000
  C   C4463     1.0  0.75410  0.05758  0.47317  1.0000
  H   H3557     1.0  0.60781  0.00921  0.42704  1.0000
  C   C4464     1.0  0.78294  0.04408  0.39298  1.0000
  C   C4465     1.0  0.92179  0.02665  0.46412  1.0000
  H   H3558     1.0  0.97229  0.21360  0.45896  1.0000
  C   C4466     1.0  0.67875  0.06892  0.48002  1.0000
  C   C4467     1.0  0.90522  0.00554  0.45070  1.0000
  C   C4468     1.0  0.98458  0.15700  0.48657  1.0000
  C   C4469     1.0  0.96250  0.20893  0.43604  1.0000
  H   H3559     1.0  0.79509  0.06769  0.39885  1.0000
  H   H3560     1.0  0.50932  0.05020  0.24843  1.0000
  H   H3561     1.0  0.71609  0.08389  0.46411  1.0000
  C   C4470     1.0  0.53837  0.04907  0.24377  1.0000
  C   C4471     1.0  0.61130  0.99679  0.41604  1.0000
  H   H3562     1.0  0.91347  0.13672  0.44851  1.0000
  C   C4472     1.0  0.76533  0.01625  0.40803  1.0000
  C   C4473     1.0  0.58679  0.01089  0.31122  1.0000
  H   H3563     1.0  0.94170  0.18872  0.43075  1.0000
  H   H3564     1.0  0.76145  0.01610  0.40109  1.0000
  C   C4474     1.0  0.72995  0.04683  0.46975  1.0000
  C   C4475     1.0  0.61124  0.01802  0.28803  1.0000
  P   P148      1.0  0.61092  0.00778  0.40259  1.0000
  H   H3565     1.0  0.97139  0.11597  0.45948  1.0000
  C   C4476     1.0  0.61254  0.01512  0.26876  1.0000
  H   H3566     1.0  0.73074  0.01032  0.39851  1.0000
  C   C4477     1.0  0.76228  0.00922  0.41912  1.0000
  C   C4478     1.0  0.72627  0.99608  0.39474  1.0000
  C   C4479     1.0  0.91494  0.00330  0.44145  1.0000
  H   H3567     1.0  0.82550  0.00876  0.46735  1.0000
  C   C4480     1.0  0.58178  0.00918  0.29379  1.0000
  H   H3568     1.0  0.64796  0.99572  0.28493  1.0000
  C   C4481     1.0  0.73091  0.05551  0.45947  1.0000
  H   H3569     1.0  0.98489  0.16460  0.41494  1.0000
  C   C4482     1.0  0.86217  0.99547  0.41131  1.0000
  C   C4483     1.0  0.80360  0.02183  0.36489  1.0000
  H   H3570     1.0  0.73565  0.08332  0.47873  1.0000
  C   C4484     1.0  0.71891  0.04609  0.47704  1.0000
  H   H3571     1.0  0.69119  0.09838  0.44625  1.0000
  C   C4485     1.0  0.97255  0.17376  0.42775  1.0000
  C   C4486     1.0  0.52285  0.01549  0.33362  1.0000
  H   H3572     1.0  0.70933  0.06990  0.42037  1.0000
  H   H3573     1.0  0.82575  0.08283  0.45932  1.0000
  Fe  Fe318     1.0  0.99272  0.19561  0.42757  1.0000
  C   C4487     1.0  0.68644  0.09426  0.47182  1.0000
  C   C4488     1.0  0.91404  0.00818  0.42980  1.0000
  C   C4489     1.0  0.69710  0.08697  0.46740  1.0000
  H   H3574     1.0  0.51951  0.01480  0.32656  1.0000
  C   C4490     1.0  0.74133  0.00996  0.48114  1.0000
  H   H3575     1.0  0.51447  0.00947  0.30424  1.0000
  C   C4491     1.0  0.75418  0.07276  0.45538  1.0000
  C   C4492     1.0  0.98189  0.23688  0.43916  1.0000
  C   C4493     1.0  0.79615  0.02837  0.37303  1.0000
  C   C4494     1.0  0.70309  0.02329  0.48770  1.0000
  H   H3576     1.0  0.76467  0.05517  0.45609  1.0000
  C   C4495     1.0  0.63988  0.03054  0.47927  1.0000
  H   H3577     1.0  0.78313  0.02970  0.41432  1.0000
  H   H3578     1.0  0.98335  0.22528  0.41618  1.0000
  H   H3579     1.0  0.84171  0.09316  0.45378  1.0000
  H   H3580     1.0  0.81766  0.02791  0.47938  1.0000
  C   C4496     1.0  0.69474  0.99616  0.48297  1.0000
  C   C4497     1.0  0.78597  0.01256  0.38218  1.0000
  H   H3581     1.0  0.79717  0.03711  0.37229  1.0000
  H   H3582     1.0  0.53574  0.01772  0.35848  1.0000
  H   H3583     1.0  0.77758  0.01738  0.43374  1.0000
  C   C4498     1.0  0.76673  0.00953  0.42837  1.0000
  C   C4499     1.0  0.67707  0.06830  0.46086  1.0000
  C   C4500     1.0  0.51854  0.04835  0.24427  1.0000
  C   C4501     1.0  0.94655  0.16334  0.46256  1.0000
  H   H3584     1.0  0.75744  0.04861  0.47733  1.0000
  H   H3585     1.0  0.97840  0.11104  0.40453  1.0000
  H   H3586     1.0  0.97966  0.09210  0.46968  1.0000
  C   C4502     1.0  0.66625  0.06515  0.46589  1.0000
  C   C4503     1.0  0.70522  0.07605  0.42608  1.0000
  H   H3587     1.0  0.53309  0.03718  0.29146  1.0000
  H   H3588     1.0  0.59634  0.99413  0.36876  1.0000
  P   P149      1.0  0.66966  0.00990  0.46341  1.0000
  C   C4504     1.0  0.91892  0.14233  0.44861  1.0000
  H   H3589     1.0  0.93924  0.22713  0.41782  1.0000
  H   H3590     1.0  0.60360  0.02981  0.25740  1.0000
  H   H3591     1.0  0.66160  0.06331  0.46046  1.0000
  C   C4505     1.0  0.65974  0.02000  0.47214  1.0000
  C   C4506     1.0  0.95045  0.15168  0.46821  1.0000
  C   C4507     1.0  0.99185  0.23014  0.45532  1.0000
  H   H3592     1.0  0.70239  0.00150  0.35757  1.0000
  C   C4508     1.0  0.82203  0.03352  0.48130  1.0000
  H   H3593     1.0  0.95338  0.17710  0.47976  1.0000
  H   H3594     1.0  0.99159  0.09299  0.39849  1.0000
  H   H3595     1.0  0.58158  0.00384  0.28812  1.0000
  C   C4509     1.0  0.89208  0.99913  0.47470  1.0000
  H   H3596     1.0  0.92528  0.03354  0.45744  1.0000
  H   H3597     1.0  0.61535  0.00963  0.26238  1.0000
  S   S621      1.0  0.86770  0.06224  0.48152  1.0000
  H   H3598     1.0  0.59397  0.99734  0.48051  1.0000
  C   C4510     1.0  0.84431  0.99764  0.44428  1.0000
  H   H3599     1.0  0.65328  0.06150  0.48187  1.0000
  C   C4511     1.0  0.86866  0.99880  0.48637  1.0000
  H   H3600     1.0  0.58987  0.99456  0.30598  1.0000
  H   H3601     1.0  0.91916  0.09779  0.48212  1.0000
  C   C4512     1.0  0.64981  0.99972  0.25346  1.0000
  H   H3602     1.0  0.65403  0.00666  0.24781  1.0000
  C   C4513     1.0  0.83241  0.07705  0.48607  1.0000
  C   C4514     1.0  0.99115  0.13352  0.43395  1.0000
  C   C4515     1.0  0.60619  0.00350  0.39191  1.0000
  H   H3603     1.0  0.63581  0.00301  0.45057  1.0000
  C   C4516     1.0  0.49907  0.00232  0.36574  1.0000
  C   C4517     1.0  0.64711  0.99433  0.30308  1.0000
  C   C4518     1.0  0.89608  0.17565  0.48941  1.0000
  H   H3604     1.0  0.98641  0.15944  0.45759  1.0000
  C   C4519     1.0  0.63048  0.99477  0.29551  1.0000
  H   H3605     1.0  0.88290  0.99975  0.42811  1.0000
  C   C4520     1.0  0.78544  0.04283  0.48980  1.0000
  C   C4521     1.0  0.91655  0.17462  0.48795  1.0000
  C   C4522     1.0  0.91674  0.08940  0.48486  1.0000
  H   H3606     1.0  0.75098  0.99966  0.36658  1.0000
  H   H3607     1.0  0.80077  0.01510  0.48768  1.0000
  C   C4523     1.0  0.90566  0.07628  0.48305  1.0000
  H   H3608     1.0  0.78951  0.07569  0.48579  1.0000
  C   C4524     1.0  0.59884  0.99699  0.37521  1.0000
  C   C4525     1.0  0.82261  0.99602  0.45990  1.0000
  H   H3609     1.0  0.96008  0.15653  0.48969  1.0000
  C   C4526     1.0  0.70517  0.99443  0.47449  1.0000
  C   C4527     1.0  0.69278  0.03211  0.48785  1.0000
  C   C4528     1.0  0.73790  0.99351  0.42615  1.0000
  H   H3610     1.0  0.65973  0.03868  0.48845  1.0000
  H   H3611     1.0  0.73396  0.01002  0.48865  1.0000
  H   H3612     1.0  0.67264  0.99381  0.44825  1.0000
  C   C4529     1.0  0.91003  0.15681  0.49001  1.0000
  C   C4530     1.0  0.77860  0.99834  0.48975  1.0000
  C   C4531     1.0  0.98628  0.14473  0.49036  1.0000
  C   C4532     1.0  0.89860  0.16356  0.49013  1.0000
  C   C4533     1.0  0.99547  0.08742  0.42632  1.0000
  H   H3613     1.0  0.60972  0.99402  0.44512  1.0000
  C   C4534     1.0  0.62351  0.99377  0.30695  1.0000
  H   H3614     1.0  0.61433  0.99357  0.30860  1.0000
  C   C4535     1.0  0.64003  0.99355  0.31441  1.0000
  H   H3615     1.0  0.77016  0.00439  0.48984  1.0000
  H   H3616     1.0  0.99576  0.11489  0.47199  1.0000
  H   H3617     1.0  0.62265  0.99300  0.32504  1.0000
  C   C4536     1.0  0.62822  0.99336  0.31631  1.0000
  H   H3618     1.0  0.64366  0.99313  0.32173  1.0000
  H   H3619     1.0  0.63820  0.04251  0.49007  1.0000
  C   C4537     1.0  0.65703  0.99303  0.47641  1.0000
  H   H3620     1.0  0.86488  0.99263  0.39394  1.0000
  C   C4538     1.0  0.62885  0.99278  0.46734  1.0000
  H   H3621     1.0  0.80477  0.08985  0.49057  1.0000
  H   H3622     1.0  0.85958  0.99871  0.49068  1.0000
  H   H3623     1.0  0.89160  0.15940  0.49087  1.0000
  C   C4539     1.0  0.49589  0.02186  0.33221  1.0000
  H   H3624     1.0  0.50041  0.99581  0.62345  1.0000
  C   C4540     1.0  0.89760  0.00505  0.51136  1.0000
  H   H3625     1.0  0.98215  0.18094  0.51153  1.0000
  H   H3626     1.0  0.87087  0.18253  0.56424  1.0000
  C   C4541     1.0  0.99253  0.11393  0.50545  1.0000
  S   S622      1.0  0.78184  0.05256  0.49913  1.0000
  C   C4542     1.0  0.70788  0.00597  0.57759  1.0000
  H   H3627     1.0  0.89446  0.10482  0.49709  1.0000
  S   S623      1.0  0.58568  0.03743  0.71331  1.0000
  C   C4543     1.0  0.84736  0.02251  0.52787  1.0000
  C   C4544     1.0  0.96473  0.21979  0.55037  1.0000
  H   H3628     1.0  0.91631  0.01651  0.49368  1.0000
  C   C4545     1.0  0.58363  0.04442  0.59206  1.0000
  C   C4546     1.0  0.97315  0.18798  0.58968  1.0000
  C   C4547     1.0  0.52708  0.00528  0.71858  1.0000
  H   H3629     1.0  0.80255  0.99274  0.50130  1.0000
  H   H3630     1.0  0.91253  0.00091  0.51910  1.0000
  S   S624      1.0  0.68005  0.02335  0.52317  1.0000
  C   C4548     1.0  0.49807  0.03003  0.72426  1.0000
  C   C4549     1.0  0.84378  0.00133  0.56221  1.0000
  C   C4550     1.0  0.97355  0.12133  0.51722  1.0000
  S   S625      1.0  0.50538  0.04140  0.64945  1.0000
  C   C4551     1.0  0.89047  0.09756  0.50228  1.0000
  H   H3631     1.0  0.68860  0.02624  0.56250  1.0000
  C   C4552     1.0  0.59733  0.01442  0.54391  1.0000
  H   H3632     1.0  0.63859  0.04715  0.56322  1.0000
  Fe  Fe319     1.0  0.58711  0.00768  0.66483  1.0000
  S   S626      1.0  0.56743  0.01157  0.66793  1.0000
  H   H3633     1.0  0.82557  0.00558  0.49796  1.0000
  H   H3634     1.0  0.59148  0.99824  0.55107  1.0000
  S   S627      1.0  0.57145  0.01079  0.63995  1.0000
  P   P150      1.0  0.98767  0.20366  0.57790  1.0000
  Fe  Fe320     1.0  0.56998  0.02389  0.65032  1.0000
  S   S628      1.0  0.55819  0.04167  0.64608  1.0000
  C   C4553     1.0  0.87121  0.00601  0.55111  1.0000
  S   S629      1.0  0.60850  0.01076  0.50485  1.0000
  S   S630      1.0  0.58953  0.02129  0.64806  1.0000
  S   S631      1.0  0.49982  0.00436  0.70472  1.0000
  C   C4554     1.0  0.59373  0.00524  0.56454  1.0000
  C   C4555     1.0  0.92138  0.08075  0.49370  1.0000
  C   C4556     1.0  0.99318  0.14414  0.55396  1.0000
  H   H3635     1.0  0.72218  0.02849  0.58558  1.0000
  S   S632      1.0  0.70508  0.05450  0.53485  1.0000
  C   C4557     1.0  0.91828  0.06983  0.49704  1.0000
  H   H3636     1.0  0.98357  0.09758  0.57286  1.0000
  Fe  Fe321     1.0  0.93878  0.16364  0.56320  1.0000
  S   S633      1.0  0.95837  0.16010  0.55726  1.0000
  S   S634      1.0  0.92707  0.15212  0.56337  1.0000
  Fe  Fe322     1.0  0.93714  0.18612  0.57018  1.0000
  S   S635      1.0  0.95645  0.18459  0.56478  1.0000
  S   S636      1.0  0.92554  0.20213  0.57654  1.0000
  Fe  Fe323     1.0  0.95543  0.17934  0.54908  1.0000
  S   S637      1.0  0.96774  0.18670  0.53308  1.0000
  Fe  Fe324     1.0  0.95812  0.16566  0.57335  1.0000
  H   H3637     1.0  0.72499  0.04445  0.50089  1.0000
  S   S638      1.0  0.93580  0.18255  0.55353  1.0000
  S   S639      1.0  0.93863  0.16752  0.58038  1.0000
  C   C4558     1.0  0.58559  0.06853  0.53677  1.0000
  Fe  Fe325     1.0  0.59075  0.00710  0.63904  1.0000
  S   S640      1.0  0.65761  0.05450  0.51948  1.0000
  H   H3638     1.0  0.82563  0.01616  0.54301  1.0000
  C   C4559     1.0  0.80514  0.06171  0.50585  1.0000
  C   C4560     1.0  0.82342  0.05269  0.54098  1.0000
  C   C4561     1.0  0.81825  0.04644  0.53657  1.0000
  Fe  Fe326     1.0  0.93752  0.11351  0.51757  1.0000
  C   C4562     1.0  0.90645  0.07591  0.53379  1.0000
  S   S641      1.0  0.93671  0.11112  0.53685  1.0000
  C   C4563     1.0  0.90670  0.22643  0.60292  1.0000
  H   H3639     1.0  0.90789  0.18876  0.57188  1.0000
  S   S642      1.0  0.94201  0.12883  0.50337  1.0000
  H   H3640     1.0  0.76528  0.02112  0.50334  1.0000
  C   C4564     1.0  0.97004  0.19265  0.61171  1.0000
  H   H3641     1.0  0.54446  0.99809  0.68349  1.0000
  H   H3642     1.0  0.87582  0.17658  0.54539  1.0000
  S   S643      1.0  0.94976  0.09979  0.50803  1.0000
  S   S644      1.0  0.92209  0.11275  0.51143  1.0000
  C   C4565     1.0  0.61912  0.03529  0.55740  1.0000
  H   H3643     1.0  0.97605  0.22827  0.56812  1.0000
  C   C4566     1.0  0.75017  0.01217  0.57953  1.0000
  H   H3644     1.0  0.53906  0.00265  0.55668  1.0000
  C   C4567     1.0  0.71681  0.01210  0.57489  1.0000
  H   H3645     1.0  0.97376  0.23811  0.52472  1.0000
  H   H3646     1.0  0.50723  0.10120  0.70279  1.0000
  H   H3647     1.0  0.99106  0.07583  0.49658  1.0000
  C   C4568     1.0  0.50067  0.08670  0.70233  1.0000
  C   C4569     1.0  0.89553  0.03429  0.53484  1.0000
  C   C4570     1.0  0.98603  0.10636  0.54819  1.0000
  S   S645      1.0  0.95251  0.23470  0.58554  1.0000
  C   C4571     1.0  0.96604  0.18229  0.59949  1.0000
  C   C4572     1.0  0.92781  0.07098  0.52958  1.0000
  C   C4573     1.0  0.93404  0.22902  0.61706  1.0000
  C   C4574     1.0  0.97134  0.11006  0.52066  1.0000
  C   C4575     1.0  0.96561  0.15057  0.51415  1.0000
  H   H3648     1.0  0.52452  0.02279  0.65774  1.0000
  S   S646      1.0  0.70413  0.02378  0.53064  1.0000
  C   C4576     1.0  0.92779  0.08085  0.53331  1.0000
  H   H3649     1.0  0.61763  0.04636  0.56919  1.0000
  H   H3650     1.0  0.80803  0.05273  0.50479  1.0000
  S   S647      1.0  0.67873  0.04018  0.54071  1.0000
  C   C4577     1.0  0.63839  0.00668  0.57443  1.0000
  H   H3651     1.0  0.95890  0.18023  0.61806  1.0000
  S   S648      1.0  0.77472  0.02634  0.52318  1.0000
  C   C4578     1.0  0.64291  0.03640  0.55061  1.0000
  H   H3652     1.0  0.98106  0.19367  0.56193  1.0000
  C   C4579     1.0  0.86109  0.08644  0.55357  1.0000
  C   C4580     1.0  0.82329  0.00778  0.54487  1.0000
  C   C4581     1.0  0.85968  0.03028  0.54596  1.0000
  C   C4582     1.0  0.59753  0.99861  0.61447  1.0000
  H   H3653     1.0  0.87204  0.08172  0.50114  1.0000
  H   H3654     1.0  0.65997  0.00778  0.52106  1.0000
  C   C4583     1.0  0.98161  0.15172  0.52166  1.0000
  H   H3655     1.0  0.97353  0.09227  0.49505  1.0000
  C   C4584     1.0  0.81265  0.00614  0.55249  1.0000
  H   H3656     1.0  0.96839  0.20224  0.54769  1.0000
  Fe  Fe327     1.0  0.62092  0.01479  0.51286  1.0000
  H   H3657     1.0  0.57658  0.99387  0.72578  1.0000
  C   C4585     1.0  0.85647  0.01454  0.53279  1.0000
  S   S649      1.0  0.57628  0.01256  0.73675  1.0000
  H   H3658     1.0  0.97505  0.13580  0.54086  1.0000
  H   H3659     1.0  0.92641  0.19227  0.51699  1.0000
  C   C4586     1.0  0.93393  0.21131  0.57739  1.0000
  C   C4587     1.0  0.92983  0.22352  0.57476  1.0000
  C   C4588     1.0  0.93586  0.23086  0.57664  1.0000
  C   C4589     1.0  0.94563  0.22594  0.58170  1.0000
  C   C4590     1.0  0.94976  0.21377  0.58419  1.0000
  C   C4591     1.0  0.94414  0.20646  0.58174  1.0000
  H   H3660     1.0  0.92190  0.22732  0.57145  1.0000
  H   H3661     1.0  0.93270  0.24027  0.57462  1.0000
  H   H3662     1.0  0.95721  0.21001  0.58820  1.0000
  H   H3663     1.0  0.94726  0.19705  0.58398  1.0000
  C   C4592     1.0  0.64691  0.04813  0.51815  1.0000
  H   H3664     1.0  0.70427  0.07978  0.52051  1.0000
  H   H3665     1.0  0.55447  0.02944  0.68850  1.0000
  C   C4593     1.0  0.97720  0.20300  0.56044  1.0000
  H   H3666     1.0  0.97726  0.14235  0.56700  1.0000
  C   C4594     1.0  0.96437  0.18832  0.51960  1.0000
  C   C4595     1.0  0.85169  0.01186  0.51252  1.0000
  C   C4596     1.0  0.50225  0.06652  0.67871  1.0000
  H   H3667     1.0  0.88776  0.03294  0.55324  1.0000
  C   C4597     1.0  0.95094  0.19665  0.50654  1.0000
  C   C4598     1.0  0.95303  0.19367  0.51787  1.0000
  C   C4599     1.0  0.73719  0.03370  0.53857  1.0000
  H   H3668     1.0  0.99082  0.14951  0.52197  1.0000
  H   H3669     1.0  0.94238  0.20138  0.50510  1.0000
  H   H3670     1.0  0.94601  0.19594  0.52516  1.0000
  C   C4600     1.0  0.93154  0.14094  0.55535  1.0000
  C   C4601     1.0  0.93374  0.14340  0.54302  1.0000
  C   C4602     1.0  0.93547  0.13438  0.53706  1.0000
  C   C4603     1.0  0.93499  0.12290  0.54346  1.0000
  C   C4604     1.0  0.93287  0.12055  0.55571  1.0000
  C   C4605     1.0  0.93105  0.12950  0.56160  1.0000
  H   H3671     1.0  0.93367  0.15232  0.53815  1.0000
  H   H3672     1.0  0.93697  0.13632  0.52760  1.0000
  H   H3673     1.0  0.93240  0.11176  0.56071  1.0000
  H   H3674     1.0  0.92905  0.12757  0.57109  1.0000
  C   C4606     1.0  0.71893  0.04859  0.53842  1.0000
  H   H3675     1.0  0.95897  0.22349  0.54431  1.0000
  C   C4607     1.0  0.80322  0.08258  0.49789  1.0000
  H   H3676     1.0  0.89283  0.07147  0.55765  1.0000
  C   C4608     1.0  0.73270  0.04909  0.54923  1.0000
  C   C4609     1.0  0.72221  0.05400  0.54535  1.0000
  H   H3677     1.0  0.91749  0.06110  0.52639  1.0000
  C   C4610     1.0  0.60045  0.02349  0.55791  1.0000
  H   H3678     1.0  0.73491  0.05305  0.55501  1.0000
  H   H3679     1.0  0.71639  0.06178  0.54811  1.0000
  H   H3680     1.0  0.86034  0.18966  0.50837  1.0000
  C   C4611     1.0  0.97757  0.14733  0.51441  1.0000
  H   H3681     1.0  0.97682  0.16228  0.53449  1.0000
  H   H3682     1.0  0.69092  0.00630  0.57512  1.0000
  C   C4612     1.0  0.58770  0.04432  0.58011  1.0000
  C   C4613     1.0  0.98454  0.22373  0.58632  1.0000
  P   P151      1.0  0.85821  0.01576  0.54664  1.0000
  H   H3683     1.0  0.84200  0.02968  0.53198  1.0000
  H   H3684     1.0  0.82988  0.00016  0.51750  1.0000
  C   C4614     1.0  0.74628  0.00039  0.55967  1.0000
  C   C4615     1.0  0.55272  0.00358  0.54099  1.0000
  C   C4616     1.0  0.95999  0.19365  0.49709  1.0000
  H   H3685     1.0  0.96894  0.19434  0.62028  1.0000
  C   C4617     1.0  0.57193  0.99708  0.71872  1.0000
  H   H3686     1.0  0.74928  0.01113  0.50591  1.0000
  H   H3687     1.0  0.57558  0.05051  0.59504  1.0000
  C   C4618     1.0  0.54494  0.99793  0.55014  1.0000
  S   S650      1.0  0.92347  0.21059  0.49472  1.0000
  H   H3688     1.0  0.58145  0.07602  0.53089  1.0000
  H   H3689     1.0  0.58401  0.01451  0.61372  1.0000
  H   H3690     1.0  0.57408  0.00901  0.60160  1.0000
  C   C4619     1.0  0.96737  0.23493  0.51125  1.0000
  H   H3691     1.0  0.83787  0.02725  0.51408  1.0000
  C   C4620     1.0  0.91488  0.22645  0.64144  1.0000
  C   C4621     1.0  0.89087  0.00055  0.50679  1.0000
  H   H3692     1.0  0.70971  0.00726  0.59990  1.0000
  C   C4622     1.0  0.69641  0.02237  0.56606  1.0000
  S   S651      1.0  0.89447  0.01993  0.51214  1.0000
  C   C4623     1.0  0.86281  0.03788  0.53516  1.0000
  C   C4624     1.0  0.91200  0.17040  0.52250  1.0000
  C   C4625     1.0  0.63553  0.01376  0.58259  1.0000
  C   C4626     1.0  0.54370  0.04101  0.64694  1.0000
  H   H3693     1.0  0.65888  0.03265  0.51295  1.0000
  C   C4627     1.0  0.51824  0.99976  0.72594  1.0000
  H   H3694     1.0  0.54545  0.02279  0.65589  1.0000
  S   S652      1.0  0.59736  0.00305  0.67895  1.0000
  H   H3695     1.0  0.50232  0.00303  0.54470  1.0000
  C   C4628     1.0  0.50946  0.09209  0.70214  1.0000
  H   H3696     1.0  0.65205  0.03698  0.54776  1.0000
  H   H3697     1.0  0.79430  0.02835  0.50137  1.0000
  S   S653      1.0  0.80666  0.04005  0.54599  1.0000
  C   C4629     1.0  0.74846  0.06534  0.50337  1.0000
  H   H3698     1.0  0.58014  0.04334  0.55585  1.0000
  C   C4630     1.0  0.88878  0.08162  0.51946  1.0000
  C   C4631     1.0  0.58051  0.09718  0.65861  1.0000
  C   C4632     1.0  0.58771  0.02717  0.70474  1.0000
  C   C4633     1.0  0.59584  0.01643  0.70643  1.0000
  C   C4634     1.0  0.59852  0.00897  0.69861  1.0000
  C   C4635     1.0  0.59293  0.01208  0.68921  1.0000
  C   C4636     1.0  0.58431  0.02251  0.68789  1.0000
  C   C4637     1.0  0.58178  0.03006  0.69562  1.0000
  H   H3699     1.0  0.60039  0.01409  0.71350  1.0000
  H   H3700     1.0  0.49881  0.02132  0.72974  1.0000
  H   H3701     1.0  0.57990  0.02493  0.68072  1.0000
  H   H3702     1.0  0.57528  0.03817  0.69451  1.0000
  C   C4638     1.0  0.93299  0.17704  0.50936  1.0000
  C   C4639     1.0  0.89889  0.05339  0.52390  1.0000
  H   H3703     1.0  0.50256  0.05671  0.72283  1.0000
  C   C4640     1.0  0.76080  0.07741  0.50439  1.0000
  H   H3704     1.0  0.89519  0.22970  0.62500  1.0000
  C   C4641     1.0  0.71557  0.02330  0.56745  1.0000
  C   C4642     1.0  0.60012  0.02857  0.59642  1.0000
  C   C4643     1.0  0.86364  0.04918  0.53487  1.0000
  C   C4644     1.0  0.89360  0.09128  0.51288  1.0000
  C   C4645     1.0  0.86082  0.00389  0.51730  1.0000
  H   H3705     1.0  0.83626  0.06308  0.53714  1.0000
  H   H3706     1.0  0.68796  0.03492  0.49589  1.0000
  H   H3707     1.0  0.88500  0.22974  0.56296  1.0000
  C   C4646     1.0  0.60118  0.08854  0.65784  1.0000
  H   H3708     1.0  0.51042  0.06680  0.68035  1.0000
  C   C4647     1.0  0.86739  0.17433  0.52046  1.0000
  C   C4648     1.0  0.87684  0.16851  0.52584  1.0000
  C   C4649     1.0  0.88664  0.17343  0.52332  1.0000
  C   C4650     1.0  0.89030  0.05042  0.54473  1.0000
  P   P152      1.0  0.89842  0.16627  0.53093  1.0000
  C   C4651     1.0  0.89451  0.17060  0.54483  1.0000
  C   C4652     1.0  0.88872  0.17741  0.56637  1.0000
  C   C4653     1.0  0.90038  0.17262  0.56152  1.0000
  C   C4654     1.0  0.90329  0.16928  0.55078  1.0000
  C   C4655     1.0  0.90059  0.15061  0.53297  1.0000
  C   C4656     1.0  0.89944  0.14596  0.52411  1.0000
  H   H3709     1.0  0.59735  0.99420  0.50041  1.0000
  C   C4657     1.0  0.90460  0.12626  0.53552  1.0000
  C   C4658     1.0  0.90585  0.13080  0.54434  1.0000
  C   C4659     1.0  0.90390  0.14294  0.54308  1.0000
  H   H3710     1.0  0.91302  0.20117  0.55228  1.0000
  C   C4660     1.0  0.89070  0.23158  0.64281  1.0000
  H   H3711     1.0  0.85998  0.17038  0.52224  1.0000
  H   H3712     1.0  0.87650  0.16016  0.53195  1.0000
  H   H3713     1.0  0.85221  0.09063  0.55246  1.0000
  H   H3714     1.0  0.88652  0.17990  0.57474  1.0000
  H   H3715     1.0  0.90723  0.17131  0.56614  1.0000
  H   H3716     1.0  0.91238  0.16552  0.54717  1.0000
  H   H3717     1.0  0.89736  0.15167  0.51602  1.0000
  H   H3718     1.0  0.86755  0.08496  0.53564  1.0000
  Fe  Fe328     1.0  0.68596  0.02129  0.53965  1.0000
  H   H3719     1.0  0.90872  0.12490  0.55200  1.0000
  H   H3720     1.0  0.90528  0.14622  0.54987  1.0000
  C   C4661     1.0  0.84493  0.01291  0.55707  1.0000
  C   C4662     1.0  0.97831  0.21140  0.51857  1.0000
  H   H3721     1.0  0.73292  0.01372  0.52914  1.0000
  C   C4663     1.0  0.83251  0.05805  0.53370  1.0000
  C   C4664     1.0  0.82249  0.04533  0.52486  1.0000
  H   H3722     1.0  0.63289  0.06265  0.52269  1.0000
  H   H3723     1.0  0.96270  0.22846  0.49857  1.0000
  S   S654      1.0  0.80112  0.03068  0.52017  1.0000
  S   S655      1.0  0.70922  0.01788  0.50006  1.0000
  H   H3724     1.0  0.86574  0.05513  0.52653  1.0000
  H   H3725     1.0  0.94369  0.21190  0.55013  1.0000
  C   C4665     1.0  0.85870  0.04530  0.55607  1.0000
  C   C4666     1.0  0.63516  0.05424  0.52029  1.0000
  H   H3726     1.0  0.95666  0.10797  0.55299  1.0000
  C   C4667     1.0  0.53605  0.05117  0.64243  1.0000
  C   C4668     1.0  0.52110  0.08573  0.70122  1.0000
  C   C4669     1.0  0.83674  0.05695  0.52201  1.0000
  C   C4670     1.0  0.62679  0.02969  0.54856  1.0000
  C   C4671     1.0  0.97544  0.10265  0.55127  1.0000
  H   H3727     1.0  0.96328  0.23640  0.55431  1.0000
  S   S656      1.0  0.75232  0.03209  0.55238  1.0000
  H   H3728     1.0  0.89590  0.02524  0.53501  1.0000
  H   H3729     1.0  0.55290  0.01253  0.54056  1.0000
  C   C4672     1.0  0.52772  0.03070  0.65348  1.0000
  C   C4673     1.0  0.52439  0.05106  0.64318  1.0000
  C   C4674     1.0  0.52013  0.04091  0.64883  1.0000
  C   C4675     1.0  0.92650  0.21873  0.54639  1.0000
  C   C4676     1.0  0.92764  0.20366  0.60928  1.0000
  S   S657      1.0  0.97380  0.15853  0.58148  1.0000
  C   C4677     1.0  0.97980  0.10072  0.51666  1.0000
  C   C4678     1.0  0.63992  0.00011  0.54603  1.0000
  C   C4679     1.0  0.52149  0.03613  0.68789  1.0000
  C   C4680     1.0  0.52968  0.03956  0.67776  1.0000
  C   C4681     1.0  0.54157  0.03689  0.67799  1.0000
  C   C4682     1.0  0.54527  0.03102  0.68839  1.0000
  C   C4683     1.0  0.53714  0.02724  0.69853  1.0000
  C   C4684     1.0  0.52518  0.03002  0.69825  1.0000
  P   P153      1.0  0.54175  0.02070  0.71221  1.0000
  C   C4685     1.0  0.55531  0.00967  0.71070  1.0000
  C   C4686     1.0  0.54264  0.03311  0.71698  1.0000
  C   C4687     1.0  0.55339  0.03477  0.71754  1.0000
  C   C4688     1.0  0.55379  0.04497  0.72046  1.0000
  C   C4689     1.0  0.54356  0.05359  0.72268  1.0000
  C   C4690     1.0  0.53287  0.05206  0.72197  1.0000
  C   C4691     1.0  0.53244  0.04189  0.71908  1.0000
  C   C4692     1.0  0.56114  0.00523  0.71999  1.0000
  C   C4693     1.0  0.98463  0.14654  0.56396  1.0000
  C   C4694     1.0  0.58744  0.00617  0.61113  1.0000
  C   C4695     1.0  0.50183  0.03859  0.72694  1.0000
  C   C4696     1.0  0.55992  0.00510  0.70051  1.0000
  C   C4697     1.0  0.87523  0.07896  0.56592  1.0000
  C   C4698     1.0  0.86378  0.08434  0.56451  1.0000
  C   C4699     1.0  0.88669  0.18437  0.51561  1.0000
  S   S658      1.0  0.80131  0.99936  0.52259  1.0000
  C   C4700     1.0  0.59698  0.01428  0.56703  1.0000
  Fe  Fe329     1.0  0.69779  0.02708  0.51424  1.0000
  H   H3730     1.0  0.51228  0.03812  0.68768  1.0000
  H   H3731     1.0  0.52681  0.04425  0.66972  1.0000
  H   H3732     1.0  0.83489  0.04976  0.50855  1.0000
  H   H3733     1.0  0.88871  0.23294  0.66058  1.0000
  H   H3734     1.0  0.51864  0.02758  0.70600  1.0000
  H   H3735     1.0  0.56150  0.02832  0.71570  1.0000
  H   H3736     1.0  0.56203  0.04613  0.72114  1.0000
  H   H3737     1.0  0.54389  0.06130  0.72525  1.0000
  H   H3738     1.0  0.52484  0.05857  0.72402  1.0000
  C   C4701     1.0  0.62630  0.04944  0.51954  1.0000
  C   C4702     1.0  0.80726  0.07099  0.49630  1.0000
  H   H3739     1.0  0.90059  0.13039  0.51844  1.0000
  Fe  Fe330     1.0  0.86279  0.05485  0.50087  1.0000
  C   C4703     1.0  0.88110  0.99281  0.56625  1.0000
  H   H3740     1.0  0.55529  0.00780  0.69349  1.0000
  H   H3741     1.0  0.53425  0.99287  0.60451  1.0000
  H   H3742     1.0  0.81871  0.04040  0.52139  1.0000
  H   H3743     1.0  0.96304  0.10861  0.52642  1.0000
  H   H3744     1.0  0.87706  0.07088  0.52008  1.0000
  C   C4704     1.0  0.63043  0.99757  0.59829  1.0000
  C   C4705     1.0  0.98417  0.12340  0.50952  1.0000
  H   H3745     1.0  0.81597  0.00677  0.57887  1.0000
  H   H3746     1.0  0.60194  0.07403  0.53219  1.0000
  C   C4706     1.0  0.97118  0.18770  0.49897  1.0000
  C   C4707     1.0  0.96996  0.20781  0.55238  1.0000
  H   H3747     1.0  0.90190  0.05899  0.51561  1.0000
  H   H3748     1.0  0.51756  0.05939  0.70007  1.0000
  C   C4708     1.0  0.59647  0.04894  0.55171  1.0000
  H   H3749     1.0  0.93500  0.17448  0.62116  1.0000
  H   H3750     1.0  0.89420  0.18827  0.51339  1.0000
  C   C4709     1.0  0.74995  0.03086  0.58306  1.0000
  C   C4710     1.0  0.73385  0.03950  0.50126  1.0000
  C   C4711     1.0  0.90143  0.23217  0.59339  1.0000
  C   C4712     1.0  0.98591  0.11833  0.54375  1.0000
  C   C4713     1.0  0.92650  0.20044  0.63006  1.0000
  C   C4714     1.0  0.63866  0.03017  0.54531  1.0000
  H   H3751     1.0  0.59315  0.10675  0.65798  1.0000
  H   H3752     1.0  0.93736  0.16088  0.50349  1.0000
  Fe  Fe331     1.0  0.60973  0.99400  0.51845  1.0000
  Fe  Fe332     1.0  0.57059  0.99815  0.65733  1.0000
  Fe  Fe333     1.0  0.88453  0.03479  0.50029  1.0000
  H   H3753     1.0  0.94102  0.17965  0.50412  1.0000
  H   H3754     1.0  0.90311  0.03827  0.51631  1.0000
  C   C4715     1.0  0.93873  0.21560  0.54331  1.0000
  H   H3755     1.0  0.93602  0.08295  0.53282  1.0000
  C   C4716     1.0  0.73167  0.02606  0.58402  1.0000
  H   H3756     1.0  0.60990  0.08942  0.65745  1.0000
  C   C4717     1.0  0.73770  0.03387  0.58491  1.0000
  C   C4718     1.0  0.59797  0.03624  0.57625  1.0000
  C   C4719     1.0  0.58490  0.05010  0.55087  1.0000
  C   C4720     1.0  0.83344  0.99912  0.57020  1.0000
  C   C4721     1.0  0.70531  0.02847  0.56321  1.0000
  H   H3757     1.0  0.92202  0.06301  0.50369  1.0000
  H   H3758     1.0  0.97534  0.09343  0.55429  1.0000
  H   H3759     1.0  0.61188  0.02186  0.58176  1.0000
  H   H3760     1.0  0.58275  0.05051  0.57397  1.0000
  H   H3761     1.0  0.84975  0.01084  0.50477  1.0000
  H   H3762     1.0  0.57061  0.06064  0.54275  1.0000
  C   C4722     1.0  0.92052  0.16311  0.51554  1.0000
  H   H3763     1.0  0.93289  0.18819  0.60209  1.0000
  H   H3764     1.0  0.90790  0.18664  0.52837  1.0000
  C   C4723     1.0  0.98851  0.08856  0.57341  1.0000
  C   C4724     1.0  0.97340  0.18518  0.51019  1.0000
  C   C4725     1.0  0.64980  0.03729  0.51491  1.0000
  H   H3765     1.0  0.89476  0.20622  0.54132  1.0000
  H   H3766     1.0  0.94657  0.21347  0.61226  1.0000
  H   H3767     1.0  0.53918  0.05912  0.63819  1.0000
  C   C4726     1.0  0.60255  0.05768  0.54496  1.0000
  C   C4727     1.0  0.85787  0.03398  0.55642  1.0000
  C   C4728     1.0  0.95770  0.15775  0.52141  1.0000
  C   C4729     1.0  0.96171  0.16198  0.52869  1.0000
  C   C4730     1.0  0.97883  0.21988  0.52398  1.0000
  H   H3768     1.0  0.59489  0.05589  0.61229  1.0000
  C   C4731     1.0  0.57948  0.05987  0.54345  1.0000
  H   H3769     1.0  0.71890  0.01238  0.54839  1.0000
  S   S659      1.0  0.86614  0.03627  0.49913  1.0000
  P   P154      1.0  0.60353  0.03594  0.56087  1.0000
  H   H3770     1.0  0.97246  0.20821  0.50485  1.0000
  H   H3771     1.0  0.93101  0.18233  0.63903  1.0000
  H   H3772     1.0  0.87733  0.07735  0.57440  1.0000
  C   C4732     1.0  0.91425  0.18092  0.52299  1.0000
  Fe  Fe334     1.0  0.93465  0.10048  0.50043  1.0000
  C   C4733     1.0  0.96721  0.22707  0.55595  1.0000
  H   H3773     1.0  0.61724  0.05420  0.52130  1.0000
  H   H3774     1.0  0.90042  0.99661  0.53990  1.0000
  Fe  Fe335     1.0  0.69654  0.04282  0.53015  1.0000
  H   H3775     1.0  0.70433  0.03712  0.55750  1.0000
  C   C4734     1.0  0.93228  0.18387  0.62068  1.0000
  C   C4735     1.0  0.70081  0.07698  0.50523  1.0000
  H   H3776     1.0  0.60308  0.03052  0.53916  1.0000
  H   H3777     1.0  0.95554  0.16784  0.53402  1.0000
  H   H3778     1.0  0.88795  0.21615  0.50683  1.0000
  H   H3779     1.0  0.64162  0.01034  0.56526  1.0000
  C   C4736     1.0  0.90564  0.20471  0.55871  1.0000
  H   H3780     1.0  0.72543  0.07162  0.51537  1.0000
  C   C4737     1.0  0.82408  0.00847  0.57288  1.0000
  H   H3781     1.0  0.53073  0.00374  0.70983  1.0000
  C   C4738     1.0  0.89885  0.24090  0.54385  1.0000
  C   C4739     1.0  0.52396  0.07397  0.70044  1.0000
  C   C4740     1.0  0.89814  0.22317  0.53123  1.0000
  C   C4741     1.0  0.89448  0.21269  0.53320  1.0000
  C   C4742     1.0  0.89061  0.21030  0.52452  1.0000
  H   H3782     1.0  0.57320  0.10476  0.65880  1.0000
  C   C4743     1.0  0.90651  0.08588  0.53744  1.0000
  C   C4744     1.0  0.97724  0.19831  0.60192  1.0000
  C   C4745     1.0  0.91985  0.22278  0.53775  1.0000
  C   C4746     1.0  0.94449  0.21691  0.53151  1.0000
  C   C4747     1.0  0.93800  0.22139  0.52278  1.0000
  C   C4748     1.0  0.92572  0.22428  0.52586  1.0000
  H   H3783     1.0  0.88788  0.20218  0.52609  1.0000
  H   H3784     1.0  0.52789  0.08988  0.70117  1.0000
  H   H3785     1.0  0.95396  0.21413  0.52917  1.0000
  H   H3786     1.0  0.94249  0.22227  0.51361  1.0000
  H   H3787     1.0  0.92094  0.22752  0.51891  1.0000
  S   S660      1.0  0.61747  0.03294  0.51603  1.0000
  C   C4749     1.0  0.89416  0.05792  0.53408  1.0000
  H   H3788     1.0  0.62364  0.02522  0.54395  1.0000
  H   H3789     1.0  0.87967  0.21697  0.58234  1.0000
  H   H3790     1.0  0.86288  0.00143  0.56955  1.0000
  C   C4750     1.0  0.63731  0.99496  0.57817  1.0000
  C   C4751     1.0  0.58985  0.03656  0.60021  1.0000
  C   C4752     1.0  0.93110  0.19156  0.60995  1.0000
  C   C4753     1.0  0.82498  0.02001  0.56741  1.0000
  C   C4754     1.0  0.63531  0.04213  0.55929  1.0000
  H   H3791     1.0  0.54796  0.03947  0.67013  1.0000
  C   C4755     1.0  0.88084  0.07833  0.51523  1.0000
  S   S661      1.0  0.68386  0.00540  0.55420  1.0000
  C   C4756     1.0  0.92473  0.18417  0.51652  1.0000
  Fe  Fe336     1.0  0.79168  0.01614  0.52820  1.0000
  C   C4757     1.0  0.97366  0.15896  0.52885  1.0000
  C   C4758     1.0  0.97255  0.21467  0.50936  1.0000
  C   C4759     1.0  0.75617  0.01996  0.58048  1.0000
  H   H3792     1.0  0.53296  0.06903  0.69987  1.0000
  H   H3793     1.0  0.99508  0.18480  0.54534  1.0000
  H   H3794     1.0  0.73290  0.04233  0.58685  1.0000
  C   C4760     1.0  0.75650  0.02619  0.50275  1.0000
  H   H3795     1.0  0.72404  0.03441  0.52941  1.0000
  C   C4761     1.0  0.86756  0.18521  0.51270  1.0000
  H   H3796     1.0  0.92422  0.22443  0.64110  1.0000
  C   C4762     1.0  0.50009  0.05007  0.72026  1.0000
  H   H3797     1.0  0.85564  0.02815  0.56484  1.0000
  C   C4763     1.0  0.96703  0.22633  0.50576  1.0000
  C   C4764     1.0  0.59711  0.06744  0.53753  1.0000
  S   S662      1.0  0.77779  0.04746  0.53365  1.0000
  H   H3798     1.0  0.52417  0.04084  0.71846  1.0000
  H   H3799     1.0  0.97440  0.18579  0.58133  1.0000
  H   H3800     1.0  0.94846  0.16002  0.52144  1.0000
  H   H3801     1.0  0.90646  0.11686  0.53637  1.0000
  Fe  Fe337     1.0  0.78368  0.04135  0.51673  1.0000
  C   C4765     1.0  0.95526  0.22598  0.61340  1.0000
  C   C4766     1.0  0.95401  0.23719  0.61512  1.0000
  H   H3802     1.0  0.86200  0.06176  0.54494  1.0000
  H   H3803     1.0  0.63844  0.01043  0.52881  1.0000
  Fe  Fe338     1.0  0.92744  0.12727  0.49643  1.0000
  H   H3804     1.0  0.64313  0.02427  0.51133  1.0000
  H   H3805     1.0  0.91724  0.09602  0.53995  1.0000
  C   C4767     1.0  0.90694  0.22865  0.65184  1.0000
  H   H3806     1.0  0.56674  0.00185  0.52565  1.0000
  C   C4768     1.0  0.88138  0.07780  0.54537  1.0000
  C   C4769     1.0  0.88269  0.09414  0.49807  1.0000
  C   C4770     1.0  0.69771  0.01112  0.57322  1.0000
  C   C4771     1.0  0.59320  0.05715  0.62114  1.0000
  P   P155      1.0  0.92109  0.22393  0.61820  1.0000
  C   C4772     1.0  0.84497  0.02115  0.51780  1.0000
  H   H3807     1.0  0.96691  0.12822  0.52075  1.0000
  H   H3808     1.0  0.86608  0.99671  0.51316  1.0000
  C   C4773     1.0  0.79546  0.07551  0.51853  1.0000
  C   C4774     1.0  0.79935  0.06399  0.51694  1.0000
  Fe  Fe339     1.0  0.58245  0.02910  0.73266  1.0000
  H   H3809     1.0  0.61157  0.05692  0.54515  1.0000
  C   C4775     1.0  0.56045  0.99760  0.53254  1.0000
  S   S663      1.0  0.78639  0.01980  0.54624  1.0000
  H   H3810     1.0  0.91017  0.22837  0.65937  1.0000
  S   S664      1.0  0.88071  0.05284  0.50377  1.0000
  H   H3811     1.0  0.99171  0.07711  0.54540  1.0000
  H   H3812     1.0  0.79109  0.07716  0.52719  1.0000
  H   H3813     1.0  0.79811  0.05679  0.52438  1.0000
  H   H3814     1.0  0.91913  0.15493  0.51494  1.0000
  H   H3815     1.0  0.51860  0.05891  0.63944  1.0000
  H   H3816     1.0  0.95645  0.12924  0.54674  1.0000
  C   C4776     1.0  0.97450  0.22232  0.56393  1.0000
  C   C4777     1.0  0.54894  0.99517  0.63469  1.0000
  C   C4778     1.0  0.91715  0.08827  0.53729  1.0000
  H   H3817     1.0  0.74293  0.02578  0.53607  1.0000
  H   H3818     1.0  0.96194  0.17590  0.59850  1.0000
  Fe  Fe340     1.0  0.77018  0.03150  0.54043  1.0000
  H   H3819     1.0  0.97537  0.22335  0.58937  1.0000
  H   H3820     1.0  0.88662  0.05361  0.55274  1.0000
  C   C4779     1.0  0.71777  0.06822  0.49185  1.0000
  C   C4780     1.0  0.60411  0.02834  0.58452  1.0000
  H   H3821     1.0  0.56010  0.99940  0.61764  1.0000
  H   H3822     1.0  0.96394  0.22063  0.61087  1.0000
  C   C4781     1.0  0.99268  0.21497  0.58087  1.0000
  C   C4782     1.0  0.70808  0.07684  0.51233  1.0000
  H   H3823     1.0  0.79434  0.09377  0.51020  1.0000
  C   C4783     1.0  0.72318  0.00456  0.54494  1.0000
  H   H3824     1.0  0.51028  0.06432  0.66098  1.0000
  H   H3825     1.0  0.92692  0.20948  0.60089  1.0000
  H   H3826     1.0  0.80091  0.99438  0.56026  1.0000
  C   C4784     1.0  0.86149  0.05294  0.54528  1.0000
  C   C4785     1.0  0.89095  0.03865  0.54508  1.0000
  H   H3827     1.0  0.72258  0.02797  0.56471  1.0000
  H   H3828     1.0  0.83570  0.03122  0.55511  1.0000
  C   C4786     1.0  0.50223  0.06511  0.66769  1.0000
  H   H3829     1.0  0.96238  0.14729  0.50856  1.0000
  C   C4787     1.0  0.83174  0.05054  0.51760  1.0000
  C   C4788     1.0  0.83075  0.99873  0.53957  1.0000
  C   C4789     1.0  0.91078  0.22683  0.63161  1.0000
  C   C4790     1.0  0.64087  0.03251  0.51406  1.0000
  C   C4791     1.0  0.96439  0.18469  0.61048  1.0000
  C   C4792     1.0  0.73110  0.00531  0.53408  1.0000
  C   C4793     1.0  0.89862  0.22938  0.63239  1.0000
  H   H3830     1.0  0.76568  0.01772  0.57885  1.0000
  C   C4794     1.0  0.74022  0.03895  0.54588  1.0000
  C   C4795     1.0  0.93095  0.16644  0.50900  1.0000
  H   H3831     1.0  0.55084  0.00157  0.63812  1.0000
  C   C4796     1.0  0.72648  0.03850  0.53490  1.0000
  H   H3832     1.0  0.85699  0.08690  0.57189  1.0000
  Fe  Fe341     1.0  0.79463  0.03534  0.53772  1.0000
  H   H3833     1.0  0.85708  0.04819  0.56414  1.0000
  C   C4797     1.0  0.51336  0.00178  0.73724  1.0000
  C   C4798     1.0  0.90134  0.13385  0.52543  1.0000
  P   P156      1.0  0.98757  0.13780  0.50525  1.0000
  H   H3834     1.0  0.93608  0.06552  0.52602  1.0000
  C   C4799     1.0  0.57866  0.08627  0.65886  1.0000
  C   C4800     1.0  0.59175  0.09831  0.65813  1.0000
  C   C4801     1.0  0.76008  0.07226  0.51631  1.0000
  C   C4802     1.0  0.75350  0.06373  0.52179  1.0000
  C   C4803     1.0  0.74779  0.06022  0.51534  1.0000
  H   H3835     1.0  0.92490  0.20369  0.63790  1.0000
  C   C4804     1.0  0.88689  0.21354  0.57572  1.0000
  H   H3836     1.0  0.89119  0.19647  0.58693  1.0000
  C   C4805     1.0  0.89330  0.20198  0.57829  1.0000
  H   H3837     1.0  0.92222  0.21776  0.55556  1.0000
  C   C4806     1.0  0.92518  0.20822  0.61931  1.0000
  S   S665      1.0  0.62075  0.99884  0.52751  1.0000
  H   H3838     1.0  0.97807  0.09201  0.51922  1.0000
  C   C4807     1.0  0.94533  0.22193  0.61422  1.0000
  H   H3839     1.0  0.82022  0.05361  0.55000  1.0000
  C   C4808     1.0  0.88997  0.22078  0.56471  1.0000
  C   C4809     1.0  0.90263  0.19757  0.56977  1.0000
  H   H3840     1.0  0.63650  0.02275  0.57966  1.0000
  S   S666      1.0  0.69191  0.04659  0.51267  1.0000
  C   C4810     1.0  0.93002  0.18830  0.63073  1.0000
  H   H3841     1.0  0.60680  0.07016  0.65777  1.0000
  H   H3842     1.0  0.76483  0.07469  0.52123  1.0000
  H   H3843     1.0  0.75296  0.05967  0.53101  1.0000
  H   H3844     1.0  0.74281  0.05353  0.51971  1.0000
  C   C4811     1.0  0.53958  0.03070  0.65236  1.0000
  H   H3845     1.0  0.75465  0.03702  0.58344  1.0000
  C   C4812     1.0  0.69678  0.99522  0.53587  1.0000
  C   C4813     1.0  0.91720  0.06854  0.52975  1.0000
  C   C4814     1.0  0.89392  0.22876  0.51178  1.0000
  Fe  Fe342     1.0  0.67460  0.04250  0.52323  1.0000
  C   C4815     1.0  0.88199  0.00490  0.54296  1.0000
  C   C4816     1.0  0.89949  0.21645  0.55616  1.0000
  H   H3846     1.0  0.90065  0.23930  0.51865  1.0000
  C   C4817     1.0  0.59798  0.06525  0.62340  1.0000
  C   C4818     1.0  0.58625  0.05063  0.63034  1.0000
  C   C4819     1.0  0.58411  0.05218  0.64178  1.0000
  C   C4820     1.0  0.58864  0.06046  0.64410  1.0000
  C   C4821     1.0  0.59574  0.06689  0.63484  1.0000
  P   P157      1.0  0.58578  0.06230  0.65898  1.0000
  C   C4822     1.0  0.57068  0.06191  0.66635  1.0000
  C   C4823     1.0  0.59560  0.05079  0.66697  1.0000
  C   C4824     1.0  0.59786  0.05233  0.67709  1.0000
  C   C4825     1.0  0.60524  0.04338  0.68343  1.0000
  C   C4826     1.0  0.61047  0.03284  0.67971  1.0000
  C   C4827     1.0  0.60832  0.03124  0.66965  1.0000
  C   C4828     1.0  0.60090  0.04015  0.66331  1.0000
  C   C4829     1.0  0.56746  0.05911  0.67866  1.0000
  C   C4830     1.0  0.55588  0.05850  0.68439  1.0000
  C   C4831     1.0  0.54734  0.06097  0.67788  1.0000
  C   C4832     1.0  0.55038  0.06406  0.66565  1.0000
  C   C4833     1.0  0.56196  0.06463  0.65990  1.0000
  C   C4834     1.0  0.58808  0.07639  0.65870  1.0000
  H   H3847     1.0  0.58247  0.04435  0.62868  1.0000
  H   H3848     1.0  0.57883  0.04693  0.64883  1.0000
  H   H3849     1.0  0.59955  0.07318  0.63638  1.0000
  H   H3850     1.0  0.59372  0.06032  0.68028  1.0000
  H   H3851     1.0  0.60653  0.04440  0.69153  1.0000
  H   H3852     1.0  0.61581  0.02574  0.68490  1.0000
  H   H3853     1.0  0.61201  0.02287  0.66705  1.0000
  H   H3854     1.0  0.59919  0.03854  0.65573  1.0000
  H   H3855     1.0  0.57388  0.05730  0.68387  1.0000
  H   H3856     1.0  0.55361  0.05591  0.69388  1.0000
  H   H3857     1.0  0.53843  0.06023  0.68227  1.0000
  H   H3858     1.0  0.54384  0.06569  0.66056  1.0000
  H   H3859     1.0  0.56406  0.06703  0.65041  1.0000
  H   H3860     1.0  0.56990  0.08559  0.65917  1.0000
  C   C4835     1.0  0.97929  0.21016  0.56656  1.0000
  C   C4836     1.0  0.60060  0.02345  0.54633  1.0000
  C   C4837     1.0  0.59937  0.07763  0.65808  1.0000
  H   H3861     1.0  0.60342  0.07025  0.61627  1.0000
  P   P158      1.0  0.89274  0.07335  0.53317  1.0000
  C   C4838     1.0  0.62346  0.04160  0.56267  1.0000
  H   H3862     1.0  0.74664  0.00955  0.55749  1.0000
  H   H3863     1.0  0.81751  0.02725  0.56900  1.0000
  P   P159      1.0  0.90397  0.22588  0.54211  1.0000
  S   S667      1.0  0.84768  0.06436  0.51297  1.0000
  C   C4839     1.0  0.74747  0.02059  0.50426  1.0000
  C   C4840     1.0  0.51520  0.06854  0.70062  1.0000
  C   C4841     1.0  0.97522  0.12654  0.54356  1.0000
  C   C4842     1.0  0.74297  0.04519  0.49940  1.0000
  C   C4843     1.0  0.88400  0.07569  0.55640  1.0000
  C   C4844     1.0  0.87992  0.17886  0.56046  1.0000
  S   S668      1.0  0.93143  0.08293  0.50053  1.0000
  C   C4845     1.0  0.73612  0.02724  0.50367  1.0000
  C   C4846     1.0  0.83534  0.02223  0.55951  1.0000
  C   C4847     1.0  0.72015  0.07209  0.50939  1.0000
  C   C4848     1.0  0.75496  0.07401  0.49793  1.0000
  C   C4849     1.0  0.53087  0.01318  0.72228  1.0000
  H   H3864     1.0  0.98253  0.20230  0.52134  1.0000
  C   C4850     1.0  0.96469  0.12283  0.54699  1.0000
  C   C4851     1.0  0.97328  0.23161  0.52044  1.0000
  H   H3865     1.0  0.89997  0.09387  0.51570  1.0000
  H   H3866     1.0  0.86453  0.03519  0.52695  1.0000
  C   C4852     1.0  0.86985  0.08321  0.54402  1.0000
  C   C4853     1.0  0.91437  0.23139  0.60576  1.0000
  C   C4854     1.0  0.96481  0.11086  0.55062  1.0000
  C   C4855     1.0  0.86316  0.00515  0.52746  1.0000
  C   C4856     1.0  0.88279  0.17545  0.54974  1.0000
  C   C4857     1.0  0.79732  0.08483  0.50898  1.0000
  H   H3867     1.0  0.89837  0.09196  0.54016  1.0000
  C   C4858     1.0  0.62908  0.03854  0.51655  1.0000
  C   C4859     1.0  0.89959  0.04164  0.52428  1.0000
  C   C4860     1.0  0.87787  0.08453  0.50455  1.0000
  H   H3868     1.0  0.87746  0.19856  0.50412  1.0000
  H   H3869     1.0  0.76616  0.08378  0.50009  1.0000
  Fe  Fe343     1.0  0.62439  0.00088  0.49412  1.0000
  H   H3870     1.0  0.76136  0.04262  0.49922  1.0000
  C   C4861     1.0  0.89217  0.99753  0.54632  1.0000
  H   H3871     1.0  0.98360  0.21733  0.53090  1.0000
  C   C4862     1.0  0.90722  0.99751  0.51563  1.0000
  C   C4863     1.0  0.52600  0.01518  0.73363  1.0000
  C   C4864     1.0  0.87716  0.19026  0.51036  1.0000
  C   C4865     1.0  0.98547  0.15446  0.56992  1.0000
  C   C4866     1.0  0.66419  0.99711  0.53734  1.0000
  C   C4867     1.0  0.75425  0.03842  0.50041  1.0000
  H   H3872     1.0  0.64458  0.02601  0.53841  1.0000
  H   H3873     1.0  0.90491  0.21803  0.60796  1.0000
  H   H3874     1.0  0.88252  0.00976  0.53398  1.0000
  H   H3875     1.0  0.83012  0.07242  0.49512  1.0000
  H   H3876     1.0  0.72905  0.02290  0.50507  1.0000
  C   C4868     1.0  0.63141  0.00925  0.59449  1.0000
  H   H3877     1.0  0.75516  0.00382  0.57742  1.0000
  C   C4869     1.0  0.72509  0.06769  0.49912  1.0000
  C   C4870     1.0  0.97862  0.19625  0.59075  1.0000
  C   C4871     1.0  0.89050  0.21823  0.51374  1.0000
  H   H3878     1.0  0.78277  0.00560  0.50199  1.0000
  H   H3879     1.0  0.55746  0.00827  0.72813  1.0000
  Fe  Fe344     1.0  0.95317  0.11501  0.49325  1.0000
  H   H3880     1.0  0.98031  0.08321  0.59161  1.0000
  H   H3881     1.0  0.70592  0.99575  0.62022  1.0000
  H   H3882     1.0  0.60480  0.02231  0.60277  1.0000
  H   H3883     1.0  0.88345  0.00640  0.50348  1.0000
  P   P160      1.0  0.74056  0.06099  0.49538  1.0000
  C   C4872     1.0  0.98671  0.08046  0.58408  1.0000
  C   C4873     1.0  0.89768  0.23126  0.52049  1.0000
  C   C4874     1.0  0.65651  0.00385  0.53010  1.0000
  C   C4875     1.0  0.98798  0.23347  0.58706  1.0000
  H   H3884     1.0  0.52269  0.99801  0.54723  1.0000
  C   C4876     1.0  0.87090  0.00019  0.56290  1.0000
  C   C4877     1.0  0.73789  0.01529  0.58099  1.0000
  H   H3885     1.0  0.60509  0.00085  0.69976  1.0000
  S   S669      1.0  0.59005  0.99328  0.65551  1.0000
  H   H3886     1.0  0.59649  0.01406  0.57609  1.0000
  H   H3887     1.0  0.58658  0.03645  0.60950  1.0000
  S   S670      1.0  0.60443  0.00264  0.62312  1.0000
  C   C4878     1.0  0.89486  0.23122  0.65252  1.0000
  H   H3888     1.0  0.52899  0.02111  0.73666  1.0000
  H   H3889     1.0  0.98148  0.24050  0.59063  1.0000
  H   H3890     1.0  0.66440  0.06475  0.49441  1.0000
  C   C4879     1.0  0.99209  0.08437  0.49126  1.0000
  H   H3891     1.0  0.52349  0.99852  0.69289  1.0000
  P   P161      1.0  0.73012  0.00508  0.58011  1.0000
  C   C4880     1.0  0.58175  0.00300  0.60437  1.0000
  H   H3892     1.0  0.62899  0.01477  0.60081  1.0000
  C   C4881     1.0  0.50346  0.07486  0.70163  1.0000
  H   H3893     1.0  0.78427  0.99568  0.54463  1.0000
  C   C4882     1.0  0.99041  0.10266  0.50916  1.0000
  C   C4883     1.0  0.82848  0.99641  0.50189  1.0000
  H   H3894     1.0  0.75914  0.99670  0.54410  1.0000
  H   H3895     1.0  0.91332  0.24038  0.55123  1.0000
  H   H3896     1.0  0.63049  0.00134  0.54920  1.0000
  H   H3897     1.0  0.59736  0.01454  0.53495  1.0000
  C   C4884     1.0  0.93286  0.24021  0.61895  1.0000
  S   S671      1.0  0.63674  0.00645  0.50102  1.0000
  C   C4885     1.0  0.64439  0.00532  0.53444  1.0000
  H   H3898     1.0  0.69735  0.00392  0.53093  1.0000
  C   C4886     1.0  0.79170  0.03131  0.49311  1.0000
  H   H3899     1.0  0.98178  0.20417  0.60314  1.0000
  H   H3900     1.0  0.69139  0.08016  0.50782  1.0000
  C   C4887     1.0  0.55416  0.99395  0.62317  1.0000
  C   C4888     1.0  0.72035  0.99384  0.55106  1.0000
  C   C4889     1.0  0.59398  0.00526  0.55299  1.0000
  C   C4890     1.0  0.78576  0.99916  0.49656  1.0000
  H   H3901     1.0  0.62326  0.99323  0.63965  1.0000
  H   H3902     1.0  0.89403  0.23483  0.50334  1.0000
  H   H3903     1.0  0.80692  0.01321  0.55659  1.0000
  C   C4891     1.0  0.57073  0.99701  0.69924  1.0000
  H   H3904     1.0  0.87011  0.99872  0.53107  1.0000
  H   H3905     1.0  0.96173  0.24046  0.61402  1.0000
  C   C4892     1.0  0.70567  0.07268  0.49499  1.0000
  H   H3906     1.0  0.99232  0.13821  0.54927  1.0000
  H   H3907     1.0  0.90804  0.05920  0.49447  1.0000
  H   H3908     1.0  0.50568  0.03645  0.73450  1.0000
  H   H3909     1.0  0.83895  0.00013  0.53369  1.0000
  C   C4893     1.0  0.91650  0.24230  0.59898  1.0000
  C   C4894     1.0  0.91036  0.06764  0.49184  1.0000
  H   H3910     1.0  0.99399  0.12142  0.54063  1.0000
  H   H3911     1.0  0.99187  0.06261  0.59338  1.0000
  H   H3912     1.0  0.59083  0.99831  0.57162  1.0000
  H   H3913     1.0  0.51503  0.99410  0.72277  1.0000
  H   H3914     1.0  0.98345  0.16249  0.49263  1.0000
  H   H3915     1.0  0.99565  0.16607  0.57040  1.0000
  H   H3916     1.0  0.57452  0.99385  0.69118  1.0000
  C   C4895     1.0  0.80933  0.99553  0.55462  1.0000
  S   S672      1.0  0.49807  0.01109  0.67086  1.0000
  C   C4896     1.0  0.71640  0.99976  0.60271  1.0000
  H   H3917     1.0  0.52871  0.08056  0.73809  1.0000
  H   H3918     1.0  0.99480  0.17264  0.53229  1.0000
  H   H3919     1.0  0.70887  0.99711  0.58286  1.0000
  H   H3920     1.0  0.69498  0.99387  0.49219  1.0000
  H   H3921     1.0  0.74220  0.99608  0.52087  1.0000
  H   H3922     1.0  0.89585  0.22809  0.59103  1.0000
  C   C4897     1.0  0.64758  0.99309  0.55328  1.0000
  H   H3923     1.0  0.97823  0.18540  0.49167  1.0000
  H   H3924     1.0  0.85085  0.99401  0.55998  1.0000
  H   H3925     1.0  0.67359  0.99587  0.53392  1.0000
  S   S673      1.0  0.91228  0.14161  0.49098  1.0000
  C   C4898     1.0  0.99324  0.06887  0.58509  1.0000
  H   H3926     1.0  0.62721  0.99409  0.60753  1.0000
  C   C4899     1.0  0.72715  0.99659  0.59492  1.0000
  C   C4900     1.0  0.69093  0.99330  0.54765  1.0000
  C   C4901     1.0  0.73901  0.99576  0.57013  1.0000
  C   C4902     1.0  0.73642  0.99528  0.52947  1.0000
  C   C4903     1.0  0.50527  0.99524  0.55101  1.0000
  C   C4904     1.0  0.99511  0.15978  0.56595  1.0000
  H   H3927     1.0  0.88133  0.23357  0.64334  1.0000
  H   H3928     1.0  0.71370  0.99338  0.55914  1.0000
  C   C4905     1.0  0.83088  0.99326  0.51309  1.0000
  C   C4906     1.0  0.71426  0.99331  0.61427  1.0000
  C   C4907     1.0  0.75328  0.99316  0.55199  1.0000
  C   C4908     1.0  0.57685  0.99321  0.70823  1.0000
  H   H3929     1.0  0.55039  0.22674  0.93480  1.0000
  H   H3930     1.0  0.53393  0.13637  0.93071  1.0000
  C   C4909     1.0  0.53080  0.16698  0.86285  1.0000
  C   C4910     1.0  0.53714  0.11046  0.94052  1.0000
  C   C4911     1.0  0.51363  0.99963  0.78342  1.0000
  H   H3931     1.0  0.56233  0.17322  0.97528  1.0000
  H   H3932     1.0  0.53802  0.09877  0.96937  1.0000
  Fe  Fe345     1.0  0.58036  0.18478  0.90127  1.0000
  S   S674      1.0  0.57045  0.17686  0.91880  1.0000
  S   S675      1.0  0.57867  0.18363  0.88369  1.0000
  Fe  Fe346     1.0  0.56856  0.19412  0.92319  1.0000
  C   C4912     1.0  0.49834  0.16804  0.90685  1.0000
  Fe  Fe347     1.0  0.58763  0.17208  0.92428  1.0000
  S   S676      1.0  0.59460  0.15439  0.93490  1.0000
  H   H3933     1.0  0.54094  0.99595  0.81548  1.0000
  S   S677      1.0  0.59785  0.17851  0.90627  1.0000
  Fe  Fe348     1.0  0.53372  0.11576  0.89043  1.0000
  S   S678      1.0  0.54942  0.11923  0.89396  1.0000
  S   S679      1.0  0.53792  0.09887  0.88380  1.0000
  C   C4913     1.0  0.50093  0.11172  0.89770  1.0000
  Fe  Fe349     1.0  0.54236  0.13823  0.88712  1.0000
  S   S680      1.0  0.55413  0.14920  0.87372  1.0000
  Fe  Fe350     1.0  0.53801  0.12234  0.91127  1.0000
  S   S681      1.0  0.52758  0.13467  0.88197  1.0000
  Fe  Fe351     1.0  0.51729  0.06994  0.84188  1.0000
  H   H3934     1.0  0.50053  0.23272  0.88681  1.0000
  C   C4914     1.0  0.55685  0.23587  0.95543  1.0000
  Fe  Fe352     1.0  0.52756  0.06236  0.81824  1.0000
  S   S682      1.0  0.51803  0.04778  0.82341  1.0000
  S   S683      1.0  0.53698  0.06787  0.79942  1.0000
  H   H3935     1.0  0.53670  0.02528  0.77582  1.0000
  Fe  Fe353     1.0  0.52332  0.04406  0.84051  1.0000
  S   S684      1.0  0.52996  0.02537  0.84980  1.0000
  H   H3936     1.0  0.54520  0.08456  0.74348  1.0000
  S   S685      1.0  0.53415  0.05781  0.83485  1.0000
  S   S686      1.0  0.51343  0.08518  0.85103  1.0000
  C   C4915     1.0  0.54178  0.10564  0.95061  1.0000
  H   H3937     1.0  0.55113  0.10404  0.94989  1.0000
  S   S687      1.0  0.54660  0.11392  0.92672  1.0000
  C   C4916     1.0  0.53101  0.09528  0.87463  1.0000
  C   C4917     1.0  0.53557  0.08445  0.87119  1.0000
  C   C4918     1.0  0.53048  0.08127  0.86379  1.0000
  C   C4919     1.0  0.52066  0.08887  0.85986  1.0000
  H   H3938     1.0  0.54311  0.07848  0.87423  1.0000
  H   H3939     1.0  0.53405  0.07291  0.86123  1.0000
  C   C4920     1.0  0.62426  0.12728  0.92635  1.0000
  H   H3940     1.0  0.53304  0.22244  0.97975  1.0000
  C   C4921     1.0  0.54972  0.05752  0.78106  1.0000
  C   C4922     1.0  0.54861  0.05766  0.79282  1.0000
  C   C4923     1.0  0.55727  0.05041  0.79875  1.0000
  C   C4924     1.0  0.51989  0.21636  0.92824  1.0000
  C   C4925     1.0  0.58530  0.13667  0.86998  1.0000
  H   H3941     1.0  0.54301  0.06303  0.77647  1.0000
  H   H3942     1.0  0.55653  0.05056  0.80779  1.0000
  C   C4926     1.0  0.52126  0.10292  0.87063  1.0000
  C   C4927     1.0  0.51435  0.99682  0.84607  1.0000
  C   C4928     1.0  0.59894  0.15527  0.94720  1.0000
  C   C4929     1.0  0.59281  0.16398  0.95358  1.0000
  C   C4930     1.0  0.59660  0.16462  0.96324  1.0000
  C   C4931     1.0  0.60673  0.15676  0.96632  1.0000
  C   C4932     1.0  0.61276  0.14799  0.96002  1.0000
  C   C4933     1.0  0.60874  0.14711  0.95064  1.0000
  H   H3943     1.0  0.58506  0.17013  0.95118  1.0000
  H   H3944     1.0  0.59183  0.17134  0.96814  1.0000
  H   H3945     1.0  0.62052  0.14184  0.96245  1.0000
  H   H3946     1.0  0.61340  0.14025  0.94589  1.0000
  C   C4934     1.0  0.60066  0.12929  0.85452  1.0000
  H   H3947     1.0  0.56204  0.21984  0.86997  1.0000
  C   C4935     1.0  0.53392  0.21787  0.90957  1.0000
  C   C4936     1.0  0.60971  0.21068  0.98293  1.0000
  C   C4937     1.0  0.51610  0.09969  0.86334  1.0000
  C   C4938     1.0  0.57060  0.17464  0.88176  1.0000
  C   C4939     1.0  0.56435  0.16749  0.89112  1.0000
  C   C4940     1.0  0.55879  0.15989  0.88885  1.0000
  C   C4941     1.0  0.55961  0.15938  0.87727  1.0000
  C   C4942     1.0  0.56566  0.16670  0.86801  1.0000
  C   C4943     1.0  0.57100  0.17436  0.87024  1.0000
  H   H3948     1.0  0.56393  0.16772  0.90005  1.0000
  H   H3949     1.0  0.55402  0.15433  0.89601  1.0000
  H   H3950     1.0  0.56635  0.16635  0.85905  1.0000
  H   H3951     1.0  0.57571  0.17992  0.86297  1.0000
  H   H3952     1.0  0.51770  0.11130  0.87314  1.0000
  C   C4944     1.0  0.62229  0.18055  0.95376  1.0000
  C   C4945     1.0  0.57106  0.12792  0.97690  1.0000
  S   S688      1.0  0.49866  0.14629  0.90312  1.0000
  C   C4946     1.0  0.52731  0.00276  0.85416  1.0000
  C   C4947     1.0  0.52419  0.01438  0.84799  1.0000
  S   S689      1.0  0.54442  0.01713  0.75410  1.0000
  C   C4948     1.0  0.58434  0.20806  0.94659  1.0000
  H   H3953     1.0  0.51549  0.22816  0.95879  1.0000
  H   H3954     1.0  0.53345  0.00056  0.85978  1.0000
  C   C4949     1.0  0.58048  0.02125  0.81793  1.0000
  H   H3955     1.0  0.56109  0.11444  0.98492  1.0000
  C   C4950     1.0  0.52594  0.18637  0.90047  1.0000
  H   H3956     1.0  0.49861  0.05943  0.77267  1.0000
  H   H3957     1.0  0.51674  0.16080  0.87637  1.0000
  C   C4951     1.0  0.54512  0.23928  0.95423  1.0000
  H   H3958     1.0  0.51497  0.03569  0.86900  1.0000
  H   H3959     1.0  0.56131  0.20477  0.88847  1.0000
  C   C4952     1.0  0.53088  0.16891  0.91541  1.0000
  C   C4953     1.0  0.58397  0.99966  0.78978  1.0000
  C   C4954     1.0  0.53071  0.17429  0.90367  1.0000
  C   C4955     1.0  0.50663  0.06450  0.78370  1.0000
  H   H3960     1.0  0.52155  0.15434  0.95905  1.0000
  H   H3961     1.0  0.50399  0.19348  0.88010  1.0000
  C   C4956     1.0  0.52240  0.16699  0.87339  1.0000
  H   H3962     1.0  0.49715  0.08142  0.87435  1.0000
  C   C4957     1.0  0.51628  0.01711  0.84074  1.0000
  S   S690      1.0  0.50698  0.05578  0.84881  1.0000
  H   H3963     1.0  0.59742  0.10897  0.90965  1.0000
  H   H3964     1.0  0.50305  0.18256  0.94672  1.0000
  C   C4958     1.0  0.55950  0.05026  0.77521  1.0000
  C   C4959     1.0  0.51205  0.18755  0.96847  1.0000
  H   H3965     1.0  0.53443  0.16901  0.89711  1.0000
  C   C4960     1.0  0.51182  0.21572  0.88583  1.0000
  C   C4961     1.0  0.58722  0.13615  0.90540  1.0000
  C   C4962     1.0  0.52911  0.21093  0.93405  1.0000
  C   C4963     1.0  0.50151  0.08134  0.90087  1.0000
  C   C4964     1.0  0.54070  0.20872  0.92758  1.0000
  H   H3966     1.0  0.54307  0.18867  0.86312  1.0000
  H   H3967     1.0  0.51362  0.06760  0.91004  1.0000
  C   C4965     1.0  0.54649  0.19952  0.88688  1.0000
  C   C4966     1.0  0.60736  0.20093  0.96908  1.0000
  C   C4967     1.0  0.61561  0.22503  0.89578  1.0000
  S   S691      1.0  0.59489  0.02191  0.74493  1.0000
  H   H3968     1.0  0.50145  0.22907  0.94732  1.0000
  H   H3969     1.0  0.62460  0.18152  0.96131  1.0000
  H   H3970     1.0  0.53840  0.08754  0.91050  1.0000
  C   C4968     1.0  0.53259  0.02932  0.75424  1.0000
  S   S692      1.0  0.51155  0.07547  0.82474  1.0000
  H   H3971     1.0  0.51459  0.09090  0.94357  1.0000
  H   H3972     1.0  0.60187  0.09087  0.90231  1.0000
  H   H3973     1.0  0.52728  0.20832  0.94352  1.0000
  H   H3974     1.0  0.54325  0.00361  0.77905  1.0000
  Fe  Fe354     1.0  0.51777  0.13702  0.90017  1.0000
  C   C4969     1.0  0.50553  0.99483  0.88142  1.0000
  C   C4970     1.0  0.50411  0.17012  0.97530  1.0000
  H   H3975     1.0  0.56031  0.05027  0.76613  1.0000
  H   H3976     1.0  0.51036  0.07850  0.75283  1.0000
  C   C4971     1.0  0.53819  0.20142  0.88017  1.0000
  H   H3977     1.0  0.55359  0.21704  0.98207  1.0000
  C   C4972     1.0  0.50232  0.23678  0.97176  1.0000
  C   C4973     1.0  0.53850  0.14439  0.97730  1.0000
  Fe  Fe355     1.0  0.57937  0.02866  0.75856  1.0000
  H   H3978     1.0  0.52004  0.01847  0.76078  1.0000
  H   H3979     1.0  0.54117  0.15193  0.97781  1.0000
  C   C4974     1.0  0.54663  0.13509  0.97265  1.0000
  C   C4975     1.0  0.53085  0.12486  0.97735  1.0000
  S   S693      1.0  0.61203  0.15788  0.97791  1.0000
  C   C4976     1.0  0.58881  0.12469  0.98392  1.0000
  P   P162      1.0  0.56186  0.13606  0.96665  1.0000
  C   C4977     1.0  0.50916  0.06794  0.88359  1.0000
  C   C4978     1.0  0.56894  0.13042  0.95349  1.0000
  C   C4979     1.0  0.58089  0.13037  0.94873  1.0000
  C   C4980     1.0  0.58702  0.12512  0.93925  1.0000
  C   C4981     1.0  0.58127  0.11982  0.93445  1.0000
  C   C4982     1.0  0.56929  0.12022  0.93881  1.0000
  C   C4983     1.0  0.56306  0.12569  0.94815  1.0000
  H   H3980     1.0  0.60658  0.18267  0.97603  1.0000
  H   H3981     1.0  0.54888  0.11743  0.97044  1.0000
  C   C4984     1.0  0.56341  0.22910  0.91876  1.0000
  C   C4985     1.0  0.50990  0.18904  0.95741  1.0000
  H   H3982     1.0  0.51486  0.17472  0.88839  1.0000
  C   C4986     1.0  0.56188  0.15145  0.96297  1.0000
  C   C4987     1.0  0.56281  0.15691  0.97133  1.0000
  C   C4988     1.0  0.56154  0.16906  0.96884  1.0000
  C   C4989     1.0  0.55897  0.17585  0.95818  1.0000
  C   C4990     1.0  0.55776  0.17052  0.94995  1.0000
  C   C4991     1.0  0.55932  0.15835  0.95227  1.0000
  C   C4992     1.0  0.50808  0.15327  0.95120  1.0000
  P   P163      1.0  0.49686  0.09026  0.91173  1.0000
  C   C4993     1.0  0.56574  0.20361  0.95800  1.0000
  S   S694      1.0  0.51101  0.22762  0.90882  1.0000
  C   C4994     1.0  0.62217  0.22316  0.92741  1.0000
  H   H3983     1.0  0.58552  0.13444  0.95229  1.0000
  H   H3984     1.0  0.59619  0.12532  0.93562  1.0000
  H   H3985     1.0  0.58599  0.11575  0.92712  1.0000
  H   H3986     1.0  0.56478  0.11643  0.93483  1.0000
  H   H3987     1.0  0.55374  0.12614  0.95106  1.0000
  H   H3988     1.0  0.50845  0.04201  0.88792  1.0000
  C   C4995     1.0  0.50914  0.17810  0.97742  1.0000
  H   H3989     1.0  0.51241  0.06309  0.87664  1.0000
  H   H3990     1.0  0.59768  0.99937  0.77406  1.0000
  S   S695      1.0  0.57285  0.01209  0.76442  1.0000
  H   H3991     1.0  0.56372  0.23924  0.94856  1.0000
  H   H3992     1.0  0.51324  0.01112  0.74979  1.0000
  H   H3993     1.0  0.55775  0.18526  0.95631  1.0000
  H   H3994     1.0  0.55543  0.17591  0.94187  1.0000
  H   H3995     1.0  0.55817  0.15437  0.94587  1.0000
  C   C4996     1.0  0.59562  0.11974  0.85639  1.0000
  C   C4997     1.0  0.58534  0.11859  0.86511  1.0000
  C   C4998     1.0  0.58018  0.12722  0.87179  1.0000
  P   P164      1.0  0.57848  0.10650  0.86730  1.0000
  C   C4999     1.0  0.56549  0.11146  0.86118  1.0000
  C   C5000     1.0  0.58872  0.09529  0.86010  1.0000
  C   C5001     1.0  0.59014  0.09637  0.84800  1.0000
  C   C5002     1.0  0.59798  0.08766  0.84240  1.0000
  C   C5003     1.0  0.60450  0.07786  0.84881  1.0000
  C   C5004     1.0  0.60324  0.07678  0.86082  1.0000
  C   C5005     1.0  0.59540  0.08548  0.86646  1.0000
  C   C5006     1.0  0.56142  0.10349  0.85775  1.0000
  C   C5007     1.0  0.55123  0.10720  0.85331  1.0000
  C   C5008     1.0  0.54491  0.11884  0.85242  1.0000
  C   C5009     1.0  0.54890  0.12683  0.85575  1.0000
  C   C5010     1.0  0.55916  0.12318  0.86007  1.0000
  C   C5011     1.0  0.57421  0.09986  0.88270  1.0000
  C   C5012     1.0  0.57790  0.10267  0.89132  1.0000
  C   C5013     1.0  0.57398  0.09791  0.90322  1.0000
  C   C5014     1.0  0.56669  0.08998  0.90658  1.0000
  C   C5015     1.0  0.56347  0.08669  0.89803  1.0000
  C   C5016     1.0  0.56714  0.09165  0.88616  1.0000
  H   H3996     1.0  0.59973  0.11340  0.85092  1.0000
  H   H3997     1.0  0.57205  0.12679  0.87831  1.0000
  H   H3998     1.0  0.58513  0.10392  0.84291  1.0000
  H   H3999     1.0  0.59891  0.08847  0.83310  1.0000
  H   H4000     1.0  0.61049  0.07106  0.84447  1.0000
  H   H4001     1.0  0.60825  0.06914  0.86579  1.0000
  H   H4002     1.0  0.59450  0.08445  0.87578  1.0000
  H   H4003     1.0  0.56593  0.09434  0.85870  1.0000
  H   H4004     1.0  0.54798  0.10095  0.85095  1.0000
  H   H4005     1.0  0.53681  0.12157  0.84935  1.0000
  H   H4006     1.0  0.54394  0.13584  0.85522  1.0000
  H   H4007     1.0  0.56193  0.12956  0.86266  1.0000
  H   H4008     1.0  0.58358  0.10870  0.88895  1.0000
  H   H4009     1.0  0.57630  0.10059  0.90989  1.0000
  H   H4010     1.0  0.56339  0.08654  0.91581  1.0000
  H   H4011     1.0  0.55782  0.08055  0.90055  1.0000
  H   H4012     1.0  0.56418  0.08924  0.87976  1.0000
  C   C5017     1.0  0.52128  0.02732  0.75737  1.0000
  C   C5018     1.0  0.61949  0.21331  0.93592  1.0000
  H   H4013     1.0  0.58937  0.15326  0.88522  1.0000
  H   H4014     1.0  0.51577  0.19382  0.97020  1.0000
  Fe  Fe356     1.0  0.58739  0.00592  0.75005  1.0000
  C   C5019     1.0  0.52969  0.08789  0.91605  1.0000
  Fe  Fe357     1.0  0.56239  0.02031  0.75067  1.0000
  H   H4015     1.0  0.52753  0.23711  0.96245  1.0000
  C   C5020     1.0  0.51725  0.00947  0.74109  1.0000
  C   C5021     1.0  0.51549  0.00565  0.80327  1.0000
  H   H4016     1.0  0.53204  0.23821  0.92786  1.0000
  C   C5022     1.0  0.52259  0.99530  0.80000  1.0000
  H   H4017     1.0  0.52478  0.08480  0.77848  1.0000
  H   H4018     1.0  0.51067  0.17703  0.98606  1.0000
  C   C5023     1.0  0.50393  0.05643  0.77916  1.0000
  C   C5024     1.0  0.57089  0.19767  0.96754  1.0000
  C   C5025     1.0  0.50665  0.01004  0.78663  1.0000
  C   C5026     1.0  0.61717  0.17764  0.93387  1.0000
  C   C5027     1.0  0.52897  0.14521  0.94499  1.0000
  H   H4019     1.0  0.51023  0.00179  0.87874  1.0000
  C   C5028     1.0  0.51968  0.15128  0.95238  1.0000
  H   H4020     1.0  0.50182  0.02092  0.79925  1.0000
  C   C5029     1.0  0.60831  0.21106  0.97180  1.0000
  H   H4021     1.0  0.58182  0.12601  0.89659  1.0000
  C   C5030     1.0  0.52236  0.99401  0.85325  1.0000
  H   H4022     1.0  0.56538  0.21998  0.91831  1.0000
  C   C5031     1.0  0.58119  0.13147  0.97661  1.0000
  H   H4023     1.0  0.51623  0.00799  0.81097  1.0000
  H   H4024     1.0  0.50417  0.12839  0.88718  1.0000
  C   C5032     1.0  0.56938  0.23693  0.91011  1.0000
  H   H4025     1.0  0.50481  0.02297  0.86487  1.0000
  C   C5033     1.0  0.49837  0.23254  0.95519  1.0000
  C   C5034     1.0  0.51412  0.06038  0.79155  1.0000
  S   S696      1.0  0.55209  0.20197  0.93493  1.0000
  C   C5035     1.0  0.54514  0.02661  0.78851  1.0000
  C   C5036     1.0  0.57519  0.22049  0.99027  1.0000
  H   H4026     1.0  0.62642  0.10872  0.92830  1.0000
  H   H4027     1.0  0.53496  0.99734  0.76656  1.0000
  H   H4028     1.0  0.54752  0.22320  0.85788  1.0000
  C   C5037     1.0  0.51522  0.14297  0.93521  1.0000
  C   C5038     1.0  0.54187  0.02049  0.78228  1.0000
  H   H4029     1.0  0.52506  0.04534  0.80044  1.0000
  H   H4030     1.0  0.57256  0.03303  0.82980  1.0000
  C   C5039     1.0  0.61617  0.11879  0.91548  1.0000
  H   H4031     1.0  0.62045  0.14618  0.92269  1.0000
  H   H4032     1.0  0.61229  0.09051  0.88165  1.0000
  C   C5040     1.0  0.60216  0.10889  0.90068  1.0000
  S   S697      1.0  0.53217  0.14183  0.90469  1.0000
  H   H4033     1.0  0.54266  0.03609  0.78671  1.0000
  C   C5041     1.0  0.53577  0.08536  0.76120  1.0000
  H   H4034     1.0  0.59638  0.12770  0.98390  1.0000
  H   H4035     1.0  0.56099  0.13037  0.90662  1.0000
  H   H4036     1.0  0.56822  0.15211  0.92487  1.0000
  S   S698      1.0  0.58126  0.03503  0.77353  1.0000
  C   C5042     1.0  0.54547  0.00828  0.78419  1.0000
  C   C5043     1.0  0.56885  0.11735  0.98443  1.0000
  H   H4037     1.0  0.58904  0.14773  0.91520  1.0000
  C   C5044     1.0  0.59550  0.13776  0.86131  1.0000
  H   H4038     1.0  0.52105  0.23763  0.84555  1.0000
  H   H4039     1.0  0.53787  0.14362  0.94602  1.0000
  C   C5045     1.0  0.55234  0.00217  0.79238  1.0000
  H   H4040     1.0  0.56410  0.15188  0.97991  1.0000
  C   C5046     1.0  0.60464  0.09862  0.89654  1.0000
  C   C5047     1.0  0.62266  0.11742  0.92379  1.0000
  H   H4041     1.0  0.50844  0.23668  0.97674  1.0000
  C   C5048     1.0  0.56327  0.14150  0.91638  1.0000
  H   H4042     1.0  0.61840  0.10832  0.86839  1.0000
  H   H4043     1.0  0.55539  0.99274  0.79354  1.0000
  H   H4044     1.0  0.55444  0.02553  0.80137  1.0000
  C   C5049     1.0  0.57908  0.13156  0.90286  1.0000
  H   H4045     1.0  0.61439  0.12631  0.87563  1.0000
  S   S699      1.0  0.57708  0.20263  0.90509  1.0000
  H   H4046     1.0  0.60464  0.19400  0.93434  1.0000
  H   H4047     1.0  0.58890  0.02363  0.81543  1.0000
  C   C5050     1.0  0.60580  0.11896  0.89331  1.0000
  C   C5051     1.0  0.61048  0.09842  0.88490  1.0000
  C   C5052     1.0  0.61394  0.10845  0.87744  1.0000
  C   C5053     1.0  0.54720  0.21663  0.86598  1.0000
  C   C5054     1.0  0.55187  0.02054  0.79681  1.0000
  C   C5055     1.0  0.51581  0.08252  0.76646  1.0000
  H   H4048     1.0  0.61520  0.11100  0.91364  1.0000
  H   H4049     1.0  0.58122  0.00917  0.78777  1.0000
  C   C5056     1.0  0.61434  0.23407  0.92735  1.0000
  H   H4050     1.0  0.52781  0.11722  0.97769  1.0000
  H   H4051     1.0  0.58943  0.21188  0.93828  1.0000
  C   C5057     1.0  0.52675  0.14110  0.93639  1.0000
  H   H4052     1.0  0.58657  0.19204  0.97405  1.0000
  H   H4053     1.0  0.63492  0.16411  0.95314  1.0000
  H   H4054     1.0  0.56569  0.19355  0.97562  1.0000
  Fe  Fe358     1.0  0.59370  0.19574  0.91167  1.0000
  C   C5058     1.0  0.61290  0.13990  0.91229  1.0000
  C   C5059     1.0  0.62575  0.16921  0.93910  1.0000
  C   C5060     1.0  0.52235  0.22008  0.91604  1.0000
  H   H4055     1.0  0.61050  0.21848  0.98497  1.0000
  H   H4056     1.0  0.53455  0.15960  0.91778  1.0000
  C   C5061     1.0  0.56720  0.13409  0.90845  1.0000
  C   C5062     1.0  0.50894  0.08901  0.91827  1.0000
  H   H4057     1.0  0.57415  0.03820  0.79723  1.0000
  P   P165      1.0  0.60274  0.13214  0.89885  1.0000
  H   H4058     1.0  0.59578  0.16909  0.86905  1.0000
  C   C5063     1.0  0.60760  0.19053  0.97778  1.0000
  C   C5064     1.0  0.51172  0.03662  0.75541  1.0000
  C   C5065     1.0  0.61111  0.13007  0.90973  1.0000
  H   H4059     1.0  0.62562  0.20492  0.93567  1.0000
  C   C5066     1.0  0.51299  0.20449  0.88406  1.0000
  C   C5067     1.0  0.58956  0.20230  0.95620  1.0000
  C   C5068     1.0  0.50760  0.03286  0.87552  1.0000
  S   S700      1.0  0.58492  0.18866  0.93009  1.0000
  H   H4060     1.0  0.55201  0.21028  0.91031  1.0000
  H   H4061     1.0  0.53229  0.21157  0.86439  1.0000
  C   C5069     1.0  0.53966  0.22630  0.97302  1.0000
  H   H4062     1.0  0.59289  0.22641  0.95081  1.0000
  C   C5070     1.0  0.49965  0.08824  0.78879  1.0000
  C   C5071     1.0  0.57249  0.20872  0.94753  1.0000
  C   C5072     1.0  0.52854  0.18300  0.87652  1.0000
  C   C5073     1.0  0.61902  0.14413  0.88289  1.0000
  S   S701      1.0  0.51268  0.10041  0.97615  1.0000
  H   H4063     1.0  0.51091  0.21785  0.93318  1.0000
  C   C5074     1.0  0.59799  0.22746  0.91108  1.0000
  H   H4064     1.0  0.52664  0.17142  0.93311  1.0000
  C   C5075     1.0  0.52645  0.17556  0.92403  1.0000
  H   H4065     1.0  0.51939  0.03109  0.79331  1.0000
  H   H4066     1.0  0.51662  0.06649  0.79482  1.0000
  C   C5076     1.0  0.54310  0.21204  0.91533  1.0000
  C   C5077     1.0  0.60378  0.23513  0.93576  1.0000
  C   C5078     1.0  0.52446  0.05025  0.74923  1.0000
  C   C5079     1.0  0.56726  0.04346  0.79277  1.0000
  H   H4067     1.0  0.50197  0.24066  0.85986  1.0000
  H   H4068     1.0  0.54311  0.08658  0.76375  1.0000
  C   C5080     1.0  0.57874  0.01308  0.81283  1.0000
  C   C5081     1.0  0.54276  0.12509  0.97316  1.0000
  C   C5082     1.0  0.52528  0.08446  0.76953  1.0000
  H   H4069     1.0  0.51860  0.19282  0.92754  1.0000
  C   C5083     1.0  0.51622  0.08995  0.93461  1.0000
  H   H4070     1.0  0.61516  0.17661  0.92614  1.0000
  C   C5084     1.0  0.57122  0.14642  0.91867  1.0000
  C   C5085     1.0  0.59778  0.23955  0.90893  1.0000
  C   C5086     1.0  0.55533  0.21479  0.87280  1.0000
  S   S702      1.0  0.52269  0.11775  0.90833  1.0000
  H   H4071     1.0  0.53574  0.22049  0.90010  1.0000
  H   H4072     1.0  0.58114  0.14333  0.87511  1.0000
  C   C5087     1.0  0.52672  0.14394  0.98181  1.0000
  C   C5088     1.0  0.55861  0.01541  0.82406  1.0000
  H   H4073     1.0  0.52569  0.05911  0.74619  1.0000
  H   H4074     1.0  0.55652  0.20424  0.95868  1.0000
  H   H4075     1.0  0.62563  0.13727  0.88673  1.0000
  C   C5089     1.0  0.51156  0.00834  0.83962  1.0000
  C   C5090     1.0  0.52283  0.13433  0.98157  1.0000
  H   H4076     1.0  0.63019  0.22229  0.92067  1.0000
  H   H4077     1.0  0.59928  0.14525  0.85978  1.0000
  C   C5091     1.0  0.52187  0.18761  0.92090  1.0000
  H   H4078     1.0  0.56859  0.21297  0.94004  1.0000
  H   H4079     1.0  0.60850  0.13022  0.84769  1.0000
  C   C5092     1.0  0.53696  0.08413  0.74982  1.0000
  C   C5093     1.0  0.61165  0.11866  0.88162  1.0000
  C   C5094     1.0  0.53865  0.20998  0.86965  1.0000
  H   H4080     1.0  0.58594  0.00922  0.80650  1.0000
  C   C5095     1.0  0.55123  0.22329  0.97436  1.0000
  C   C5096     1.0  0.62838  0.17072  0.94898  1.0000
  H   H4081     1.0  0.53185  0.16063  0.85772  1.0000
  H   H4082     1.0  0.51807  0.20234  0.90695  1.0000
  C   C5097     1.0  0.61329  0.18881  0.94885  1.0000
  C   C5098     1.0  0.51577  0.04037  0.79066  1.0000
  C   C5099     1.0  0.58277  0.19694  0.96664  1.0000
  C   C5100     1.0  0.59329  0.99415  0.78196  1.0000
  P   P166      1.0  0.50288  0.07999  0.77760  1.0000
  H   H4083     1.0  0.59145  0.22373  0.91804  1.0000
  S   S703      1.0  0.60865  0.20478  0.90759  1.0000
  H   H4084     1.0  0.55408  0.14340  0.92074  1.0000
  C   C5101     1.0  0.50631  0.23215  0.96166  1.0000
  S   S704      1.0  0.50129  0.05959  0.74824  1.0000
  H   H4085     1.0  0.52138  0.11612  0.93385  1.0000
  C   C5102     1.0  0.61944  0.13850  0.92056  1.0000
  C   C5103     1.0  0.53437  0.10268  0.96165  1.0000
  H   H4086     1.0  0.62915  0.12625  0.93291  1.0000
  C   C5104     1.0  0.52505  0.11240  0.94154  1.0000
  H   H4087     1.0  0.61682  0.16938  0.86189  1.0000
  H   H4088     1.0  0.54650  0.19290  0.89494  1.0000
  C   C5105     1.0  0.60915  0.19016  0.98885  1.0000
  C   C5106     1.0  0.56840  0.04337  0.78099  1.0000
  H   H4089     1.0  0.63177  0.15343  0.87074  1.0000
  H   H4090     1.0  0.51368  0.02600  0.83605  1.0000
  H   H4091     1.0  0.62266  0.21945  0.89079  1.0000
  C   C5107     1.0  0.51766  0.10943  0.95256  1.0000
  P   P167      1.0  0.52652  0.19357  0.88522  1.0000
  C   C5108     1.0  0.58312  0.14383  0.91317  1.0000
  H   H4092     1.0  0.50171  0.11427  0.79255  1.0000
  H   H4093     1.0  0.60913  0.14873  0.90805  1.0000
  C   C5109     1.0  0.55493  0.20629  0.88324  1.0000
  C   C5110     1.0  0.60111  0.22536  0.94436  1.0000
  C   C5111     1.0  0.52227  0.10455  0.96264  1.0000
  H   H4094     1.0  0.63027  0.16147  0.93557  1.0000
  C   C5112     1.0  0.51720  0.08093  0.75512  1.0000
  C   C5113     1.0  0.62255  0.15323  0.87380  1.0000
  C   C5114     1.0  0.61415  0.16220  0.86879  1.0000
  C   C5115     1.0  0.60226  0.16203  0.87285  1.0000
  C   C5116     1.0  0.59867  0.15302  0.88203  1.0000
  C   C5117     1.0  0.60705  0.14401  0.88713  1.0000
  C   C5118     1.0  0.53709  0.18285  0.86600  1.0000
  C   C5119     1.0  0.51879  0.04838  0.79488  1.0000
  C   C5120     1.0  0.52043  0.08790  0.91139  1.0000
  C   C5121     1.0  0.50225  0.09935  0.78599  1.0000
  H   H4095     1.0  0.54497  0.17457  0.85123  1.0000
  C   C5122     1.0  0.61105  0.18743  0.93867  1.0000
  C   C5123     1.0  0.52135  0.17488  0.88022  1.0000
  C   C5124     1.0  0.53417  0.04081  0.75058  1.0000
  H   H4096     1.0  0.58298  0.22267  0.98398  1.0000
  C   C5125     1.0  0.55981  0.22817  0.96560  1.0000
  C   C5126     1.0  0.55492  0.23295  0.92815  1.0000
  C   C5127     1.0  0.56775  0.01018  0.81579  1.0000
  H   H4097     1.0  0.60798  0.21929  0.96542  1.0000
  H   H4098     1.0  0.50849  0.10562  0.86039  1.0000
  C   C5128     1.0  0.53817  0.17488  0.85918  1.0000
  H   H4099     1.0  0.55002  0.01335  0.82648  1.0000
  H   H4100     1.0  0.56884  0.22575  0.96653  1.0000
  H   H4101     1.0  0.51370  0.13399  0.98520  1.0000
  H   H4102     1.0  0.55321  0.02774  0.83533  1.0000
  H   H4103     1.0  0.58328  0.13948  0.97075  1.0000
  Fe  Fe359     1.0  0.50250  0.06052  0.83110  1.0000
  C   C5129     1.0  0.57128  0.02656  0.82600  1.0000
  H   H4104     1.0  0.52058  0.05608  0.89459  1.0000
  C   C5130     1.0  0.55548  0.00827  0.79883  1.0000
  C   C5131     1.0  0.52158  0.19299  0.90918  1.0000
  C   C5132     1.0  0.56037  0.02360  0.82910  1.0000
  P   P168      1.0  0.56492  0.00029  0.80882  1.0000
  H   H4105     1.0  0.51878  0.21781  0.88821  1.0000
  H   H4106     1.0  0.51347  0.13966  0.92862  1.0000
  H   H4107     1.0  0.51268  0.99747  0.77573  1.0000
  C   C5133     1.0  0.60889  0.21432  0.94441  1.0000
  P   P169      1.0  0.60493  0.20149  0.95489  1.0000
  C   C5134     1.0  0.60698  0.22017  0.90452  1.0000
  S   S705      1.0  0.56762  0.03752  0.74579  1.0000
  H   H4108     1.0  0.49820  0.09115  0.93548  1.0000
  C   C5135     1.0  0.51329  0.04810  0.75122  1.0000
  H   H4109     1.0  0.50831  0.11090  0.95327  1.0000
  H   H4110     1.0  0.57609  0.23386  0.90292  1.0000
  C   C5136     1.0  0.50181  0.02563  0.87321  1.0000
  C   C5137     1.0  0.50842  0.04439  0.78274  1.0000
  H   H4111     1.0  0.51192  0.19648  0.95054  1.0000
  H   H4112     1.0  0.50654  0.03817  0.77910  1.0000
  H   H4113     1.0  0.50324  0.03477  0.75680  1.0000
  C   C5138     1.0  0.61524  0.23705  0.89346  1.0000
  C   C5139     1.0  0.50742  0.01296  0.79666  1.0000
  C   C5140     1.0  0.53657  0.23444  0.96311  1.0000
  H   H4114     1.0  0.52221  0.08737  0.90230  1.0000
  C   C5141     1.0  0.50150  0.22430  0.88486  1.0000
  H   H4115     1.0  0.50643  0.16397  0.90983  1.0000
  H   H4116     1.0  0.49701  0.15007  0.94177  1.0000
  H   H4117     1.0  0.49700  0.18505  0.91011  1.0000
  C   C5142     1.0  0.50363  0.20205  0.88125  1.0000
  C   C5143     1.0  0.49757  0.12342  0.89202  1.0000
  H   H4118     1.0  0.53472  0.08931  0.93115  1.0000
  C   C5144     1.0  0.51379  0.06407  0.89365  1.0000
  H   H4119     1.0  0.54200  0.99825  0.74536  1.0000
  H   H4120     1.0  0.54287  0.04243  0.74844  1.0000
  C   C5145     1.0  0.50393  0.03641  0.88620  1.0000
  C   C5146     1.0  0.50990  0.07068  0.90233  1.0000
  C   C5147     1.0  0.49678  0.08505  0.89083  1.0000
  C   C5148     1.0  0.50590  0.14894  0.94266  1.0000
  C   C5149     1.0  0.50691  0.09007  0.92994  1.0000
  H   H4121     1.0  0.58074  0.20202  0.99035  1.0000
  C   C5150     1.0  0.50173  0.17164  0.96424  1.0000
  H   H4122     1.0  0.50562  0.01055  0.83382  1.0000
  H   H4123     1.0  0.62198  0.24065  0.88665  1.0000
  C   C5151     1.0  0.52768  0.08191  0.74678  1.0000
  C   C5152     1.0  0.50478  0.18113  0.95529  1.0000
  H   H4124     1.0  0.50057  0.01579  0.78135  1.0000
  H   H4125     1.0  0.61630  0.24164  0.92058  1.0000
  H   H4126     1.0  0.52071  0.15086  0.98592  1.0000
  H   H4127     1.0  0.50630  0.99772  0.74288  1.0000
  H   H4128     1.0  0.51019  0.10770  0.89686  1.0000
  C   C5153     1.0  0.52760  0.08896  0.92764  1.0000
  H   H4129     1.0  0.54601  0.23706  0.89301  1.0000
  H   H4130     1.0  0.50646  0.10299  0.77713  1.0000
  H   H4131     1.0  0.49996  0.13500  0.96633  1.0000
  C   C5154     1.0  0.50056  0.07833  0.88227  1.0000
  C   C5155     1.0  0.57794  0.99297  0.79981  1.0000
  H   H4132     1.0  0.50219  0.16279  0.98233  1.0000
  C   C5156     1.0  0.49945  0.10582  0.79466  1.0000
  H   H4133     1.0  0.51260  0.24221  0.92355  1.0000
  P   P170      1.0  0.49613  0.16090  0.96097  1.0000
  H   H4134     1.0  0.61622  0.24239  0.96558  1.0000
  S   S706      1.0  0.60861  0.23977  0.99088  1.0000
  C   C5157     1.0  0.85746  0.42349  0.02246  1.0000
  H   H4135     1.0  0.64716  0.48647  0.04338  1.0000
  H   H4136     1.0  0.90611  0.42911  0.06222  1.0000
  H   H4137     1.0  0.86692  0.42624  0.10107  1.0000
  C   C5158     1.0  0.85787  0.37002  0.05039  1.0000
  S   S707      1.0  0.58498  0.32558  0.01393  1.0000
  C   C5159     1.0  0.99469  0.42471  0.15278  1.0000
  H   H4138     1.0  0.74675  0.36961  0.01212  1.0000
  H   H4139     1.0  0.92685  0.48896  0.22732  1.0000
  Fe  Fe360     1.0  0.66939  0.39849  0.00573  1.0000
  C   C5160     1.0  0.51340  0.28831  0.04165  1.0000
  S   S708      1.0  0.68473  0.39376  0.01433  1.0000
  S   S709      1.0  0.91367  0.48760  0.12209  1.0000
  H   H4140     1.0  0.98633  0.39418  0.16762  1.0000
  H   H4141     1.0  0.64418  0.25058  0.99313  1.0000
  H   H4142     1.0  0.62075  0.41623  0.99855  1.0000
  S   S710      1.0  0.64992  0.40123  0.01277  1.0000
  C   C5161     1.0  0.86720  0.47735  0.16911  1.0000
  H   H4143     1.0  0.80472  0.36267  0.03526  1.0000
  S   S711      1.0  0.57014  0.24908  0.03383  1.0000
  C   C5162     1.0  0.67219  0.47954  0.99171  1.0000
  C   C5163     1.0  0.53926  0.25576  0.01928  1.0000
  S   S712      1.0  0.90169  0.47774  0.00118  1.0000
  H   H4144     1.0  0.75893  0.34324  0.03931  1.0000
  H   H4145     1.0  0.49908  0.27935  0.99590  1.0000
  Fe  Fe361     1.0  0.58575  0.25723  0.02537  1.0000
  S   S713      1.0  0.58892  0.27072  0.03298  1.0000
  C   C5164     1.0  0.52272  0.33113  0.04199  1.0000
  C   C5165     1.0  0.77163  0.36629  0.03383  1.0000
  C   C5166     1.0  0.51830  0.32934  0.06300  1.0000
  C   C5167     1.0  0.51573  0.32154  0.01528  1.0000
  Fe  Fe362     1.0  0.72205  0.40399  0.06978  1.0000
  S   S714      1.0  0.72071  0.42242  0.07062  1.0000
  S   S715      1.0  0.73946  0.39131  0.07109  1.0000
  Fe  Fe363     1.0  0.69764  0.40988  0.06476  1.0000
  S   S716      1.0  0.69450  0.42894  0.06482  1.0000
  S   S717      1.0  0.68288  0.40305  0.06323  1.0000
  Fe  Fe364     1.0  0.71321  0.42743  0.05470  1.0000
  S   S718      1.0  0.71986  0.44191  0.04068  1.0000
  Fe  Fe365     1.0  0.70235  0.42220  0.08064  1.0000
  S   S719      1.0  0.69520  0.42980  0.09665  1.0000
  S   S720      1.0  0.71567  0.40896  0.05308  1.0000
  S   S721      1.0  0.70423  0.40314  0.08145  1.0000
  C   C5168     1.0  0.72166  0.46355  0.05551  1.0000
  H   H4146     1.0  0.50226  0.30289  0.00876  1.0000
  H   H4147     1.0  0.66363  0.43285  0.00555  1.0000
  H   H4148     1.0  0.83341  0.35546  0.02084  1.0000
  C   C5169     1.0  0.67076  0.42235  0.09591  1.0000
  S   S722      1.0  0.85085  0.41741  0.99727  1.0000
  S   S723      1.0  0.94181  0.41970  0.23727  1.0000
  H   H4149     1.0  0.99317  0.48851  0.15803  1.0000
  C   C5170     1.0  0.85516  0.38190  0.06430  1.0000
  C   C5171     1.0  0.78555  0.46718  0.15423  1.0000
  C   C5172     1.0  0.86583  0.39337  0.01328  1.0000
  C   C5173     1.0  0.77052  0.35467  0.03663  1.0000
  H   H4150     1.0  0.52927  0.25640  0.00696  1.0000
  C   C5174     1.0  0.80756  0.46572  0.11812  1.0000
  H   H4151     1.0  0.82962  0.44014  0.02785  1.0000
  C   C5175     1.0  0.68879  0.46973  0.08864  1.0000
  C   C5176     1.0  0.98659  0.39638  0.19487  1.0000
  H   H4152     1.0  0.90255  0.41909  0.09960  1.0000
  Fe  Fe366     1.0  0.80592  0.42314  0.06413  1.0000
  S   S724      1.0  0.79645  0.42485  0.08248  1.0000
  S   S725      1.0  0.80688  0.43946  0.05009  1.0000
  Fe  Fe367     1.0  0.81189  0.39694  0.07084  1.0000
  S   S726      1.0  0.80309  0.39636  0.08976  1.0000
  S   S727      1.0  0.82093  0.38026  0.06469  1.0000
  Fe  Fe368     1.0  0.78865  0.41028  0.08275  1.0000
  S   S728      1.0  0.76944  0.41226  0.09148  1.0000
  Fe  Fe369     1.0  0.81175  0.41102  0.08774  1.0000
  S   S729      1.0  0.81952  0.41118  0.10243  1.0000
  S   S730      1.0  0.79676  0.40973  0.06384  1.0000
  S   S731      1.0  0.82187  0.41033  0.06936  1.0000
  C   C5177     1.0  0.69106  0.45934  0.04023  1.0000
  C   C5178     1.0  0.61699  0.36623  0.99285  1.0000
  C   C5179     1.0  0.86350  0.38880  0.04366  1.0000
  H   H4153     1.0  0.88564  0.41082  0.10161  1.0000
  H   H4154     1.0  0.77983  0.36820  0.03371  1.0000
  C   C5180     1.0  0.71691  0.48521  0.08432  1.0000
  H   H4155     1.0  0.71394  0.38302  0.03304  1.0000
  S   S732      1.0  0.93867  0.44094  0.15873  1.0000
  C   C5181     1.0  0.91098  0.46090  0.10959  1.0000
  C   C5182     1.0  0.85395  0.37183  0.06184  1.0000
  H   H4156     1.0  0.88910  0.42117  0.06409  1.0000
  C   C5183     1.0  0.86271  0.41109  0.09854  1.0000
  H   H4157     1.0  0.76313  0.38444  0.02930  1.0000
  C   C5184     1.0  0.89505  0.47737  0.10520  1.0000
  H   H4158     1.0  0.94711  0.41505  0.17357  1.0000
  H   H4159     1.0  0.86602  0.42404  0.01677  1.0000
  Fe  Fe370     1.0  0.87656  0.45839  0.06687  1.0000
  S   S733      1.0  0.87660  0.44805  0.08528  1.0000
  S   S734      1.0  0.88548  0.44849  0.05231  1.0000
  Fe  Fe371     1.0  0.85797  0.45801  0.08962  1.0000
  S   S735      1.0  0.84387  0.45021  0.10347  1.0000
  H   H4160     1.0  0.69885  0.47133  0.04402  1.0000
  H   H4161     1.0  0.76936  0.32680  0.07447  1.0000
  Fe  Fe372     1.0  0.94074  0.45881  0.14781  1.0000
  C   C5185     1.0  0.87437  0.48441  0.16947  1.0000
  H   H4162     1.0  0.78947  0.41068  0.02801  1.0000
  C   C5186     1.0  0.93429  0.44061  0.17390  1.0000
  C   C5187     1.0  0.93835  0.44730  0.17893  1.0000
  C   C5188     1.0  0.89075  0.47093  0.14852  1.0000
  H   H4163     1.0  0.62805  0.33814  0.00261  1.0000
  C   C5189     1.0  0.84812  0.43330  0.02164  1.0000
  C   C5190     1.0  0.92695  0.43320  0.18112  1.0000
  H   H4164     1.0  0.94373  0.45329  0.17338  1.0000
  H   H4165     1.0  0.88963  0.36376  0.07799  1.0000
  C   C5191     1.0  0.76822  0.48095  0.10685  1.0000
  H   H4166     1.0  0.92367  0.42810  0.17730  1.0000
  H   H4167     1.0  0.80204  0.45091  0.10780  1.0000
  H   H4168     1.0  0.75349  0.47737  0.07472  1.0000
  C   C5192     1.0  0.72088  0.37728  0.06357  1.0000
  C   C5193     1.0  0.79965  0.46511  0.07333  1.0000
  S   S736      1.0  0.95422  0.46780  0.14831  1.0000
  H   H4169     1.0  0.73825  0.37924  0.05441  1.0000
  C   C5194     1.0  0.79251  0.36000  0.00173  1.0000
  H   H4170     1.0  0.56671  0.28498  0.02252  1.0000
  H   H4171     1.0  0.91568  0.45197  0.10921  1.0000
  C   C5195     1.0  0.88961  0.46873  0.03631  1.0000
  C   C5196     1.0  0.83695  0.43265  0.02866  1.0000
  H   H4172     1.0  0.89154  0.46530  0.13296  1.0000
  C   C5197     1.0  0.63842  0.46909  0.99714  1.0000
  C   C5198     1.0  0.75028  0.36144  0.03465  1.0000
  H   H4173     1.0  0.72827  0.46887  0.03696  1.0000
  H   H4174     1.0  0.66270  0.42088  0.07196  1.0000
  H   H4175     1.0  0.84977  0.36554  0.06876  1.0000
  C   C5199     1.0  0.80549  0.44989  0.05805  1.0000
  C   C5200     1.0  0.80909  0.44610  0.06867  1.0000
  C   C5201     1.0  0.80583  0.45357  0.07648  1.0000
  C   C5202     1.0  0.81816  0.48008  0.10480  1.0000
  H   H4176     1.0  0.96288  0.48644  0.16013  1.0000
  C   C5203     1.0  0.79959  0.46153  0.05469  1.0000
  H   H4177     1.0  0.81415  0.43728  0.07106  1.0000
  H   H4178     1.0  0.80821  0.45042  0.08491  1.0000
  C   C5204     1.0  0.55301  0.33339  0.02659  1.0000
  H   H4179     1.0  0.76436  0.43862  0.11683  1.0000
  C   C5205     1.0  0.82525  0.42323  0.10160  1.0000
  C   C5206     1.0  0.82271  0.42767  0.11169  1.0000
  C   C5207     1.0  0.82809  0.43634  0.11186  1.0000
  C   C5208     1.0  0.83641  0.44037  0.10209  1.0000
  C   C5209     1.0  0.83889  0.43608  0.09191  1.0000
  C   C5210     1.0  0.83309  0.42769  0.09157  1.0000
  H   H4180     1.0  0.81670  0.42424  0.11948  1.0000
  H   H4181     1.0  0.82617  0.43958  0.11978  1.0000
  H   H4182     1.0  0.84537  0.43913  0.08441  1.0000
  H   H4183     1.0  0.83500  0.42432  0.08376  1.0000
  H   H4184     1.0  0.88634  0.38019  0.06096  1.0000
  C   C5211     1.0  0.88440  0.37502  0.09033  1.0000
  C   C5212     1.0  0.51840  0.25624  0.02435  1.0000
  H   H4185     1.0  0.74763  0.47363  0.05910  1.0000
  C   C5213     1.0  0.50874  0.34374  0.00147  1.0000
  C   C5214     1.0  0.55835  0.28869  0.01999  1.0000
  H   H4186     1.0  0.75867  0.36734  0.08922  1.0000
  C   C5215     1.0  0.88513  0.48385  0.22867  1.0000
  C   C5216     1.0  0.54836  0.32636  0.02260  1.0000
  H   H4187     1.0  0.51355  0.28212  0.01140  1.0000
  Fe  Fe373     1.0  0.96060  0.42069  0.22938  1.0000
  H   H4188     1.0  0.72063  0.40116  0.01779  1.0000
  H   H4189     1.0  0.58887  0.28536  0.00886  1.0000
  C   C5217     1.0  0.92543  0.47058  0.04604  1.0000
  C   C5218     1.0  0.89906  0.45733  0.01749  1.0000
  C   C5219     1.0  0.89568  0.45091  0.02892  1.0000
  C   C5220     1.0  0.89072  0.45663  0.03832  1.0000
  H   H4190     1.0  0.93923  0.45086  0.19502  1.0000
  H   H4191     1.0  0.83034  0.45993  0.02750  1.0000
  H   H4192     1.0  0.87091  0.46832  0.16829  1.0000
  H   H4193     1.0  0.89664  0.44154  0.03041  1.0000
  H   H4194     1.0  0.80761  0.38275  0.03240  1.0000
  C   C5221     1.0  0.50022  0.30568  0.04783  1.0000
  C   C5222     1.0  0.82588  0.38320  0.04941  1.0000
  C   C5223     1.0  0.82419  0.39472  0.04271  1.0000
  C   C5224     1.0  0.82784  0.39682  0.03041  1.0000
  C   C5225     1.0  0.83309  0.38735  0.02489  1.0000
  C   C5226     1.0  0.83495  0.37590  0.03163  1.0000
  C   C5227     1.0  0.83132  0.37381  0.04385  1.0000
  H   H4195     1.0  0.82002  0.40200  0.04701  1.0000
  H   H4196     1.0  0.82651  0.40569  0.02521  1.0000
  C   C5228     1.0  0.99557  0.47293  0.11156  1.0000
  H   H4197     1.0  0.83265  0.36492  0.04900  1.0000
  H   H4198     1.0  0.92242  0.46349  0.11891  1.0000
  H   H4199     1.0  0.91276  0.42836  0.07999  1.0000
  C   C5229     1.0  0.74531  0.40584  0.01635  1.0000
  C   C5230     1.0  0.75304  0.44750  0.99985  1.0000
  H   H4200     1.0  0.92703  0.46214  0.03205  1.0000
  H   H4201     1.0  0.84176  0.47750  0.01097  1.0000
  C   C5231     1.0  0.90893  0.47902  0.11549  1.0000
  C   C5232     1.0  0.69245  0.44519  0.09327  1.0000
  C   C5233     1.0  0.69476  0.45159  0.08165  1.0000
  C   C5234     1.0  0.62653  0.28987  0.00464  1.0000
  H   H4202     1.0  0.85502  0.39723  0.09813  1.0000
  Fe  Fe374     1.0  0.56873  0.25094  0.01540  1.0000
  C   C5235     1.0  0.68808  0.45111  0.10248  1.0000
  H   H4203     1.0  0.69823  0.44707  0.07450  1.0000
  H   H4204     1.0  0.56643  0.26841  0.04804  1.0000
  C   C5236     1.0  0.53656  0.27602  0.05535  1.0000
  H   H4205     1.0  0.68626  0.44621  0.11144  1.0000
  C   C5237     1.0  0.76112  0.40688  0.08535  1.0000
  C   C5238     1.0  0.76640  0.40142  0.07587  1.0000
  C   C5239     1.0  0.75976  0.39658  0.07149  1.0000
  C   C5240     1.0  0.74773  0.39752  0.07642  1.0000
  C   C5241     1.0  0.74237  0.40333  0.08567  1.0000
  C   C5242     1.0  0.74908  0.40788  0.09022  1.0000
  H   H4206     1.0  0.77561  0.40082  0.07203  1.0000
  H   H4207     1.0  0.76392  0.39221  0.06426  1.0000
  H   H4208     1.0  0.73308  0.40406  0.08951  1.0000
  H   H4209     1.0  0.74494  0.41215  0.09753  1.0000
  C   C5243     1.0  0.71776  0.44170  0.00397  1.0000
  C   C5244     1.0  0.71900  0.43117  0.01235  1.0000
  C   C5245     1.0  0.71951  0.43119  0.02372  1.0000
  C   C5246     1.0  0.71928  0.44164  0.02654  1.0000
  C   C5247     1.0  0.71859  0.45207  0.01797  1.0000
  C   C5248     1.0  0.71774  0.45211  0.00672  1.0000
  H   H4210     1.0  0.71911  0.42310  0.01020  1.0000
  H   H4211     1.0  0.72023  0.42309  0.03022  1.0000
  H   H4212     1.0  0.71838  0.46019  0.02013  1.0000
  H   H4213     1.0  0.86449  0.48246  0.03595  1.0000
  H   H4214     1.0  0.97005  0.48415  0.21492  1.0000
  C   C5249     1.0  0.64647  0.33594  0.00170  1.0000
  C   C5250     1.0  0.75895  0.37758  0.10070  1.0000
  H   H4215     1.0  0.62411  0.48094  0.02889  1.0000
  C   C5251     1.0  0.99519  0.42436  0.19181  1.0000
  C   C5252     1.0  0.52632  0.28515  0.99533  1.0000
  H   H4216     1.0  0.71445  0.46069  0.05444  1.0000
  H   H4217     1.0  0.99498  0.48058  0.10446  1.0000
  H   H4218     1.0  0.66053  0.42317  0.02976  1.0000
  H   H4219     1.0  0.62950  0.45716  0.01113  1.0000
  C   C5253     1.0  0.68308  0.39813  0.02738  1.0000
  C   C5254     1.0  0.67339  0.39676  0.03667  1.0000
  C   C5255     1.0  0.67325  0.39859  0.04762  1.0000
  C   C5256     1.0  0.68267  0.40203  0.04919  1.0000
  C   C5257     1.0  0.69202  0.40405  0.03968  1.0000
  C   C5258     1.0  0.69229  0.40192  0.02886  1.0000
  H   H4220     1.0  0.66628  0.39377  0.03559  1.0000
  H   H4221     1.0  0.66595  0.39711  0.05495  1.0000
  H   H4222     1.0  0.69923  0.40685  0.04076  1.0000
  H   H4223     1.0  0.69972  0.40307  0.02164  1.0000
  H   H4224     1.0  0.63138  0.28251  0.01004  1.0000
  H   H4225     1.0  0.55361  0.35634  0.00303  1.0000
  C   C5259     1.0  0.99089  0.45974  0.22387  1.0000
  H   H4226     1.0  0.69429  0.44583  0.01494  1.0000
  S   S737      1.0  0.89695  0.45735  0.09740  1.0000
  H   H4227     1.0  0.84947  0.44136  0.01537  1.0000
  H   H4228     1.0  0.54666  0.25503  0.03363  1.0000
  C   C5260     1.0  0.58641  0.31021  0.01821  1.0000
  S   S738      1.0  0.95610  0.43579  0.21469  1.0000
  C   C5261     1.0  0.58820  0.29085  0.01475  1.0000
  C   C5262     1.0  0.58820  0.28580  0.02665  1.0000
  C   C5263     1.0  0.58746  0.29297  0.03414  1.0000
  C   C5264     1.0  0.58644  0.30505  0.03000  1.0000
  C   C5265     1.0  0.75138  0.37313  0.03168  1.0000
  C   C5266     1.0  0.64462  0.43785  0.05132  1.0000
  H   H4229     1.0  0.58752  0.28916  0.04330  1.0000
  H   H4230     1.0  0.58576  0.31045  0.03598  1.0000
  H   H4231     1.0  0.52946  0.30116  0.00912  1.0000
  H   H4232     1.0  0.68285  0.44935  0.03430  1.0000
  Fe  Fe375     1.0  0.86357  0.48095  0.07502  1.0000
  C   C5267     1.0  0.68275  0.47838  0.02335  1.0000
  C   C5268     1.0  0.70168  0.36994  0.00417  1.0000
  H   H4233     1.0  0.99249  0.47237  0.17630  1.0000
  H   H4234     1.0  0.68284  0.41899  0.00759  1.0000
  H   H4235     1.0  0.65537  0.45353  0.02957  1.0000
  H   H4236     1.0  0.90709  0.39324  0.04091  1.0000
  C   C5269     1.0  0.70972  0.37733  0.06261  1.0000
  C   C5270     1.0  0.80510  0.44314  0.01307  1.0000
  C   C5271     1.0  0.80964  0.43261  0.02021  1.0000
  C   C5272     1.0  0.80209  0.42690  0.02950  1.0000
  C   C5273     1.0  0.79002  0.43185  0.03180  1.0000
  C   C5274     1.0  0.78553  0.44285  0.02513  1.0000
  C   C5275     1.0  0.79316  0.44836  0.01564  1.0000
  P   P171      1.0  0.77012  0.44988  0.02823  1.0000
  C   C5276     1.0  0.76318  0.44852  0.01749  1.0000
  C   C5277     1.0  0.76284  0.44383  0.04291  1.0000
  C   C5278     1.0  0.75146  0.44204  0.04507  1.0000
  C   C5279     1.0  0.74607  0.43685  0.05628  1.0000
  C   C5280     1.0  0.75203  0.43318  0.06538  1.0000
  C   C5281     1.0  0.76324  0.43513  0.06340  1.0000
  C   C5282     1.0  0.76857  0.44062  0.05227  1.0000
  C   C5283     1.0  0.76855  0.44003  0.01065  1.0000
  P   P172      1.0  0.88995  0.47855  0.16844  1.0000
  C   C5284     1.0  0.74040  0.47069  0.05828  1.0000
  C   C5285     1.0  0.74748  0.45574  0.00683  1.0000
  C   C5286     1.0  0.75249  0.45624  0.01565  1.0000
  C   C5287     1.0  0.76958  0.46514  0.02703  1.0000
  C   C5288     1.0  0.77122  0.46881  0.03632  1.0000
  C   C5289     1.0  0.52065  0.33872  0.00102  1.0000
  H   H4237     1.0  0.52268  0.28088  0.09846  1.0000
  H   H4238     1.0  0.84276  0.40444  0.04366  1.0000
  C   C5290     1.0  0.76848  0.47332  0.01642  1.0000
  C   C5291     1.0  0.92017  0.47128  0.05777  1.0000
  C   C5292     1.0  0.51445  0.29103  0.07219  1.0000
  H   H4239     1.0  0.80561  0.41873  0.03503  1.0000
  H   H4240     1.0  0.78433  0.42713  0.03889  1.0000
  H   H4241     1.0  0.78993  0.45671  0.01019  1.0000
  H   H4242     1.0  0.74663  0.44459  0.03820  1.0000
  H   H4243     1.0  0.73726  0.43566  0.05780  1.0000
  H   H4244     1.0  0.74799  0.42878  0.07396  1.0000
  H   H4245     1.0  0.76787  0.43225  0.07048  1.0000
  H   H4246     1.0  0.77729  0.44204  0.05095  1.0000
  H   H4247     1.0  0.77665  0.43379  0.01203  1.0000
  H   H4248     1.0  0.52910  0.27194  0.05864  1.0000
  C   C5293     1.0  0.69848  0.35607  0.99513  1.0000
  S   S739      1.0  0.97162  0.47725  0.11527  1.0000
  H   H4249     1.0  0.74804  0.46272  0.02095  1.0000
  H   H4250     1.0  0.77248  0.46270  0.04446  1.0000
  H   H4251     1.0  0.54389  0.30261  0.04805  1.0000
  S   S740      1.0  0.96459  0.46150  0.21963  1.0000
  C   C5294     1.0  0.73882  0.47179  0.04703  1.0000
  H   H4252     1.0  0.76765  0.47072  0.00894  1.0000
  H   H4253     1.0  0.69699  0.46973  0.00251  1.0000
  H   H4254     1.0  0.50606  0.35239  0.99616  1.0000
  H   H4255     1.0  0.81085  0.44744  0.00566  1.0000
  H   H4256     1.0  0.91046  0.47235  0.17899  1.0000
  C   C5295     1.0  0.76872  0.48497  0.01526  1.0000
  C   C5296     1.0  0.65124  0.46262  0.02666  1.0000
  P   P173      1.0  0.96677  0.40418  0.18525  1.0000
  S   S741      1.0  0.88283  0.47290  0.06939  1.0000
  H   H4257     1.0  0.77600  0.39874  0.02840  1.0000
  H   H4258     1.0  0.89227  0.48450  0.02336  1.0000
  C   C5297     1.0  0.52295  0.31923  0.04372  1.0000
  C   C5298     1.0  0.77157  0.48047  0.03505  1.0000
  H   H4259     1.0  0.56837  0.29378  0.99477  1.0000
  H   H4260     1.0  0.73927  0.46177  0.00538  1.0000
  H   H4261     1.0  0.74559  0.40306  0.00855  1.0000
  C   C5299     1.0  0.99335  0.44526  0.19819  1.0000
  C   C5300     1.0  0.74275  0.40264  0.03737  1.0000
  C   C5301     1.0  0.72727  0.38188  0.04229  1.0000
  C   C5302     1.0  0.80095  0.36741  0.04225  1.0000
  C   C5303     1.0  0.78818  0.38968  0.01532  1.0000
  C   C5304     1.0  0.52046  0.33618  0.05162  1.0000
  H   H4262     1.0  0.91865  0.46789  0.22573  1.0000
  H   H4263     1.0  0.74042  0.37086  0.99415  1.0000
  H   H4264     1.0  0.99321  0.38429  0.22652  1.0000
  H   H4265     1.0  0.71224  0.48144  0.08047  1.0000
  H   H4266     1.0  0.77956  0.38900  0.99470  1.0000
  C   C5305     1.0  0.91840  0.47342  0.21713  1.0000
  C   C5306     1.0  0.62513  0.28891  0.99388  1.0000
  H   H4267     1.0  0.81539  0.39471  0.00152  1.0000
  C   C5307     1.0  0.90964  0.48373  0.21554  1.0000
  C   C5308     1.0  0.50031  0.33758  0.00864  1.0000
  C   C5309     1.0  0.61928  0.25482  0.02067  1.0000
  C   C5310     1.0  0.62035  0.26425  0.01108  1.0000
  H   H4268     1.0  0.85604  0.47542  0.23049  1.0000
  H   H4269     1.0  0.72267  0.37596  0.07215  1.0000
  H   H4270     1.0  0.66315  0.47884  0.99381  1.0000
  H   H4271     1.0  0.63382  0.46001  0.03524  1.0000
  C   C5311     1.0  0.96061  0.48523  0.21759  1.0000
  C   C5312     1.0  0.79738  0.48276  0.10607  1.0000
  H   H4272     1.0  0.53118  0.27611  0.99676  1.0000
  C   C5313     1.0  0.71984  0.45656  0.10428  1.0000
  S   S742      1.0  0.93751  0.49016  0.16645  1.0000
  H   H4273     1.0  0.69695  0.34753  0.99595  1.0000
  H   H4274     1.0  0.98705  0.43009  0.14949  1.0000
  H   H4275     1.0  0.69976  0.35246  0.01318  1.0000
  H   H4276     1.0  0.51056  0.25636  0.02177  1.0000
  H   H4277     1.0  0.86004  0.46567  0.00098  1.0000
  H   H4278     1.0  0.92903  0.45815  0.07730  1.0000
  C   C5314     1.0  0.90952  0.49058  0.20417  1.0000
  S   S743      1.0  0.63782  0.43453  0.00510  1.0000
  H   H4279     1.0  0.54910  0.25948  0.05474  1.0000
  C   C5315     1.0  0.51365  0.30843  0.99218  1.0000
  H   H4280     1.0  0.61221  0.25589  0.02833  1.0000
  H   H4281     1.0  0.61390  0.27246  0.01144  1.0000
  H   H4282     1.0  0.74954  0.37907  0.10418  1.0000
  Fe  Fe376     1.0  0.93905  0.48325  0.15057  1.0000
  C   C5316     1.0  0.81243  0.33427  0.09430  1.0000
  H   H4283     1.0  0.80927  0.40849  0.01468  1.0000
  H   H4284     1.0  0.98910  0.46504  0.21553  1.0000
  H   H4285     1.0  0.61080  0.31784  0.00509  1.0000
  H   H4286     1.0  0.62214  0.30090  0.01711  1.0000
  C   C5317     1.0  0.70006  0.35882  0.00492  1.0000
  C   C5318     1.0  0.49892  0.28372  0.08760  1.0000
  H   H4287     1.0  0.97786  0.47148  0.23387  1.0000
  C   C5319     1.0  0.98457  0.46339  0.23424  1.0000
  H   H4288     1.0  0.65769  0.48882  0.01123  1.0000
  C   C5320     1.0  0.89698  0.41059  0.04264  1.0000
  C   C5321     1.0  0.93131  0.46417  0.08087  1.0000
  H   H4289     1.0  0.50264  0.27701  0.10484  1.0000
  C   C5322     1.0  0.62704  0.24392  0.02029  1.0000
  H   H4290     1.0  0.98707  0.42067  0.22718  1.0000
  C   C5323     1.0  0.51002  0.30023  0.00223  1.0000
  H   H4291     1.0  0.51806  0.31310  0.02097  1.0000
  H   H4292     1.0  0.77579  0.44205  0.16101  1.0000
  H   H4293     1.0  0.71909  0.46475  0.10659  1.0000
  S   S744      1.0  0.79481  0.47395  0.08364  1.0000
  S   S745      1.0  0.82323  0.42311  0.99535  1.0000
  C   C5324     1.0  0.61194  0.47010  0.99308  1.0000
  H   H4294     1.0  0.95900  0.46294  0.18946  1.0000
  C   C5325     1.0  0.92719  0.47027  0.20760  1.0000
  Fe  Fe377     1.0  0.64893  0.41799  0.99893  1.0000
  C   C5326     1.0  0.93737  0.47922  0.09071  1.0000
  H   H4295     1.0  0.90386  0.41298  0.04490  1.0000
  C   C5327     1.0  0.98918  0.47808  0.14196  1.0000
  C   C5328     1.0  0.95787  0.40127  0.19989  1.0000
  C   C5329     1.0  0.90337  0.46892  0.18546  1.0000
  C   C5330     1.0  0.55611  0.28608  0.04764  1.0000
  H   H4296     1.0  0.84131  0.39772  0.11733  1.0000
  H   H4297     1.0  0.98106  0.39983  0.20242  1.0000
  C   C5331     1.0  0.97925  0.47713  0.15104  1.0000
  S   S746      1.0  0.83700  0.38926  0.00961  1.0000
  C   C5332     1.0  0.98682  0.42741  0.20165  1.0000
  C   C5333     1.0  0.80161  0.48378  0.02604  1.0000
  H   H4298     1.0  0.89683  0.39638  0.99459  1.0000
  C   C5334     1.0  0.63903  0.46629  0.02999  1.0000
  C   C5335     1.0  0.54480  0.29325  0.04946  1.0000
  C   C5336     1.0  0.88254  0.48277  0.21853  1.0000
  Fe  Fe378     1.0  0.95497  0.44689  0.22703  1.0000
  C   C5337     1.0  0.88995  0.39650  0.03729  1.0000
  H   H4299     1.0  0.76162  0.38790  0.11112  1.0000
  P   P174      1.0  0.78365  0.46728  0.12115  1.0000
  H   H4300     1.0  0.97954  0.44016  0.21257  1.0000
  H   H4301     1.0  0.98110  0.42163  0.20690  1.0000
  C   C5338     1.0  0.66591  0.43420  0.09604  1.0000
  H   H4302     1.0  0.88587  0.47319  0.04352  1.0000
  C   C5339     1.0  0.99301  0.41222  0.22673  1.0000
  H   H4303     1.0  0.79905  0.39354  0.04839  1.0000
  S   S747      1.0  0.50473  0.25653  0.04640  1.0000
  Fe  Fe379     1.0  0.78747  0.49231  0.07523  1.0000
  C   C5340     1.0  0.68748  0.44301  0.01309  1.0000
  C   C5341     1.0  0.68968  0.43158  0.01147  1.0000
  H   H4304     1.0  0.83547  0.45552  0.04876  1.0000
  H   H4305     1.0  0.69809  0.42565  0.01216  1.0000
  C   C5342     1.0  0.87205  0.47981  0.21920  1.0000
  H   H4306     1.0  0.80057  0.35405  0.00358  1.0000
  H   H4307     1.0  0.77787  0.34756  0.03863  1.0000
  H   H4308     1.0  0.88420  0.47888  0.14645  1.0000
  P   P175      1.0  0.80363  0.37858  0.99761  1.0000
  C   C5343     1.0  0.72791  0.47903  0.08665  1.0000
  S   S748      1.0  0.68694  0.48495  0.08639  1.0000
  H   H4309     1.0  0.89028  0.40136  0.01393  1.0000
  H   H4310     1.0  0.68316  0.46781  0.10737  1.0000
  H   H4311     1.0  0.79667  0.46443  0.04655  1.0000
  C   C5344     1.0  0.51801  0.25599  0.03600  1.0000
  H   H4312     1.0  0.93960  0.46960  0.22539  1.0000
  H   H4313     1.0  0.78282  0.42672  0.10710  1.0000
  C   C5345     1.0  0.50315  0.28873  0.07586  1.0000
  C   C5346     1.0  0.91264  0.46384  0.06449  1.0000
  C   C5347     1.0  0.91045  0.45576  0.05962  1.0000
  C   C5348     1.0  0.91571  0.45510  0.04796  1.0000
  C   C5349     1.0  0.92319  0.46250  0.04117  1.0000
  H   H4314     1.0  0.67965  0.48585  0.01681  1.0000
  H   H4315     1.0  0.82593  0.46469  0.11626  1.0000
  H   H4316     1.0  0.93265  0.41353  0.21730  1.0000
  C   C5350     1.0  0.58733  0.30309  0.01051  1.0000
  H   H4317     1.0  0.63556  0.44121  0.05527  1.0000
  C   C5351     1.0  0.79376  0.44830  0.11002  1.0000
  H   H4318     1.0  0.79209  0.47817  0.05976  1.0000
  H   H4319     1.0  0.93901  0.45023  0.09373  1.0000
  C   C5352     1.0  0.79148  0.37222  0.99863  1.0000
  H   H4320     1.0  0.99392  0.43621  0.16368  1.0000
  C   C5353     1.0  0.73345  0.48379  0.09234  1.0000
  C   C5354     1.0  0.98593  0.43783  0.20487  1.0000
  C   C5355     1.0  0.66787  0.42955  0.04028  1.0000
  C   C5356     1.0  0.82768  0.46336  0.07506  1.0000
  C   C5357     1.0  0.72305  0.46270  0.06674  1.0000
  C   C5358     1.0  0.86266  0.37844  0.04132  1.0000
  C   C5359     1.0  0.53886  0.25537  0.03098  1.0000
  H   H4321     1.0  0.90823  0.46450  0.07344  1.0000
  H   H4322     1.0  0.90434  0.45031  0.06480  1.0000
  H   H4323     1.0  0.91376  0.44905  0.04411  1.0000
  C   C5360     1.0  0.65906  0.43680  0.07837  1.0000
  Fe  Fe380     1.0  0.83690  0.43334  0.99242  1.0000
  C   C5361     1.0  0.52070  0.31232  0.05511  1.0000
  C   C5362     1.0  0.85438  0.41947  0.11584  1.0000
  C   C5363     1.0  0.52822  0.25561  0.03931  1.0000
  H   H4324     1.0  0.88856  0.48419  0.21009  1.0000
  C   C5364     1.0  0.55127  0.28126  0.02062  1.0000
  C   C5365     1.0  0.85056  0.42078  0.06188  1.0000
  C   C5366     1.0  0.85201  0.43204  0.05597  1.0000
  C   C5367     1.0  0.85916  0.43717  0.05923  1.0000
  C   C5368     1.0  0.86517  0.43090  0.06811  1.0000
  C   C5369     1.0  0.86440  0.41928  0.07351  1.0000
  C   C5370     1.0  0.85664  0.41445  0.07070  1.0000
  P   P176      1.0  0.87271  0.41075  0.08444  1.0000
  H   H4325     1.0  0.56375  0.28990  0.04468  1.0000
  C   C5371     1.0  0.87817  0.39588  0.08235  1.0000
  C   C5372     1.0  0.88062  0.39352  0.07114  1.0000
  C   C5373     1.0  0.77781  0.38096  0.09990  1.0000
  P   P177      1.0  0.65107  0.44608  0.06744  1.0000
  C   C5374     1.0  0.54067  0.28586  0.01702  1.0000
  C   C5375     1.0  0.79171  0.37946  0.06053  1.0000
  H   H4326     1.0  0.79394  0.35319  0.05432  1.0000
  C   C5376     1.0  0.88569  0.41591  0.08304  1.0000
  C   C5377     1.0  0.88992  0.41489  0.09297  1.0000
  C   C5378     1.0  0.89964  0.41941  0.09186  1.0000
  C   C5379     1.0  0.90544  0.42460  0.08080  1.0000
  C   C5380     1.0  0.90169  0.42503  0.07082  1.0000
  C   C5381     1.0  0.89194  0.42060  0.07192  1.0000
  H   H4327     1.0  0.84461  0.41702  0.05969  1.0000
  H   H4328     1.0  0.84742  0.43682  0.04902  1.0000
  H   H4329     1.0  0.86002  0.44606  0.05500  1.0000
  H   H4330     1.0  0.87034  0.43518  0.07075  1.0000
  H   H4331     1.0  0.85523  0.40581  0.07538  1.0000
  H   H4332     1.0  0.87939  0.40060  0.06359  1.0000
  H   H4333     1.0  0.78320  0.33565  0.07854  1.0000
  C   C5382     1.0  0.96720  0.42600  0.18768  1.0000
  C   C5383     1.0  0.72952  0.46810  0.04565  1.0000
  C   C5384     1.0  0.85517  0.48193  0.16974  1.0000
  C   C5385     1.0  0.89322  0.47512  0.02490  1.0000
  C   C5386     1.0  0.68110  0.42785  0.00881  1.0000
  C   C5387     1.0  0.88465  0.38197  0.06960  1.0000
  H   H4334     1.0  0.64936  0.28544  0.99196  1.0000
  H   H4335     1.0  0.99254  0.45346  0.20054  1.0000
  C   C5388     1.0  0.67935  0.47381  0.99977  1.0000
  C   C5389     1.0  0.86962  0.39062  0.00220  1.0000
  C   C5390     1.0  0.88031  0.38657  0.09190  1.0000
  H   H4336     1.0  0.87878  0.38824  0.10057  1.0000
  S   S749      1.0  0.92352  0.43794  0.21365  1.0000
  H   H4337     1.0  0.71694  0.46023  0.00018  1.0000
  H   H4338     1.0  0.51649  0.33329  0.07047  1.0000
  C   C5391     1.0  0.67038  0.43563  0.00755  1.0000
  H   H4339     1.0  0.63335  0.46651  0.07498  1.0000
  H   H4340     1.0  0.70263  0.37221  0.01181  1.0000
  H   H4341     1.0  0.78812  0.47264  0.15830  1.0000
  C   C5392     1.0  0.88650  0.37272  0.07919  1.0000
  H   H4342     1.0  0.81902  0.42890  0.01851  1.0000
  H   H4343     1.0  0.88594  0.36786  0.09775  1.0000
  C   C5393     1.0  0.98955  0.39316  0.17537  1.0000
  C   C5394     1.0  0.69355  0.47025  0.03876  1.0000
  C   C5395     1.0  0.65256  0.48244  0.01632  1.0000
  C   C5396     1.0  0.78301  0.35530  0.00250  1.0000
  C   C5397     1.0  0.83512  0.42222  0.03655  1.0000
  H   H4344     1.0  0.64151  0.46737  0.05181  1.0000
  H   H4345     1.0  0.74090  0.39741  0.04611  1.0000
  C   C5398     1.0  0.66826  0.44709  0.00889  1.0000
  C   C5399     1.0  0.76485  0.48630  0.12548  1.0000
  C   C5400     1.0  0.84447  0.41244  0.03755  1.0000
  H   H4346     1.0  0.93836  0.39499  0.23132  1.0000
  H   H4347     1.0  0.74885  0.42935  0.02383  1.0000
  C   C5401     1.0  0.85576  0.41307  0.03064  1.0000
  C   C5402     1.0  0.86001  0.39029  0.05526  1.0000
  C   C5403     1.0  0.98624  0.45920  0.12740  1.0000
  H   H4348     1.0  0.86369  0.38816  0.99862  1.0000
  C   C5404     1.0  0.90372  0.45321  0.14300  1.0000
  C   C5405     1.0  0.61764  0.46033  0.08377  1.0000
  H   H4349     1.0  0.91537  0.44310  0.15447  1.0000
  C   C5406     1.0  0.92361  0.43256  0.19327  1.0000
  C   C5407     1.0  0.79923  0.38856  0.00749  1.0000
  H   H4350     1.0  0.54676  0.31814  0.02829  1.0000
  C   C5408     1.0  0.81032  0.48564  0.03029  1.0000
  H   H4351     1.0  0.89149  0.38790  0.03547  1.0000
  C   C5409     1.0  0.51635  0.28858  0.00376  1.0000
  H   H4352     1.0  0.96212  0.37430  0.16745  1.0000
  C   C5410     1.0  0.67662  0.45075  0.01211  1.0000
  H   H4353     1.0  0.69472  0.46887  0.07039  1.0000
  C   C5411     1.0  0.74753  0.42067  0.02482  1.0000
  H   H4354     1.0  0.74485  0.41665  0.04364  1.0000
  P   P178      1.0  0.86807  0.40070  0.03207  1.0000
  H   H4355     1.0  0.86066  0.39817  0.05720  1.0000
  C   C5412     1.0  0.92859  0.47634  0.07637  1.0000
  C   C5413     1.0  0.63357  0.47803  0.02643  1.0000
  H   H4356     1.0  0.74955  0.42226  0.00630  1.0000
  H   H4357     1.0  0.79654  0.47210  0.01893  1.0000
  H   H4358     1.0  0.52489  0.31538  0.03619  1.0000
  H   H4359     1.0  0.62941  0.35955  0.00408  1.0000
  C   C5414     1.0  0.89490  0.46327  0.14083  1.0000
  C   C5415     1.0  0.71612  0.38147  0.04142  1.0000
  H   H4360     1.0  0.87920  0.45473  0.20853  1.0000
  C   C5416     1.0  0.79483  0.36208  0.05306  1.0000
  H   H4361     1.0  0.77040  0.43588  0.09140  1.0000
  C   C5417     1.0  0.54396  0.30557  0.01255  1.0000
  C   C5418     1.0  0.74518  0.41355  0.03599  1.0000
  H   H4362     1.0  0.69875  0.37919  0.05082  1.0000
  H   H4363     1.0  0.94554  0.38755  0.15885  1.0000
  C   C5419     1.0  0.93570  0.44600  0.19120  1.0000
  C   C5420     1.0  0.72487  0.39435  0.01282  1.0000
  C   C5421     1.0  0.74777  0.41674  0.01500  1.0000
  H   H4364     1.0  0.77314  0.47547  0.10063  1.0000
  C   C5422     1.0  0.86413  0.47779  0.22998  1.0000
  H   H4365     1.0  0.96591  0.44157  0.15548  1.0000
  C   C5423     1.0  0.83014  0.35655  0.01312  1.0000
  H   H4366     1.0  0.66008  0.45308  0.00737  1.0000
  H   H4367     1.0  0.96726  0.45269  0.16910  1.0000
  C   C5424     1.0  0.97630  0.46658  0.18222  1.0000
  C   C5425     1.0  0.50536  0.28786  0.03566  1.0000
  C   C5426     1.0  0.82095  0.47725  0.03050  1.0000
  H   H4368     1.0  0.69440  0.45197  0.04671  1.0000
  H   H4369     1.0  0.85683  0.36225  0.04847  1.0000
  H   H4370     1.0  0.79248  0.37342  0.08757  1.0000
  C   C5427     1.0  0.62936  0.45903  0.07758  1.0000
  C   C5428     1.0  0.96659  0.43715  0.16441  1.0000
  C   C5429     1.0  0.96734  0.44342  0.17208  1.0000
  H   H4371     1.0  0.50715  0.28069  0.03134  1.0000
  C   C5430     1.0  0.82243  0.46675  0.02702  1.0000
  H   H4372     1.0  0.87530  0.45363  0.01195  1.0000
  C   C5431     1.0  0.80332  0.47352  0.02218  1.0000
  C   C5432     1.0  0.70743  0.37916  0.05155  1.0000
  H   H4373     1.0  0.82632  0.48296  0.10091  1.0000
  H   H4374     1.0  0.78391  0.34588  0.00475  1.0000
  H   H4375     1.0  0.85199  0.38337  0.07316  1.0000
  P   P179      1.0  0.73873  0.38490  0.02935  1.0000
  Fe  Fe381     1.0  0.58827  0.33590  0.99525  1.0000
  H   H4376     1.0  0.55533  0.33040  0.03507  1.0000
  C   C5433     1.0  0.76386  0.36068  0.06903  1.0000
  C   C5434     1.0  0.84715  0.41144  0.12049  1.0000
  H   H4377     1.0  0.91768  0.42705  0.19874  1.0000
  Fe  Fe382     1.0  0.64972  0.39285  0.99844  1.0000
  C   C5435     1.0  0.73408  0.38523  0.01638  1.0000
  H   H4378     1.0  0.99567  0.41635  0.18935  1.0000
  C   C5436     1.0  0.81369  0.46495  0.02280  1.0000
  H   H4379     1.0  0.81496  0.45688  0.02007  1.0000
  C   C5437     1.0  0.66952  0.41763  0.08722  1.0000
  C   C5438     1.0  0.96648  0.42522  0.16826  1.0000
  H   H4380     1.0  0.96618  0.42052  0.16206  1.0000
  P   P180      1.0  0.67361  0.46553  0.01406  1.0000
  C   C5439     1.0  0.74240  0.39882  0.02761  1.0000
  H   H4381     1.0  0.70276  0.37612  0.07040  1.0000
  H   H4382     1.0  0.94437  0.46358  0.10243  1.0000
  H   H4383     1.0  0.97137  0.38140  0.17897  1.0000
  C   C5440     1.0  0.95921  0.48017  0.19047  1.0000
  C   C5441     1.0  0.65801  0.47057  0.01929  1.0000
  H   H4384     1.0  0.64522  0.33547  0.01099  1.0000
  C   C5442     1.0  0.81617  0.36704  0.00082  1.0000
  C   C5443     1.0  0.68920  0.47981  0.03046  1.0000
  C   C5444     1.0  0.51835  0.31747  0.06477  1.0000
  C   C5445     1.0  0.95905  0.38327  0.16860  1.0000
  C   C5446     1.0  0.80681  0.39539  0.00738  1.0000
  H   H4385     1.0  0.52703  0.34360  0.99530  1.0000
  C   C5447     1.0  0.88452  0.39802  0.01101  1.0000
  H   H4386     1.0  0.82468  0.34263  0.08020  1.0000
  H   H4387     1.0  0.85692  0.39304  0.01812  1.0000
  C   C5448     1.0  0.94967  0.39071  0.16380  1.0000
  C   C5449     1.0  0.96436  0.38736  0.17501  1.0000
  H   H4388     1.0  0.81918  0.32833  0.09868  1.0000
  C   C5450     1.0  0.96768  0.43783  0.18371  1.0000
  S   S750      1.0  0.93569  0.44809  0.23500  1.0000
  C   C5451     1.0  0.80333  0.40330  0.01480  1.0000
  H   H4389     1.0  0.78955  0.48789  0.10307  1.0000
  H   H4390     1.0  0.52790  0.25545  0.04832  1.0000
  H   H4391     1.0  0.55876  0.34953  0.02252  1.0000
  H   H4392     1.0  0.66518  0.33410  0.99809  1.0000
  H   H4393     1.0  0.83376  0.44677  0.06988  1.0000
  H   H4394     1.0  0.78215  0.38455  0.01575  1.0000
  C   C5452     1.0  0.81554  0.34227  0.08386  1.0000
  C   C5453     1.0  0.81796  0.46972  0.11338  1.0000
  C   C5454     1.0  0.78465  0.39772  0.02259  1.0000
  C   C5455     1.0  0.55495  0.34418  0.01953  1.0000
  C   C5456     1.0  0.51721  0.28313  0.09216  1.0000
  C   C5457     1.0  0.84836  0.47228  0.01586  1.0000
  C   C5458     1.0  0.75985  0.35224  0.03702  1.0000
  H   H4395     1.0  0.61269  0.46878  0.08567  1.0000
  C   C5459     1.0  0.66360  0.42479  0.07854  1.0000
  C   C5460     1.0  0.61500  0.30985  0.00188  1.0000
  C   C5461     1.0  0.54796  0.34075  0.00431  1.0000
  C   C5462     1.0  0.96080  0.39053  0.20772  1.0000
  H   H4396     1.0  0.67567  0.41689  0.10242  1.0000
  C   C5463     1.0  0.94546  0.40217  0.16558  1.0000
  C   C5464     1.0  0.96048  0.39901  0.17642  1.0000
  C   C5465     1.0  0.98200  0.39719  0.18522  1.0000
  C   C5466     1.0  0.82999  0.47338  0.05101  1.0000
  H   H4397     1.0  0.63366  0.47676  0.00070  1.0000
  C   C5467     1.0  0.86725  0.45874  0.01637  1.0000
  C   C5468     1.0  0.88085  0.39155  0.99554  1.0000
  H   H4398     1.0  0.84349  0.34227  0.00700  1.0000
  H   H4399     1.0  0.95631  0.38019  0.22519  1.0000
  C   C5469     1.0  0.73260  0.46596  0.06826  1.0000
  C   C5470     1.0  0.72966  0.37935  0.05347  1.0000
  H   H4400     1.0  0.61326  0.45252  0.99204  1.0000
  C   C5471     1.0  0.97793  0.48590  0.18256  1.0000
  H   H4401     1.0  0.74198  0.35947  0.03521  1.0000
  H   H4402     1.0  0.74848  0.36109  0.06342  1.0000
  H   H4403     1.0  0.80950  0.35646  0.07043  1.0000
  C   C5472     1.0  0.96659  0.41962  0.18002  1.0000
  Fe  Fe383     1.0  0.88167  0.46321  0.08819  1.0000
  H   H4404     1.0  0.72137  0.42734  0.09633  1.0000
  C   C5473     1.0  0.55222  0.34794  0.00849  1.0000
  H   H4405     1.0  0.81645  0.37149  0.01677  1.0000
  C   C5474     1.0  0.89521  0.46846  0.15863  1.0000
  C   C5475     1.0  0.82407  0.47545  0.07128  1.0000
  C   C5476     1.0  0.84644  0.47195  0.02788  1.0000
  C   C5477     1.0  0.77351  0.35359  0.07372  1.0000
  C   C5478     1.0  0.79028  0.36803  0.06232  1.0000
  C   C5479     1.0  0.94761  0.40948  0.20337  1.0000
  C   C5480     1.0  0.76420  0.37107  0.09200  1.0000
  H   H4406     1.0  0.96726  0.42179  0.19675  1.0000
  P   P181      1.0  0.52027  0.29717  0.05701  1.0000
  C   C5481     1.0  0.80686  0.35006  0.07827  1.0000
  C   C5482     1.0  0.95071  0.40624  0.17203  1.0000
  H   H4407     1.0  0.93807  0.40793  0.16204  1.0000
  C   C5483     1.0  0.92817  0.43875  0.19839  1.0000
  C   C5484     1.0  0.72716  0.44358  0.09065  1.0000
  C   C5485     1.0  0.53491  0.28827  0.05332  1.0000
  C   C5486     1.0  0.94346  0.47696  0.22354  1.0000
  Fe  Fe384     1.0  0.95511  0.47468  0.12904  1.0000
  H   H4408     1.0  0.52431  0.33646  0.03316  1.0000
  H   H4409     1.0  0.87197  0.45308  0.03314  1.0000
  C   C5487     1.0  0.78310  0.37452  0.09114  1.0000
  H   H4410     1.0  0.76222  0.37018  0.06738  1.0000
  C   C5488     1.0  0.86544  0.45851  0.02828  1.0000
  C   C5489     1.0  0.75473  0.44844  0.08765  1.0000
  H   H4411     1.0  0.66708  0.43788  0.10268  1.0000
  C   C5490     1.0  0.79495  0.34982  0.08305  1.0000
  C   C5491     1.0  0.52148  0.28812  0.08042  1.0000
  C   C5492     1.0  0.54788  0.26891  0.05330  1.0000
  C   C5493     1.0  0.55765  0.27393  0.04952  1.0000
  C   C5494     1.0  0.85520  0.46525  0.03397  1.0000
  H   H4412     1.0  0.74912  0.44715  0.99302  1.0000
  H   H4413     1.0  0.88486  0.42729  0.04371  1.0000
  C   C5495     1.0  0.75608  0.35557  0.06670  1.0000
  C   C5496     1.0  0.80060  0.33414  0.09922  1.0000
  C   C5497     1.0  0.64036  0.48609  0.01968  1.0000
  P   P182      1.0  0.83257  0.47961  0.03543  1.0000
  H   H4414     1.0  0.79817  0.32811  0.10745  1.0000
  H   H4415     1.0  0.60330  0.45174  0.09246  1.0000
  Fe  Fe385     1.0  0.92869  0.47987  0.13166  1.0000
  C   C5498     1.0  0.76212  0.37550  0.03133  1.0000
  C   C5499     1.0  0.79770  0.38482  0.04965  1.0000
  H   H4416     1.0  0.75189  0.33946  0.06698  1.0000
  H   H4417     1.0  0.78856  0.38413  0.06756  1.0000
  C   C5500     1.0  0.93624  0.48797  0.22459  1.0000
  C   C5501     1.0  0.95383  0.38831  0.21905  1.0000
  C   C5502     1.0  0.75801  0.34337  0.06871  1.0000
  H   H4418     1.0  0.78148  0.45464  0.17038  1.0000
  H   H4419     1.0  0.85418  0.46522  0.04310  1.0000
  C   C5503     1.0  0.80249  0.37874  0.04059  1.0000
  C   C5504     1.0  0.79188  0.34196  0.09369  1.0000
  S   S751      1.0  0.55224  0.25651  0.00851  1.0000
  C   C5505     1.0  0.87749  0.41573  0.03879  1.0000
  H   H4420     1.0  0.80143  0.43323  0.10221  1.0000
  Fe  Fe386     1.0  0.93736  0.43586  0.22355  1.0000
  H   H4421     1.0  0.80764  0.45754  0.12460  1.0000
  H   H4422     1.0  0.74473  0.47559  0.03935  1.0000
  H   H4423     1.0  0.52034  0.34540  0.05026  1.0000
  C   C5506     1.0  0.95563  0.47549  0.22024  1.0000
  C   C5507     1.0  0.64704  0.43212  0.04211  1.0000
  C   C5508     1.0  0.76782  0.33626  0.07297  1.0000
  P   P183      1.0  0.78354  0.36041  0.07649  1.0000
  C   C5509     1.0  0.77559  0.34133  0.07540  1.0000
  H   H4424     1.0  0.78272  0.34201  0.09777  1.0000
  C   C5510     1.0  0.77860  0.44996  0.15576  1.0000
  C   C5511     1.0  0.90832  0.45075  0.15293  1.0000
  H   H4425     1.0  0.55422  0.27189  0.02353  1.0000
  C   C5512     1.0  0.76356  0.43964  0.00176  1.0000
  C   C5513     1.0  0.83271  0.46116  0.05495  1.0000
  C   C5514     1.0  0.84743  0.40346  0.11405  1.0000
  C   C5515     1.0  0.85870  0.46562  0.01017  1.0000
  C   C5516     1.0  0.89878  0.39949  0.04039  1.0000
  H   H4426     1.0  0.96851  0.38391  0.20515  1.0000
  H   H4427     1.0  0.56074  0.30628  0.01501  1.0000
  C   C5517     1.0  0.77632  0.36960  0.08703  1.0000
  C   C5518     1.0  0.83182  0.45619  0.06690  1.0000
  H   H4428     1.0  0.51646  0.31243  0.07365  1.0000
  H   H4429     1.0  0.78299  0.38502  0.10284  1.0000
  C   C5519     1.0  0.83583  0.34911  0.00531  1.0000
  C   C5520     1.0  0.50592  0.28095  0.09575  1.0000
  C   C5521     1.0  0.86195  0.41947  0.10480  1.0000
  C   C5522     1.0  0.76575  0.38252  0.10465  1.0000
  C   C5523     1.0  0.53715  0.29793  0.01279  1.0000
  H   H4430     1.0  0.86544  0.37685  0.03254  1.0000
  H   H4431     1.0  0.97841  0.45625  0.13265  1.0000
  H   H4432     1.0  0.90715  0.44747  0.13683  1.0000
  C   C5524     1.0  0.90409  0.45831  0.16074  1.0000
  H   H4433     1.0  0.89849  0.45225  0.21315  1.0000
  C   C5525     1.0  0.94372  0.39663  0.22251  1.0000
  H   H4434     1.0  0.82013  0.48087  0.07770  1.0000
  H   H4435     1.0  0.84090  0.41182  0.12879  1.0000
  C   C5526     1.0  0.98534  0.46924  0.11838  1.0000
  C   C5527     1.0  0.94054  0.40714  0.21462  1.0000
  H   H4436     1.0  0.53542  0.28001  0.01708  1.0000
  H   H4437     1.0  0.94508  0.41769  0.19738  1.0000
  H   H4438     1.0  0.67335  0.40845  0.08707  1.0000
  H   H4439     1.0  0.82641  0.42171  0.04184  1.0000
  H   H4440     1.0  0.96811  0.44267  0.18974  1.0000
  H   H4441     1.0  0.63993  0.43096  0.03913  1.0000
  P   P184      1.0  0.53995  0.32102  0.00595  1.0000
  C   C5528     1.0  0.68458  0.45788  0.03312  1.0000
  H   H4442     1.0  0.71664  0.45947  0.07422  1.0000
  C   C5529     1.0  0.98873  0.40267  0.22674  1.0000
  H   H4443     1.0  0.90801  0.45629  0.16822  1.0000
  C   C5530     1.0  0.76664  0.44496  0.08790  1.0000
  H   H4444     1.0  0.77432  0.47114  0.07574  1.0000
  H   H4445     1.0  0.78287  0.45046  0.08403  1.0000
  C   C5531     1.0  0.52432  0.32743  0.00762  1.0000
  C   C5532     1.0  0.88828  0.39526  0.99994  1.0000
  H   H4446     1.0  0.87008  0.47907  0.21133  1.0000
  C   C5533     1.0  0.65866  0.42784  0.03671  1.0000
  H   H4447     1.0  0.98036  0.45804  0.18016  1.0000
  C   C5534     1.0  0.94010  0.46711  0.09509  1.0000
  C   C5535     1.0  0.76886  0.46480  0.07896  1.0000
  C   C5536     1.0  0.77368  0.45315  0.08366  1.0000
  C   C5537     1.0  0.96433  0.46930  0.18745  1.0000
  C   C5538     1.0  0.79718  0.47221  0.11447  1.0000
  C   C5539     1.0  0.78342  0.45489  0.11587  1.0000
  H   H4448     1.0  0.77668  0.44730  0.13983  1.0000
  C   C5540     1.0  0.85516  0.40328  0.10311  1.0000
  H   H4449     1.0  0.93408  0.46244  0.20900  1.0000
  C   C5541     1.0  0.55479  0.30079  0.01591  1.0000
  H   H4450     1.0  0.84971  0.47647  0.16931  1.0000
  C   C5542     1.0  0.78294  0.43462  0.10948  1.0000
  C   C5543     1.0  0.77256  0.44130  0.11502  1.0000
  H   H4451     1.0  0.93383  0.47463  0.18893  1.0000
  C   C5544     1.0  0.77908  0.45301  0.14369  1.0000
  C   C5545     1.0  0.79347  0.43823  0.10681  1.0000
  C   C5546     1.0  0.98315  0.47479  0.17993  1.0000
  C   C5547     1.0  0.77278  0.45142  0.11816  1.0000
  H   H4452     1.0  0.76467  0.45647  0.12253  1.0000
  H   H4453     1.0  0.67687  0.42632  0.03600  1.0000
  C   C5548     1.0  0.75701  0.46829  0.07847  1.0000
  H   H4454     1.0  0.82660  0.45954  0.08438  1.0000
  C   C5549     1.0  0.74977  0.46018  0.08301  1.0000
  C   C5550     1.0  0.82515  0.48046  0.05931  1.0000
  S   S752      1.0  0.58325  0.26057  0.00716  1.0000
  H   H4455     1.0  0.70831  0.45034  0.12050  1.0000
  Fe  Fe387     1.0  0.83782  0.40719  0.99823  1.0000
  H   H4456     1.0  0.61482  0.43227  0.08853  1.0000
  C   C5551     1.0  0.90537  0.46253  0.19645  1.0000
  H   H4457     1.0  0.90265  0.45291  0.01024  1.0000
  H   H4458     1.0  0.91381  0.46121  0.19845  1.0000
  C   C5552     1.0  0.92707  0.47716  0.19633  1.0000
  C   C5553     1.0  0.66551  0.43514  0.04956  1.0000
  C   C5554     1.0  0.88630  0.41868  0.04191  1.0000
  S   S753      1.0  0.85733  0.46716  0.07093  1.0000
  H   H4459     1.0  0.74955  0.44186  0.09105  1.0000
  S   S754      1.0  0.94305  0.46412  0.12816  1.0000
  C   C5555     1.0  0.78276  0.46323  0.13680  1.0000
  C   C5556     1.0  0.89668  0.45746  0.20477  1.0000
  H   H4460     1.0  0.83927  0.36862  0.02737  1.0000
  C   C5557     1.0  0.68632  0.46332  0.10017  1.0000
  C   C5558     1.0  0.87334  0.39682  0.01790  1.0000
  C   C5559     1.0  0.73959  0.37666  0.00966  1.0000
  H   H4461     1.0  0.67587  0.47423  0.06093  1.0000
  H   H4462     1.0  0.73205  0.44172  0.08222  1.0000
  H   H4463     1.0  0.74161  0.47897  0.09488  1.0000
  C   C5560     1.0  0.90115  0.46587  0.10451  1.0000
  C   C5561     1.0  0.77035  0.48850  0.02451  1.0000
  H   H4464     1.0  0.67100  0.45496  0.06858  1.0000
  C   C5562     1.0  0.78182  0.45705  0.16103  1.0000
  C   C5563     1.0  0.71377  0.44837  0.11225  1.0000
  C   C5564     1.0  0.65387  0.43914  0.05529  1.0000
  H   H4465     1.0  0.65617  0.45053  0.08768  1.0000
  S   S755      1.0  0.83389  0.44942  0.99954  1.0000
  H   H4466     1.0  0.52141  0.28158  0.04149  1.0000
  C   C5565     1.0  0.61237  0.45072  0.08763  1.0000
  C   C5566     1.0  0.91484  0.46742  0.11506  1.0000
  C   C5567     1.0  0.88586  0.45886  0.20213  1.0000
  H   H4467     1.0  0.63555  0.42985  0.07771  1.0000
  C   C5568     1.0  0.77131  0.47898  0.11765  1.0000
  C   C5569     1.0  0.66838  0.47272  0.05891  1.0000
  C   C5570     1.0  0.79222  0.40453  0.02232  1.0000
  C   C5571     1.0  0.54598  0.32991  0.01133  1.0000
  H   H4468     1.0  0.85365  0.42616  0.12048  1.0000
  C   C5572     1.0  0.78604  0.47026  0.14217  1.0000
  H   H4469     1.0  0.67278  0.43609  0.05242  1.0000
  H   H4470     1.0  0.53029  0.28966  0.07774  1.0000
  C   C5573     1.0  0.66545  0.46179  0.06341  1.0000
  C   C5574     1.0  0.66178  0.48161  0.05173  1.0000
  C   C5575     1.0  0.51080  0.29712  0.04797  1.0000
  C   C5576     1.0  0.52901  0.25620  0.01598  1.0000
  C   C5577     1.0  0.65992  0.44137  0.08741  1.0000
  C   C5578     1.0  0.62949  0.37753  0.99539  1.0000
  C   C5579     1.0  0.93708  0.45960  0.09017  1.0000
  C   C5580     1.0  0.89776  0.46947  0.01545  1.0000
  C   C5581     1.0  0.64907  0.46876  0.05378  1.0000
  C   C5582     1.0  0.88370  0.46543  0.19121  1.0000
  H   H4471     1.0  0.87531  0.46627  0.18933  1.0000
  H   H4472     1.0  0.71395  0.40186  0.00018  1.0000
  H   H4473     1.0  0.86934  0.42217  0.03834  1.0000
  H   H4474     1.0  0.78902  0.47812  0.13700  1.0000
  C   C5583     1.0  0.93175  0.48382  0.08131  1.0000
  C   C5584     1.0  0.63056  0.43844  0.07922  1.0000
  C   C5585     1.0  0.72116  0.43540  0.09864  1.0000
  S   S756      1.0  0.92551  0.47373  0.15128  1.0000
  C   C5586     1.0  0.65553  0.45985  0.06117  1.0000
  C   C5587     1.0  0.63605  0.45800  0.00300  1.0000
  C   C5588     1.0  0.68074  0.46732  0.02435  1.0000
  H   H4475     1.0  0.97826  0.46863  0.15650  1.0000
  S   S757      1.0  0.97393  0.40393  0.22678  1.0000
  P   P185      1.0  0.73431  0.46485  0.08289  1.0000
  C   C5589     1.0  0.62139  0.30029  0.00865  1.0000
  C   C5590     1.0  0.61884  0.43977  0.08540  1.0000
  C   C5591     1.0  0.82042  0.36556  0.01084  1.0000
  C   C5592     1.0  0.79687  0.46924  0.06226  1.0000
  C   C5593     1.0  0.72657  0.45424  0.09337  1.0000
  C   C5594     1.0  0.71443  0.43780  0.10943  1.0000
  H   H4476     1.0  0.70942  0.43161  0.11541  1.0000
  C   C5595     1.0  0.87930  0.40467  0.03627  1.0000
  C   C5596     1.0  0.65221  0.47959  0.04905  1.0000
  S   S758      1.0  0.86293  0.47247  0.09406  1.0000
  C   C5597     1.0  0.89243  0.47057  0.18280  1.0000
  C   C5598     1.0  0.63583  0.44811  0.07506  1.0000
  P   P186      1.0  0.89847  0.48804  0.22790  1.0000
  H   H4477     1.0  0.88736  0.48121  0.10148  1.0000
  C   C5599     1.0  0.89896  0.48394  0.11061  1.0000
  C   C5600     1.0  0.69283  0.46392  0.07932  1.0000
  S   S759      1.0  0.64052  0.37789  0.00210  1.0000
  C   C5601     1.0  0.91816  0.48724  0.19462  1.0000
  H   H4478     1.0  0.83037  0.47393  0.99905  1.0000
  C   C5602     1.0  0.63728  0.25196  0.00080  1.0000
  C   C5603     1.0  0.78068  0.37957  0.99671  1.0000
  H   H4479     1.0  0.61409  0.35814  0.99498  1.0000
  H   H4480     1.0  0.66412  0.49004  0.04820  1.0000
  H   H4481     1.0  0.95005  0.48212  0.19493  1.0000
  C   C5604     1.0  0.62958  0.26298  0.00117  1.0000
  H   H4482     1.0  0.54631  0.34366  0.99556  1.0000
  H   H4483     1.0  0.58732  0.30700  0.00137  1.0000
  C   C5605     1.0  0.73600  0.37729  0.99950  1.0000
  C   C5606     1.0  0.50379  0.32653  0.01559  1.0000
  C   C5607     1.0  0.72109  0.39479  0.00284  1.0000
  S   S760      1.0  0.66946  0.38850  0.99278  1.0000
  H   H4484     1.0  0.77304  0.48327  0.04214  1.0000
  C   C5608     1.0  0.64182  0.44808  0.99818  1.0000
  C   C5609     1.0  0.96598  0.48842  0.18810  1.0000
  C   C5610     1.0  0.80785  0.48663  0.10118  1.0000
  H   H4485     1.0  0.93101  0.47641  0.04051  1.0000
  C   C5611     1.0  0.69122  0.47439  0.99657  1.0000
  C   C5612     1.0  0.97056  0.48717  0.15303  1.0000
  H   H4486     1.0  0.94704  0.47807  0.05496  1.0000
  H   H4487     1.0  0.60857  0.46841  0.00249  1.0000
  H   H4488     1.0  0.49796  0.31251  0.05272  1.0000
  H   H4489     1.0  0.76701  0.48503  0.13383  1.0000
  H   H4490     1.0  0.76304  0.38076  0.99567  1.0000
  H   H4491     1.0  0.56438  0.31833  0.99308  1.0000
  C   C5613     1.0  0.62569  0.36704  0.99797  1.0000
  C   C5614     1.0  0.99034  0.48901  0.13470  1.0000
  H   H4492     1.0  0.58401  0.24614  0.99164  1.0000
  H   H4493     1.0  0.93949  0.48503  0.09473  1.0000
  C   C5615     1.0  0.72678  0.38636  0.99608  1.0000
  C   C5616     1.0  0.77241  0.36273  0.00025  1.0000
  P   P187      1.0  0.92172  0.48253  0.06393  1.0000
  H   H4494     1.0  0.49718  0.32182  0.02111  1.0000
  C   C5617     1.0  0.65771  0.33521  0.99440  1.0000
  C   C5618     1.0  0.89739  0.49056  0.16275  1.0000
  H   H4495     1.0  0.69104  0.48828  0.02935  1.0000
  H   H4496     1.0  0.78832  0.41117  0.99679  1.0000
  C   C5619     1.0  0.70150  0.37838  0.99371  1.0000
  H   H4497     1.0  0.78755  0.44732  0.99531  1.0000
  C   C5620     1.0  0.77123  0.37488  0.99742  1.0000
  C   C5621     1.0  0.63679  0.33747  0.99699  1.0000
  C   C5622     1.0  0.83177  0.35065  0.99521  1.0000
  H   H4498     1.0  0.76514  0.35908  0.00066  1.0000
  H   H4499     1.0  0.50869  0.31745  0.99095  1.0000
  H   H4500     1.0  0.60412  0.41179  0.99389  1.0000
  H   H4501     1.0  0.76779  0.43320  0.99637  1.0000
  H   H4502     1.0  0.70218  0.38717  0.99330  1.0000
  C   C5623     1.0  0.94329  0.48684  0.05056  1.0000
  Fe  Fe388     1.0  0.59480  0.24254  0.00714  1.0000
  S   S761      1.0  0.66837  0.41569  0.99288  1.0000
  C   C5624     1.0  0.82199  0.35958  0.99296  1.0000
  H   H4503     1.0  0.49760  0.29060  0.06971  1.0000
  H   H4504     1.0  0.89892  0.49081  0.14450  1.0000
  C   C5625     1.0  0.87707  0.48189  0.23947  1.0000
  S   S762      1.0  0.94089  0.49095  0.13128  1.0000
  H   H4505     1.0  0.90834  0.49214  0.08504  1.0000
  H   H4506     1.0  0.82211  0.48983  0.05663  1.0000
  H   H4507     1.0  0.86321  0.48990  0.01527  1.0000
  H   H4508     1.0  0.79345  0.49023  0.02585  1.0000
  C   C5626     1.0  0.75891  0.49018  0.10391  1.0000
  C   C5627     1.0  0.82694  0.47322  0.99206  1.0000
  C   C5628     1.0  0.90703  0.49123  0.06791  1.0000
  H   H4509     1.0  0.96013  0.49003  0.04035  1.0000
  H   H4510     1.0  0.76778  0.49127  0.00713  1.0000
  H   H4511     1.0  0.61222  0.48806  0.99175  1.0000
  C   C5629     1.0  0.61675  0.42203  0.99147  1.0000
  C   C5630     1.0  0.86561  0.49123  0.03155  1.0000
  S   S763      1.0  0.71354  0.49180  0.02758  1.0000
  C   C5631     1.0  0.86665  0.47882  0.24012  1.0000
  C   C5632     1.0  0.93110  0.49139  0.05316  1.0000
  H   H4512     1.0  0.75675  0.49186  0.09545  1.0000
  H   H4513     1.0  0.83623  0.49162  0.07366  1.0000
  C   C5633     1.0  0.61373  0.30898  0.99112  1.0000
  H   H4514     1.0  0.90239  0.49169  0.05182  1.0000
  C   C5634     1.0  0.92496  0.45175  0.47059  1.0000
  H   H4515     1.0  0.88700  0.32829  0.45780  1.0000
  C   C5635     1.0  0.96191  0.45402  0.43443  1.0000
  H   H4516     1.0  0.91680  0.45623  0.47548  1.0000
  H   H4517     1.0  0.98940  0.39682  0.43221  1.0000
  Fe  Fe389     1.0  0.98796  0.45094  0.39658  1.0000
  C   C5636     1.0  0.96787  0.44340  0.44050  1.0000
  C   C5637     1.0  0.97876  0.26566  0.43329  1.0000
  S   S764      1.0  0.93266  0.42766  0.26703  1.0000
  H   H4518     1.0  0.96718  0.35242  0.45846  1.0000
  H   H4519     1.0  0.93485  0.25090  0.41807  1.0000
  H   H4520     1.0  0.96951  0.41004  0.27177  1.0000
  H   H4521     1.0  0.94160  0.37954  0.44226  1.0000
  S   S765      1.0  0.96620  0.29752  0.48829  1.0000
  S   S766      1.0  0.97722  0.46940  0.39447  1.0000
  S   S767      1.0  0.97983  0.43593  0.40773  1.0000
  Fe  Fe390     1.0  0.98473  0.47023  0.37534  1.0000
  S   S768      1.0  0.97243  0.48023  0.36351  1.0000
  S   S769      1.0  0.98803  0.37593  0.45791  1.0000
  H   H4522     1.0  0.97964  0.41265  0.44753  1.0000
  H   H4523     1.0  0.99074  0.28701  0.48143  1.0000
  H   H4524     1.0  0.98043  0.31274  0.48670  1.0000
  Fe  Fe391     1.0  0.93149  0.46033  0.31159  1.0000
  S   S770      1.0  0.94976  0.45857  0.30062  1.0000
  S   S771      1.0  0.91684  0.45985  0.30406  1.0000
  Fe  Fe392     1.0  0.93863  0.46228  0.33293  1.0000
  S   S772      1.0  0.95741  0.46074  0.32344  1.0000
  S   S773      1.0  0.93322  0.46449  0.35174  1.0000
  Fe  Fe393     1.0  0.95048  0.47299  0.30828  1.0000
  C   C5638     1.0  0.97085  0.34182  0.48679  1.0000
  Fe  Fe394     1.0  0.95491  0.44645  0.31689  1.0000
  S   S774      1.0  0.96928  0.43006  0.31782  1.0000
  S   S775      1.0  0.93168  0.47579  0.31814  1.0000
  S   S776      1.0  0.93650  0.44701  0.32739  1.0000
  C   C5639     1.0  0.94947  0.34964  0.46362  1.0000
  C   C5640     1.0  0.98874  0.41062  0.29467  1.0000
  H   H4525     1.0  0.95675  0.33527  0.39240  1.0000
  H   H4526     1.0  0.95530  0.46084  0.26051  1.0000
  C   C5641     1.0  0.98360  0.26814  0.41217  1.0000
  C   C5642     1.0  0.95088  0.28363  0.44856  1.0000
  C   C5643     1.0  0.98213  0.43528  0.31372  1.0000
  H   H4527     1.0  0.97968  0.38599  0.24895  1.0000
  S   S777      1.0  0.99350  0.35020  0.45092  1.0000
  C   C5644     1.0  0.96824  0.42257  0.46026  1.0000
  C   C5645     1.0  0.98593  0.28401  0.47703  1.0000
  C   C5646     1.0  0.98208  0.44665  0.30696  1.0000
  Fe  Fe395     1.0  0.94181  0.43201  0.24800  1.0000
  C   C5647     1.0  0.92012  0.27685  0.48541  1.0000
  C   C5648     1.0  0.98169  0.32259  0.40269  1.0000
  H   H4528     1.0  0.97459  0.45172  0.30328  1.0000
  C   C5649     1.0  0.94496  0.25072  0.43005  1.0000
  C   C5650     1.0  0.94034  0.41920  0.30678  1.0000
  C   C5651     1.0  0.93578  0.43604  0.46043  1.0000
  H   H4529     1.0  0.98758  0.40147  0.48163  1.0000
  C   C5652     1.0  0.98017  0.46045  0.42605  1.0000
  H   H4530     1.0  0.86328  0.27977  0.47715  1.0000
  C   C5653     1.0  0.87288  0.30633  0.47315  1.0000
  C   C5654     1.0  0.96209  0.47313  0.36276  1.0000
  C   C5655     1.0  0.95031  0.47639  0.36850  1.0000
  C   C5656     1.0  0.94152  0.47298  0.36571  1.0000
  C   C5657     1.0  0.94445  0.46655  0.35697  1.0000
  C   C5658     1.0  0.95629  0.46253  0.35197  1.0000
  C   C5659     1.0  0.96510  0.46589  0.35476  1.0000
  H   H4531     1.0  0.98515  0.37360  0.28406  1.0000
  H   H4532     1.0  0.93238  0.47602  0.36972  1.0000
  C   C5660     1.0  0.87471  0.31706  0.46577  1.0000
  C   C5661     1.0  0.98224  0.28425  0.42084  1.0000
  C   C5662     1.0  0.97356  0.27611  0.46579  1.0000
  H   H4533     1.0  0.95753  0.43810  0.42531  1.0000
  H   H4534     1.0  0.86051  0.47726  0.24849  1.0000
  C   C5663     1.0  0.89383  0.27575  0.46785  1.0000
  H   H4535     1.0  0.98558  0.46672  0.32052  1.0000
  C   C5664     1.0  0.98418  0.27975  0.41090  1.0000
  C   C5665     1.0  0.97454  0.32849  0.39470  1.0000
  C   C5666     1.0  0.98008  0.44142  0.43920  1.0000
  C   C5667     1.0  0.98531  0.41404  0.42136  1.0000
  H   H4536     1.0  0.95505  0.40922  0.45533  1.0000
  C   C5668     1.0  0.98439  0.47567  0.32120  1.0000
  H   H4537     1.0  0.97775  0.41251  0.41957  1.0000
  C   C5669     1.0  0.92780  0.43778  0.27623  1.0000
  C   C5670     1.0  0.91869  0.43590  0.28607  1.0000
  C   C5671     1.0  0.91531  0.44284  0.29441  1.0000
  C   C5672     1.0  0.92127  0.45150  0.29323  1.0000
  C   C5673     1.0  0.93029  0.45359  0.28328  1.0000
  C   C5674     1.0  0.93332  0.44694  0.27460  1.0000
  H   H4538     1.0  0.91431  0.42891  0.28734  1.0000
  H   H4539     1.0  0.90823  0.44131  0.30197  1.0000
  H   H4540     1.0  0.93471  0.46050  0.28217  1.0000
  H   H4541     1.0  0.94010  0.44870  0.26684  1.0000
  C   C5675     1.0  0.98315  0.37813  0.31255  1.0000
  C   C5676     1.0  0.93308  0.34652  0.43764  1.0000
  C   C5677     1.0  0.98288  0.37855  0.26637  1.0000
  C   C5678     1.0  0.94853  0.24725  0.47954  1.0000
  H   H4542     1.0  0.92616  0.36873  0.45358  1.0000
  C   C5679     1.0  0.96716  0.36479  0.31441  1.0000
  H   H4543     1.0  0.97803  0.28056  0.43976  1.0000
  H   H4544     1.0  0.93497  0.46349  0.47118  1.0000
  C   C5680     1.0  0.96749  0.28389  0.47324  1.0000
  H   H4545     1.0  0.97124  0.32991  0.46164  1.0000
  H   H4546     1.0  0.96877  0.27296  0.46155  1.0000
  H   H4547     1.0  0.89990  0.46417  0.24225  1.0000
  C   C5681     1.0  0.98247  0.31372  0.45769  1.0000
  C   C5682     1.0  0.88185  0.29856  0.47845  1.0000
  C   C5683     1.0  0.98458  0.40612  0.46413  1.0000
  C   C5684     1.0  0.95493  0.47432  0.26900  1.0000
  C   C5685     1.0  0.95603  0.42942  0.42949  1.0000
  S   S778      1.0  0.94347  0.31327  0.46928  1.0000
  C   C5686     1.0  0.95065  0.28760  0.42802  1.0000
  C   C5687     1.0  0.95706  0.45160  0.38928  1.0000
  C   C5688     1.0  0.94725  0.43367  0.38880  1.0000
  C   C5689     1.0  0.95834  0.43476  0.38160  1.0000
  C   C5690     1.0  0.96321  0.44378  0.38193  1.0000
  P   P188      1.0  0.96596  0.42470  0.37196  1.0000
  C   C5691     1.0  0.97203  0.41046  0.38023  1.0000
  C   C5692     1.0  0.95550  0.42367  0.36445  1.0000
  C   C5693     1.0  0.95659  0.41346  0.36060  1.0000
  C   C5694     1.0  0.93818  0.43279  0.35623  1.0000
  C   C5695     1.0  0.94628  0.43338  0.36208  1.0000
  C   C5696     1.0  0.97982  0.40189  0.37431  1.0000
  H   H4548     1.0  0.91734  0.43863  0.46868  1.0000
  H   H4549     1.0  0.98234  0.31434  0.42056  1.0000
  C   C5697     1.0  0.89584  0.25613  0.46545  1.0000
  C   C5698     1.0  0.96890  0.40771  0.39256  1.0000
  C   C5699     1.0  0.97780  0.43036  0.36121  1.0000
  C   C5700     1.0  0.96805  0.46249  0.42723  1.0000
  C   C5701     1.0  0.97726  0.30594  0.44407  1.0000
  H   H4550     1.0  0.97443  0.35315  0.32883  1.0000
  C   C5702     1.0  0.89828  0.26726  0.46102  1.0000
  C   C5703     1.0  0.97653  0.43606  0.34975  1.0000
  H   H4551     1.0  0.96083  0.45862  0.38933  1.0000
  H   H4552     1.0  0.97163  0.44503  0.37641  1.0000
  H   H4553     1.0  0.96363  0.40589  0.36208  1.0000
  H   H4554     1.0  0.93111  0.44036  0.35446  1.0000
  H   H4555     1.0  0.94537  0.44149  0.36462  1.0000
  H   H4556     1.0  0.98267  0.40394  0.36484  1.0000
  H   H4557     1.0  0.99118  0.49174  0.29398  1.0000
  C   C5704     1.0  0.98121  0.26092  0.42339  1.0000
  S   S779      1.0  0.92655  0.34683  0.46956  1.0000
  H   H4558     1.0  0.96327  0.41421  0.39743  1.0000
  C   C5705     1.0  0.95619  0.24936  0.43175  1.0000
  C   C5706     1.0  0.88553  0.32002  0.46356  1.0000
  C   C5707     1.0  0.90303  0.46909  0.24643  1.0000
  C   C5708     1.0  0.98823  0.42956  0.36444  1.0000
  H   H4559     1.0  0.96863  0.43681  0.34692  1.0000
  H   H4560     1.0  0.97059  0.39433  0.40833  1.0000
  H   H4561     1.0  0.94777  0.32878  0.41330  1.0000
  C   C5709     1.0  0.94406  0.32644  0.43752  1.0000
  C   C5710     1.0  0.91833  0.25742  0.48572  1.0000
  H   H4562     1.0  0.95715  0.24966  0.44023  1.0000
  H   H4563     1.0  0.93285  0.35583  0.43549  1.0000
  C   C5711     1.0  0.97946  0.27721  0.43201  1.0000
  H   H4564     1.0  0.96743  0.40775  0.31280  1.0000
  C   C5712     1.0  0.96852  0.24920  0.47131  1.0000
  C   C5713     1.0  0.99148  0.45177  0.30537  1.0000
  C   C5714     1.0  0.98540  0.44121  0.34181  1.0000
  H   H4565     1.0  0.91937  0.28337  0.49016  1.0000
  H   H4566     1.0  0.93192  0.49102  0.34308  1.0000
  C   C5715     1.0  0.96210  0.40484  0.29846  1.0000
  H   H4567     1.0  0.98513  0.33190  0.47585  1.0000
  H   H4568     1.0  0.94790  0.48208  0.37462  1.0000
  H   H4569     1.0  0.96091  0.35968  0.31518  1.0000
  H   H4570     1.0  0.98050  0.41640  0.29754  1.0000
  H   H4571     1.0  0.95305  0.40258  0.28643  1.0000
  C   C5716     1.0  0.98656  0.45639  0.24505  1.0000
  C   C5717     1.0  0.94968  0.41694  0.31221  1.0000
  C   C5718     1.0  0.95387  0.29435  0.44683  1.0000
  C   C5719     1.0  0.91168  0.48128  0.25724  1.0000
  H   H4572     1.0  0.95138  0.39782  0.44338  1.0000
  Fe  Fe396     1.0  0.94749  0.30553  0.48704  1.0000
  C   C5720     1.0  0.96278  0.43390  0.27025  1.0000
  H   H4573     1.0  0.97608  0.24904  0.46407  1.0000
  S   S780      1.0  0.92464  0.29363  0.46536  1.0000
  H   H4574     1.0  0.93206  0.42503  0.30974  1.0000
  C   C5721     1.0  0.95673  0.42448  0.44123  1.0000
  C   C5722     1.0  0.94108  0.44157  0.39606  1.0000
  C   C5723     1.0  0.95396  0.38171  0.47345  1.0000
  H   H4575     1.0  0.96621  0.48059  0.32010  1.0000
  Fe  Fe397     1.0  0.93093  0.32756  0.47774  1.0000
  H   H4576     1.0  0.95060  0.40650  0.42258  1.0000
  C   C5724     1.0  0.89452  0.31226  0.46871  1.0000
  C   C5725     1.0  0.95544  0.36667  0.44950  1.0000
  H   H4577     1.0  0.97847  0.33126  0.38551  1.0000
  H   H4578     1.0  0.98804  0.31287  0.46356  1.0000
  C   C5726     1.0  0.98579  0.27226  0.46393  1.0000
  H   H4579     1.0  0.94122  0.45673  0.40184  1.0000
  C   C5727     1.0  0.89269  0.30159  0.47613  1.0000
  C   C5728     1.0  0.88676  0.27319  0.47916  1.0000
  C   C5729     1.0  0.90350  0.48088  0.24134  1.0000
  H   H4580     1.0  0.95372  0.42674  0.41363  1.0000
  H   H4581     1.0  0.92455  0.27324  0.45768  1.0000
  H   H4582     1.0  0.91520  0.48587  0.26142  1.0000
  C   C5730     1.0  0.95378  0.42299  0.42280  1.0000
  C   C5731     1.0  0.94856  0.41298  0.35458  1.0000
  H   H4583     1.0  0.95162  0.34130  0.46960  1.0000
  H   H4584     1.0  0.89604  0.28422  0.46423  1.0000
  H   H4585     1.0  0.86777  0.32305  0.46171  1.0000
  H   H4586     1.0  0.93441  0.41545  0.29342  1.0000
  C   C5732     1.0  0.97406  0.43447  0.26348  1.0000
  H   H4587     1.0  0.97614  0.38492  0.48329  1.0000
  H   H4588     1.0  0.91509  0.34861  0.44729  1.0000
  C   C5733     1.0  0.88432  0.26197  0.48354  1.0000
  C   C5734     1.0  0.94355  0.33856  0.43428  1.0000
  C   C5735     1.0  0.97305  0.39642  0.39881  1.0000
  C   C5736     1.0  0.95091  0.48621  0.26938  1.0000
  H   H4589     1.0  0.97322  0.35005  0.48202  1.0000
  C   C5737     1.0  0.93510  0.36511  0.45464  1.0000
  Fe  Fe398     1.0  0.98402  0.36866  0.44486  1.0000
  C   C5738     1.0  0.96278  0.38659  0.47410  1.0000
  H   H4590     1.0  0.96535  0.39386  0.46732  1.0000
  C   C5739     1.0  0.96579  0.42370  0.47195  1.0000
  H   H4591     1.0  0.97124  0.40603  0.25247  1.0000
  C   C5740     1.0  0.95512  0.30189  0.43570  1.0000
  H   H4592     1.0  0.95803  0.28669  0.47476  1.0000
  C   C5741     1.0  0.92345  0.33043  0.44740  1.0000
  H   H4593     1.0  0.94329  0.42682  0.38862  1.0000
  H   H4594     1.0  0.95253  0.45571  0.43517  1.0000
  C   C5742     1.0  0.92277  0.27117  0.46716  1.0000
  H   H4595     1.0  0.95866  0.45705  0.34576  1.0000
  H   H4596     1.0  0.93581  0.42836  0.45760  1.0000
  H   H4597     1.0  0.90299  0.31439  0.46690  1.0000
  C   C5743     1.0  0.96441  0.32122  0.41854  1.0000
  C   C5744     1.0  0.95978  0.43529  0.28180  1.0000
  C   C5745     1.0  0.96757  0.31545  0.44304  1.0000
  S   S781      1.0  0.96006  0.48684  0.29690  1.0000
  P   P189      1.0  0.95787  0.31623  0.43381  1.0000
  H   H4598     1.0  0.96021  0.46846  0.27504  1.0000
  C   C5746     1.0  0.93519  0.45585  0.46816  1.0000
  H   H4599     1.0  0.98516  0.26472  0.40440  1.0000
  C   C5747     1.0  0.97664  0.31897  0.41455  1.0000
  H   H4600     1.0  0.98308  0.29310  0.41989  1.0000
  P   P190      1.0  0.97594  0.39509  0.29354  1.0000
  H   H4601     1.0  0.93737  0.25169  0.43728  1.0000
  C   C5748     1.0  0.97935  0.43769  0.27988  1.0000
  H   H4602     1.0  0.92081  0.25362  0.46881  1.0000
  S   S782      1.0  0.91602  0.31853  0.48281  1.0000
  C   C5749     1.0  0.98467  0.30512  0.45132  1.0000
  C   C5750     1.0  0.94353  0.25028  0.41920  1.0000
  C   C5751     1.0  0.98244  0.43627  0.26829  1.0000
  C   C5752     1.0  0.96043  0.40962  0.30823  1.0000
  C   C5753     1.0  0.94384  0.37124  0.44825  1.0000
  C   C5754     1.0  0.92244  0.27961  0.47316  1.0000
  H   H4603     1.0  0.98124  0.45918  0.25298  1.0000
  Fe  Fe399     1.0  0.92904  0.30343  0.47621  1.0000
  C   C5755     1.0  0.91093  0.46966  0.26235  1.0000
  H   H4604     1.0  0.91577  0.32725  0.45277  1.0000
  H   H4605     1.0  0.95105  0.43488  0.28710  1.0000
  C   C5756     1.0  0.97296  0.32330  0.45663  1.0000
  H   H4606     1.0  0.95641  0.43223  0.26662  1.0000
  C   C5757     1.0  0.97895  0.38765  0.25746  1.0000
  H   H4607     1.0  0.97913  0.29914  0.43928  1.0000
  H   H4608     1.0  0.98562  0.43904  0.28388  1.0000
  H   H4609     1.0  0.89948  0.24952  0.46019  1.0000
  H   H4610     1.0  0.98677  0.36982  0.26471  1.0000
  C   C5758     1.0  0.95218  0.47004  0.26083  1.0000
  H   H4611     1.0  0.95434  0.30401  0.41761  1.0000
  C   C5759     1.0  0.94925  0.28026  0.43919  1.0000
  C   C5760     1.0  0.96231  0.33075  0.39859  1.0000
  H   H4612     1.0  0.97416  0.46343  0.35022  1.0000
  H   H4613     1.0  0.94967  0.38518  0.46611  1.0000
  C   C5761     1.0  0.95349  0.29841  0.42628  1.0000
  C   C5762     1.0  0.97346  0.48343  0.32105  1.0000
  C   C5763     1.0  0.95725  0.32711  0.41046  1.0000
  C   C5764     1.0  0.92304  0.34246  0.44425  1.0000
  H   H4614     1.0  0.94955  0.40517  0.35147  1.0000
  H   H4615     1.0  0.98785  0.49241  0.34653  1.0000
  C   C5765     1.0  0.95825  0.35593  0.45734  1.0000
  H   H4616     1.0  0.93318  0.42233  0.34765  1.0000
  H   H4617     1.0  0.89982  0.29565  0.47996  1.0000
  C   C5766     1.0  0.96805  0.43717  0.28657  1.0000
  C   C5767     1.0  0.95259  0.40669  0.43953  1.0000
  H   H4618     1.0  0.94945  0.28492  0.42075  1.0000
  H   H4619     1.0  0.94682  0.27200  0.44062  1.0000
  C   C5768     1.0  0.94606  0.44020  0.45782  1.0000
  H   H4620     1.0  0.94862  0.42094  0.31948  1.0000
  C   C5769     1.0  0.93389  0.32243  0.44402  1.0000
  H   H4621     1.0  0.98971  0.41394  0.26534  1.0000
  C   C5770     1.0  0.95482  0.41312  0.44624  1.0000
  H   H4622     1.0  0.95495  0.29685  0.45425  1.0000
  C   C5771     1.0  0.98030  0.38778  0.39280  1.0000
  C   C5772     1.0  0.97315  0.40119  0.27042  1.0000
  C   C5773     1.0  0.97415  0.39898  0.25947  1.0000
  C   C5774     1.0  0.96888  0.38157  0.48310  1.0000
  C   C5775     1.0  0.97761  0.41365  0.45648  1.0000
  H   H4623     1.0  0.95135  0.34183  0.42948  1.0000
  C   C5776     1.0  0.90676  0.46351  0.25688  1.0000
  H   H4624     1.0  0.90652  0.45437  0.26074  1.0000
  H   H4625     1.0  0.96576  0.43802  0.29556  1.0000
  C   C5777     1.0  0.92067  0.26008  0.47344  1.0000
  C   C5778     1.0  0.97367  0.28784  0.47888  1.0000
  H   H4626     1.0  0.94950  0.27808  0.45729  1.0000
  H   H4627     1.0  0.97731  0.25248  0.48262  1.0000
  C   C5779     1.0  0.94572  0.45007  0.46185  1.0000
  C   C5780     1.0  0.97677  0.39206  0.27954  1.0000
  P   P191      1.0  0.95979  0.43261  0.44998  1.0000
  H   H4628     1.0  0.97644  0.26045  0.44204  1.0000
  H   H4629     1.0  0.91361  0.46540  0.27055  1.0000
  C   C5781     1.0  0.94600  0.45053  0.39630  1.0000
  H   H4630     1.0  0.93244  0.44082  0.40141  1.0000
  C   C5782     1.0  0.93934  0.42263  0.35242  1.0000
  C   C5783     1.0  0.96555  0.32421  0.44932  1.0000
  C   C5784     1.0  0.95212  0.41160  0.42780  1.0000
  H   H4631     1.0  0.96156  0.37791  0.29990  1.0000
  S   S783      1.0  0.96604  0.37469  0.44093  1.0000
  C   C5785     1.0  0.95245  0.40672  0.29343  1.0000
  H   H4632     1.0  0.98414  0.44597  0.33313  1.0000
  H   H4633     1.0  0.95361  0.45329  0.46013  1.0000
  C   C5786     1.0  0.96757  0.37510  0.30575  1.0000
  H   H4634     1.0  0.86449  0.30415  0.47464  1.0000
  H   H4635     1.0  0.95862  0.43046  0.47516  1.0000
  H   H4636     1.0  0.97635  0.43330  0.25455  1.0000
  H   H4637     1.0  0.94434  0.36819  0.48117  1.0000
  C   C5787     1.0  0.93790  0.35422  0.46216  1.0000
  C   C5788     1.0  0.94169  0.41392  0.29752  1.0000
  C   C5789     1.0  0.97568  0.38175  0.30466  1.0000
  H   H4638     1.0  0.95814  0.33162  0.44890  1.0000
  H   H4639     1.0  0.93402  0.31315  0.44682  1.0000
  H   H4640     1.0  0.98930  0.42541  0.37329  1.0000
  C   C5790     1.0  0.95100  0.37200  0.48200  1.0000
  H   H4641     1.0  0.93931  0.34789  0.49007  1.0000
  C   C5791     1.0  0.94544  0.47767  0.25302  1.0000
  H   H4642     1.0  0.99115  0.46076  0.30055  1.0000
  H   H4643     1.0  0.90388  0.26922  0.45239  1.0000
  C   C5792     1.0  0.98187  0.38074  0.27735  1.0000
  C   C5793     1.0  0.95824  0.24720  0.47014  1.0000
  C   C5794     1.0  0.98272  0.36782  0.32120  1.0000
  C   C5795     1.0  0.97764  0.33153  0.48322  1.0000
  C   C5796     1.0  0.97270  0.41607  0.47964  1.0000
  C   C5797     1.0  0.88890  0.25347  0.47672  1.0000
  C   C5798     1.0  0.95335  0.24851  0.41002  1.0000
  C   C5799     1.0  0.99221  0.49110  0.32307  1.0000
  C   C5800     1.0  0.96914  0.25123  0.48186  1.0000
  H   H4644     1.0  0.95322  0.48819  0.34113  1.0000
  C   C5801     1.0  0.98376  0.39054  0.38056  1.0000
  C   C5802     1.0  0.92526  0.44184  0.46675  1.0000
  C   C5803     1.0  0.90799  0.48691  0.24676  1.0000
  H   H4645     1.0  0.96347  0.47060  0.42243  1.0000
  H   H4646     1.0  0.87882  0.48277  0.24740  1.0000
  C   C5804     1.0  0.99498  0.44569  0.24555  1.0000
  C   C5805     1.0  0.98214  0.40733  0.47571  1.0000
  H   H4647     1.0  0.95325  0.48943  0.27566  1.0000
  H   H4648     1.0  0.95225  0.24792  0.40169  1.0000
  C   C5806     1.0  0.98841  0.42489  0.41660  1.0000
  C   C5807     1.0  0.99198  0.27626  0.46951  1.0000
  C   C5808     1.0  0.94153  0.48961  0.25328  1.0000
  H   H4649     1.0  0.94339  0.47433  0.24665  1.0000
  H   H4650     1.0  0.98637  0.28519  0.40225  1.0000
  H   H4651     1.0  0.99337  0.45991  0.26387  1.0000
  C   C5809     1.0  0.96610  0.24737  0.42264  1.0000
  H   H4652     1.0  0.98500  0.43329  0.44355  1.0000
  Fe  Fe400     1.0  0.99351  0.47469  0.39412  1.0000
  C   C5810     1.0  0.96461  0.24711  0.41170  1.0000
  C   C5811     1.0  0.97500  0.32074  0.48935  1.0000
  H   H4653     1.0  0.99118  0.32073  0.39975  1.0000
  H   H4654     1.0  0.98956  0.38390  0.37592  1.0000
  H   H4655     1.0  0.98335  0.37900  0.39767  1.0000
  S   S784      1.0  0.99310  0.26204  0.45503  1.0000
  C   C5812     1.0  0.97476  0.36113  0.32211  1.0000
  H   H4656     1.0  0.99200  0.29767  0.45219  1.0000
  C   C5813     1.0  0.99382  0.47950  0.32210  1.0000
  C   C5814     1.0  0.98915  0.39996  0.29204  1.0000
  H   H4657     1.0  0.84215  0.27993  0.48389  1.0000
  P   P192      1.0  0.87994  0.28444  0.48760  1.0000
  C   C5815     1.0  0.85859  0.28190  0.48557  1.0000
  H   H4658     1.0  0.97081  0.41696  0.48864  1.0000
  H   H4659     1.0  0.99569  0.24405  0.44052  1.0000
  C   C5816     1.0  0.98617  0.44994  0.43203  1.0000
  C   C5817     1.0  0.94906  0.24927  0.49011  1.0000
  C   C5818     1.0  0.84659  0.28204  0.48933  1.0000
  P   P193      1.0  0.98047  0.24600  0.42491  1.0000
  H   H4660     1.0  0.98493  0.46699  0.42040  1.0000
  H   H4661     1.0  0.98924  0.38329  0.31214  1.0000
  C   C5819     1.0  0.99198  0.42870  0.31820  1.0000
  H   H4662     1.0  0.99197  0.41996  0.32352  1.0000
  H   H4663     1.0  0.98853  0.36504  0.32724  1.0000
  H   H4664     1.0  0.99420  0.32737  0.42020  1.0000
  S   S785      1.0  0.99283  0.48731  0.40488  1.0000
  H   H4665     1.0  0.88714  0.24477  0.48019  1.0000
  H   H4666     1.0  0.94072  0.24529  0.47880  1.0000
  C   C5820     1.0  0.99207  0.40504  0.42835  1.0000
  H   H4667     1.0  0.99177  0.41529  0.39643  1.0000
  H   H4668     1.0  0.95788  0.24536  0.46206  1.0000
  C   C5821     1.0  0.99578  0.44035  0.34505  1.0000
  H   H4669     1.0  0.99193  0.39937  0.46104  1.0000
  S   S786      1.0  0.99437  0.45134  0.37731  1.0000
  H   H4670     1.0  0.97212  0.24572  0.40450  1.0000
  S   S787      1.0  0.96102  0.43175  0.24109  1.0000
  H   H4671     1.0  0.99560  0.44830  0.43094  1.0000
  C   C5822     1.0  0.97650  0.45631  0.63087  1.0000
  H   H4672     1.0  0.93617  0.46389  0.64295  1.0000
  C   C5823     1.0  0.93872  0.46080  0.66734  1.0000
  S   S788      1.0  0.96994  0.33249  0.56088  1.0000
  H   H4673     1.0  0.89167  0.33490  0.52600  1.0000
  C   C5824     1.0  0.93996  0.46859  0.70049  1.0000
  Fe  Fe401     1.0  0.95634  0.27208  0.55661  1.0000
  H   H4674     1.0  0.96519  0.38554  0.72204  1.0000
  S   S789      1.0  0.94883  0.28908  0.59136  1.0000
  H   H4675     1.0  0.91500  0.30844  0.55758  1.0000
  H   H4676     1.0  0.93334  0.40547  0.69914  1.0000
  S   S790      1.0  0.91227  0.27778  0.56414  1.0000
  S   S791      1.0  0.96398  0.43277  0.68623  1.0000
  C   C5825     1.0  0.92545  0.36189  0.54765  1.0000
  C   C5826     1.0  0.98462  0.47771  0.66525  1.0000
  Fe  Fe402     1.0  0.93046  0.27393  0.56712  1.0000
  H   H4677     1.0  0.92949  0.46143  0.66817  1.0000
  H   H4678     1.0  0.95568  0.42591  0.73909  1.0000
  C   C5827     1.0  0.91923  0.33094  0.52987  1.0000
  C   C5828     1.0  0.97164  0.25852  0.50541  1.0000
  H   H4679     1.0  0.92255  0.24626  0.60069  1.0000
  H   H4680     1.0  0.90541  0.26012  0.55550  1.0000
  S   S792      1.0  0.98136  0.41826  0.73151  1.0000
  C   C5829     1.0  0.97746  0.38272  0.66869  1.0000
  C   C5830     1.0  0.98964  0.40909  0.58665  1.0000
  C   C5831     1.0  0.95844  0.47526  0.72453  1.0000
  C   C5832     1.0  0.95859  0.33052  0.50251  1.0000
  C   C5833     1.0  0.92991  0.47758  0.69949  1.0000
  C   C5834     1.0  0.92624  0.26414  0.52997  1.0000
  C   C5835     1.0  0.96541  0.32026  0.49893  1.0000
  C   C5836     1.0  0.89020  0.28979  0.51457  1.0000
  Fe  Fe403     1.0  0.92195  0.31051  0.49966  1.0000
  S   S793      1.0  0.90651  0.31061  0.51498  1.0000
  C   C5837     1.0  0.93666  0.43233  0.68248  1.0000
  C   C5838     1.0  0.88981  0.26332  0.54900  1.0000
  Fe  Fe404     1.0  0.98639  0.33880  0.55867  1.0000
  C   C5839     1.0  0.99357  0.26496  0.53669  1.0000
  C   C5840     1.0  0.95311  0.48784  0.64824  1.0000
  H   H4681     1.0  0.92821  0.32979  0.52481  1.0000
  H   H4682     1.0  0.89956  0.24749  0.57933  1.0000
  C   C5841     1.0  0.96193  0.45512  0.73544  1.0000
  C   C5842     1.0  0.98864  0.34356  0.65091  1.0000
  C   C5843     1.0  0.98000  0.39034  0.72427  1.0000
  C   C5844     1.0  0.98421  0.32955  0.60968  1.0000
  C   C5845     1.0  0.97235  0.41963  0.64247  1.0000
  C   C5846     1.0  0.95509  0.43905  0.63534  1.0000
  H   H4683     1.0  0.96331  0.31189  0.50361  1.0000
  C   C5847     1.0  0.93216  0.44072  0.73268  1.0000
  S   S794      1.0  0.97023  0.27532  0.54023  1.0000
  H   H4684     1.0  0.97111  0.34560  0.67790  1.0000
  C   C5848     1.0  0.98796  0.27057  0.50593  1.0000
  C   C5849     1.0  0.93920  0.26500  0.51072  1.0000
  C   C5850     1.0  0.98957  0.44831  0.64426  1.0000
  H   H4685     1.0  0.84121  0.28991  0.51540  1.0000
  C   C5851     1.0  0.90861  0.30134  0.52843  1.0000
  C   C5852     1.0  0.89871  0.30004  0.53750  1.0000
  C   C5853     1.0  0.89994  0.29267  0.54838  1.0000
  C   C5854     1.0  0.91110  0.28679  0.55035  1.0000
  C   C5855     1.0  0.92107  0.28813  0.54133  1.0000
  C   C5856     1.0  0.96338  0.38373  0.61371  1.0000
  H   H4686     1.0  0.89005  0.30474  0.53610  1.0000
  H   H4687     1.0  0.89224  0.29168  0.55535  1.0000
  S   S795      1.0  0.93401  0.29467  0.49347  1.0000
  H   H4688     1.0  0.95428  0.48263  0.64199  1.0000
  H   H4689     1.0  0.91957  0.47203  0.72917  1.0000
  C   C5857     1.0  0.97015  0.38625  0.67886  1.0000
  C   C5858     1.0  0.97118  0.39610  0.68191  1.0000
  S   S796      1.0  0.99225  0.36667  0.57931  1.0000
  H   H4690     1.0  0.97772  0.27576  0.56067  1.0000
  H   H4691     1.0  0.95852  0.27343  0.51095  1.0000
  H   H4692     1.0  0.96373  0.38132  0.68438  1.0000
  H   H4693     1.0  0.92973  0.28352  0.54282  1.0000
  H   H4694     1.0  0.88142  0.30036  0.50096  1.0000
  H   H4695     1.0  0.96586  0.36630  0.64422  1.0000
  C   C5859     1.0  0.91022  0.33260  0.52418  1.0000
  C   C5860     1.0  0.94281  0.24431  0.61789  1.0000
  H   H4696     1.0  0.95604  0.47287  0.67585  1.0000
  C   C5861     1.0  0.93961  0.30872  0.53811  1.0000
  C   C5862     1.0  0.96696  0.31900  0.56966  1.0000
  C   C5863     1.0  0.96345  0.31742  0.58188  1.0000
  C   C5864     1.0  0.95827  0.30797  0.58857  1.0000
  C   C5865     1.0  0.95659  0.30005  0.58306  1.0000
  C   C5866     1.0  0.96064  0.30132  0.57091  1.0000
  C   C5867     1.0  0.96564  0.31083  0.56424  1.0000
  H   H4697     1.0  0.96411  0.32385  0.58612  1.0000
  H   H4698     1.0  0.95518  0.30704  0.59796  1.0000
  H   H4699     1.0  0.95967  0.29515  0.56657  1.0000
  H   H4700     1.0  0.96820  0.31202  0.55481  1.0000
  H   H4701     1.0  0.91627  0.29604  0.59385  1.0000
  H   H4702     1.0  0.95837  0.46460  0.70053  1.0000
  H   H4703     1.0  0.95275  0.48368  0.72204  1.0000
  C   C5868     1.0  0.85808  0.28751  0.50335  1.0000
  H   H4704     1.0  0.97053  0.31515  0.53076  1.0000
  C   C5869     1.0  0.91453  0.30178  0.57589  1.0000
  Fe  Fe405     1.0  0.95581  0.44020  0.70226  1.0000
  C   C5870     1.0  0.92106  0.44211  0.65448  1.0000
  C   C5871     1.0  0.98377  0.25372  0.50248  1.0000
  C   C5872     1.0  0.95102  0.48318  0.69831  1.0000
  C   C5873     1.0  0.89607  0.26893  0.51535  1.0000
  C   C5874     1.0  0.92415  0.31754  0.56391  1.0000
  H   H4705     1.0  0.98821  0.41878  0.59958  1.0000
  C   C5875     1.0  0.91821  0.30220  0.58560  1.0000
  H   H4706     1.0  0.95610  0.38479  0.60976  1.0000
  C   C5876     1.0  0.95417  0.46607  0.73308  1.0000
  C   C5877     1.0  0.96027  0.30423  0.52902  1.0000
  C   C5878     1.0  0.91790  0.36126  0.51582  1.0000
  C   C5879     1.0  0.91357  0.35790  0.50807  1.0000
  C   C5880     1.0  0.92135  0.35296  0.49893  1.0000
  C   C5881     1.0  0.93346  0.35155  0.49737  1.0000
  C   C5882     1.0  0.93790  0.35505  0.50500  1.0000
  C   C5883     1.0  0.93002  0.35985  0.51430  1.0000
  P   P194      1.0  0.95346  0.35435  0.50211  1.0000
  H   H4707     1.0  0.91279  0.25650  0.58435  1.0000
  H   H4708     1.0  0.83104  0.28500  0.50299  1.0000
  C   C5884     1.0  0.99198  0.30734  0.51047  1.0000
  H   H4709     1.0  0.91233  0.33242  0.51494  1.0000
  C   C5885     1.0  0.89584  0.33400  0.54238  1.0000
  H   H4710     1.0  0.98034  0.41010  0.67708  1.0000
  Fe  Fe406     1.0  0.97410  0.42403  0.71528  1.0000
  H   H4711     1.0  0.98701  0.46152  0.71668  1.0000
  C   C5886     1.0  0.97790  0.46270  0.72127  1.0000
  C   C5887     1.0  0.94486  0.25003  0.52726  1.0000
  C   C5888     1.0  0.95789  0.35399  0.51524  1.0000
  C   C5889     1.0  0.96507  0.34386  0.52063  1.0000
  C   C5890     1.0  0.96887  0.34390  0.53043  1.0000
  C   C5891     1.0  0.96576  0.35410  0.53476  1.0000
  C   C5892     1.0  0.95879  0.36427  0.52936  1.0000
  C   C5893     1.0  0.95484  0.36422  0.51965  1.0000
  H   H4712     1.0  0.91185  0.36498  0.52296  1.0000
  H   H4713     1.0  0.90420  0.35897  0.50923  1.0000
  C   C5894     1.0  0.88545  0.29151  0.50488  1.0000
  H   H4714     1.0  0.97664  0.37508  0.66637  1.0000
  H   H4715     1.0  0.93314  0.36255  0.52037  1.0000
  H   H4716     1.0  0.93649  0.44085  0.68369  1.0000
  H   H4717     1.0  0.97290  0.28377  0.51148  1.0000
  C   C5895     1.0  0.98399  0.44675  0.63645  1.0000
  C   C5896     1.0  0.97953  0.40246  0.67476  1.0000
  H   H4718     1.0  0.96601  0.44411  0.65866  1.0000
  C   C5897     1.0  0.98384  0.27031  0.54420  1.0000
  C   C5898     1.0  0.94189  0.46837  0.67203  1.0000
  H   H4719     1.0  0.90410  0.44304  0.65165  1.0000
  H   H4720     1.0  0.96803  0.33598  0.51721  1.0000
  H   H4721     1.0  0.97445  0.33609  0.53457  1.0000
  H   H4722     1.0  0.96887  0.35412  0.54225  1.0000
  H   H4723     1.0  0.94965  0.37225  0.51540  1.0000
  C   C5899     1.0  0.94739  0.25531  0.51527  1.0000
  C   C5900     1.0  0.91982  0.29533  0.53029  1.0000
  C   C5901     1.0  0.92364  0.35137  0.54671  1.0000
  C   C5902     1.0  0.90484  0.33225  0.54815  1.0000
  C   C5903     1.0  0.94102  0.31823  0.54156  1.0000
  H   H4724     1.0  0.99000  0.47272  0.68173  1.0000
  S   S797      1.0  0.97271  0.44237  0.70440  1.0000
  C   C5904     1.0  0.95223  0.32063  0.53865  1.0000
  C   C5905     1.0  0.96283  0.48942  0.65119  1.0000
  H   H4725     1.0  0.97910  0.41213  0.64514  1.0000
  H   H4726     1.0  0.98642  0.34304  0.59391  1.0000
  H   H4727     1.0  0.92749  0.29630  0.52327  1.0000
  C   C5906     1.0  0.95366  0.46720  0.67189  1.0000
  C   C5907     1.0  0.97593  0.27536  0.50900  1.0000
  S   S798      1.0  0.93308  0.26700  0.58556  1.0000
  S   S799      1.0  0.96198  0.40022  0.69475  1.0000
  H   H4728     1.0  0.90055  0.26023  0.51916  1.0000
  H   H4729     1.0  0.93252  0.25050  0.54387  1.0000
  C   C5908     1.0  0.84034  0.28489  0.50009  1.0000
  Fe  Fe407     1.0  0.98099  0.43364  0.68916  1.0000
  H   H4730     1.0  0.98695  0.24527  0.50014  1.0000
  H   H4731     1.0  0.97953  0.42013  0.62407  1.0000
  H   H4732     1.0  0.95107  0.24266  0.53103  1.0000
  H   H4733     1.0  0.92247  0.27701  0.51450  1.0000
  C   C5909     1.0  0.98578  0.38906  0.66150  1.0000
  H   H4734     1.0  0.94577  0.33238  0.55901  1.0000
  H   H4735     1.0  0.97960  0.44493  0.73152  1.0000
  C   C5910     1.0  0.98035  0.27170  0.59067  1.0000
  H   H4736     1.0  0.95373  0.32782  0.54110  1.0000
  S   S800      1.0  0.96107  0.26437  0.57411  1.0000
  S   S801      1.0  0.94193  0.28678  0.56245  1.0000
  H   H4737     1.0  0.96766  0.29866  0.52435  1.0000
  C   C5911     1.0  0.93754  0.40984  0.68023  1.0000
  C   C5912     1.0  0.95920  0.45107  0.66200  1.0000
  C   C5913     1.0  0.93000  0.48110  0.73383  1.0000
  H   H4738     1.0  0.91801  0.35024  0.49299  1.0000
  H   H4739     1.0  0.96138  0.40230  0.61172  1.0000
  H   H4740     1.0  0.95662  0.37222  0.53262  1.0000
  H   H4741     1.0  0.97755  0.25649  0.60427  1.0000
  H   H4742     1.0  0.99581  0.39462  0.72419  1.0000
  H   H4743     1.0  0.87516  0.26399  0.54206  1.0000
  C   C5914     1.0  0.96230  0.45855  0.66690  1.0000
  H   H4744     1.0  0.97135  0.45725  0.66735  1.0000
  S   S802      1.0  0.98373  0.35837  0.55514  1.0000
  C   C5915     1.0  0.97437  0.46739  0.63332  1.0000
  C   C5916     1.0  0.93670  0.45019  0.73225  1.0000
  P   P195      1.0  0.92832  0.32693  0.54968  1.0000
  H   H4745     1.0  0.88642  0.27201  0.55091  1.0000
  H   H4746     1.0  0.99212  0.34815  0.52252  1.0000
  H   H4747     1.0  0.89218  0.26306  0.50214  1.0000
  C   C5917     1.0  0.96778  0.26942  0.50867  1.0000
  C   C5918     1.0  0.93017  0.44793  0.65212  1.0000
  C   C5919     1.0  0.98762  0.45940  0.64658  1.0000
  C   C5920     1.0  0.97374  0.45345  0.72961  1.0000
  C   C5921     1.0  0.92921  0.45926  0.64492  1.0000
  C   C5922     1.0  0.95473  0.43456  0.64737  1.0000
  H   H4748     1.0  0.98221  0.31795  0.62673  1.0000
  C   C5923     1.0  0.97938  0.37099  0.62266  1.0000
  S   S803      1.0  0.93597  0.32066  0.49516  1.0000
  Fe  Fe408     1.0  0.94608  0.27850  0.58016  1.0000
  H   H4749     1.0  0.98578  0.43820  0.63446  1.0000
  C   C5924     1.0  0.90507  0.24547  0.54899  1.0000
  C   C5925     1.0  0.93992  0.34051  0.55587  1.0000
  H   H4750     1.0  0.97502  0.39438  0.73163  1.0000
  C   C5926     1.0  0.96142  0.34135  0.49660  1.0000
  C   C5927     1.0  0.97979  0.46903  0.64135  1.0000
  H   H4751     1.0  0.99192  0.33967  0.50636  1.0000
  C   C5928     1.0  0.93960  0.42987  0.67124  1.0000
  C   C5929     1.0  0.91023  0.45884  0.64261  1.0000
  H   H4752     1.0  0.91824  0.26777  0.53568  1.0000
  C   C5930     1.0  0.96976  0.37246  0.61775  1.0000
  H   H4753     1.0  0.88281  0.24411  0.53792  1.0000
  C   C5931     1.0  0.97255  0.42407  0.63055  1.0000
  C   C5932     1.0  0.90056  0.25664  0.55153  1.0000
  H   H4754     1.0  0.93111  0.30660  0.54035  1.0000
  H   H4755     1.0  0.97649  0.37690  0.70489  1.0000
  H   H4756     1.0  0.97153  0.27399  0.58920  1.0000
  H   H4757     1.0  0.91713  0.26353  0.50104  1.0000
  H   H4758     1.0  0.93520  0.47490  0.67618  1.0000
  H   H4759     1.0  0.88988  0.29725  0.51793  1.0000
  H   H4760     1.0  0.94160  0.24857  0.49745  1.0000
  C   C5933     1.0  0.90354  0.24306  0.58677  1.0000
  H   H4761     1.0  0.97662  0.47460  0.66913  1.0000
  H   H4762     1.0  0.95919  0.48534  0.69781  1.0000
  H   H4763     1.0  0.98760  0.29184  0.52307  1.0000
  H   H4764     1.0  0.97268  0.45516  0.62436  1.0000
  C   C5934     1.0  0.93086  0.34054  0.55082  1.0000
  H   H4765     1.0  0.94808  0.29438  0.52929  1.0000
  C   C5935     1.0  0.98678  0.34873  0.60899  1.0000
  C   C5936     1.0  0.91113  0.44756  0.64975  1.0000
  H   H4766     1.0  0.97354  0.48058  0.71202  1.0000
  H   H4767     1.0  0.98931  0.31723  0.55024  1.0000
  C   C5937     1.0  0.96636  0.39358  0.61478  1.0000
  H   H4768     1.0  0.92156  0.43339  0.66001  1.0000
  H   H4769     1.0  0.89966  0.27734  0.52699  1.0000
  C   C5938     1.0  0.96357  0.42491  0.65087  1.0000
  C   C5939     1.0  0.91663  0.33038  0.54199  1.0000
  S   S804      1.0  0.94447  0.26002  0.55933  1.0000
  C   C5940     1.0  0.94917  0.30182  0.53178  1.0000
  C   C5941     1.0  0.91100  0.24814  0.58962  1.0000
  S   S805      1.0  0.95646  0.42248  0.71451  1.0000
  C   C5942     1.0  0.98684  0.39891  0.66454  1.0000
  H   H4770     1.0  0.93829  0.40101  0.67943  1.0000
  Fe  Fe409     1.0  0.96629  0.41533  0.69850  1.0000
  H   H4771     1.0  0.96441  0.43743  0.61770  1.0000
  H   H4772     1.0  0.88679  0.33503  0.54724  1.0000
  C   C5943     1.0  0.91758  0.30930  0.56507  1.0000
  C   C5944     1.0  0.98350  0.32656  0.62178  1.0000
  C   C5945     1.0  0.93427  0.42359  0.69248  1.0000
  C   C5946     1.0  0.93443  0.36170  0.55277  1.0000
  S   S806      1.0  0.93897  0.45405  0.70209  1.0000
  H   H4773     1.0  0.96896  0.47476  0.62850  1.0000
  H   H4774     1.0  0.93586  0.36982  0.55355  1.0000
  H   H4775     1.0  0.94867  0.35083  0.56083  1.0000
  C   C5947     1.0  0.96399  0.43383  0.62698  1.0000
  C   C5948     1.0  0.97027  0.47355  0.71871  1.0000
  C   C5949     1.0  0.98087  0.38048  0.70923  1.0000
  P   P196      1.0  0.96129  0.25022  0.50583  1.0000
  C   C5950     1.0  0.91840  0.26572  0.49162  1.0000
  C   C5951     1.0  0.92766  0.31797  0.57381  1.0000
  C   C5952     1.0  0.94164  0.35102  0.55690  1.0000
  C   C5953     1.0  0.96184  0.31354  0.53254  1.0000
  C   C5954     1.0  0.89855  0.33402  0.53042  1.0000
  H   H4776     1.0  0.94858  0.44659  0.63233  1.0000
  H   H4777     1.0  0.91656  0.35178  0.54279  1.0000
  H   H4778     1.0  0.90263  0.33204  0.55747  1.0000
  H   H4779     1.0  0.93289  0.32391  0.57339  1.0000
  H   H4780     1.0  0.95130  0.32995  0.51006  1.0000
  C   C5955     1.0  0.98377  0.26183  0.59915  1.0000
  C   C5956     1.0  0.95054  0.47141  0.69988  1.0000
  H   H4781     1.0  0.90961  0.29536  0.57665  1.0000
  H   H4782     1.0  0.92790  0.31039  0.59201  1.0000
  P   P197      1.0  0.94302  0.44103  0.65825  1.0000
  S   S807      1.0  0.98410  0.41545  0.70013  1.0000
  H   H4783     1.0  0.98200  0.40553  0.59138  1.0000
  C   C5957     1.0  0.97406  0.34748  0.66844  1.0000
  C   C5958     1.0  0.98586  0.34064  0.60330  1.0000
  P   P198      1.0  0.97775  0.48354  0.64397  1.0000
  C   C5959     1.0  0.94736  0.45206  0.66230  1.0000
  H   H4784     1.0  0.98540  0.28627  0.57747  1.0000
  H   H4785     1.0  0.91984  0.37018  0.54447  1.0000
  H   H4786     1.0  0.96714  0.36495  0.61706  1.0000
  H   H4787     1.0  0.96369  0.42142  0.66009  1.0000
  H   H4788     1.0  0.91858  0.47342  0.63466  1.0000
  C   C5960     1.0  0.92865  0.26939  0.51804  1.0000
  C   C5961     1.0  0.98830  0.27865  0.58399  1.0000
  H   H4789     1.0  0.93422  0.49161  0.65128  1.0000
  C   C5962     1.0  0.98478  0.27060  0.55530  1.0000
  C   C5963     1.0  0.98192  0.35269  0.64393  1.0000
  C   C5964     1.0  0.92473  0.31032  0.58456  1.0000
  C   C5965     1.0  0.89131  0.27060  0.50563  1.0000
  C   C5966     1.0  0.98616  0.48963  0.61961  1.0000
  H   H4790     1.0  0.94106  0.26927  0.50152  1.0000
  C   C5967     1.0  0.91928  0.46468  0.64019  1.0000
  H   H4791     1.0  0.95910  0.36168  0.66569  1.0000
  H   H4792     1.0  0.97133  0.36770  0.49808  1.0000
  C   C5968     1.0  0.84607  0.28765  0.50708  1.0000
  H   H4793     1.0  0.98318  0.31271  0.51209  1.0000
  H   H4794     1.0  0.97793  0.39978  0.62095  1.0000
  C   C5969     1.0  0.92108  0.48043  0.72900  1.0000
  H   H4795     1.0  0.98895  0.38999  0.53410  1.0000
  H   H4796     1.0  0.92174  0.47548  0.69989  1.0000
  C   C5970     1.0  0.88606  0.28194  0.50024  1.0000
  C   C5971     1.0  0.98224  0.38094  0.62381  1.0000
  P   P199      1.0  0.98748  0.35647  0.62823  1.0000
  C   C5972     1.0  0.97572  0.39217  0.61991  1.0000
  H   H4797     1.0  0.98349  0.32330  0.60521  1.0000
  C   C5973     1.0  0.97449  0.38534  0.71891  1.0000
  H   H4798     1.0  0.90251  0.46305  0.63898  1.0000
  H   H4799     1.0  0.94253  0.45361  0.72429  1.0000
  C   C5974     1.0  0.93470  0.41236  0.69136  1.0000
  C   C5975     1.0  0.93431  0.25444  0.53458  1.0000
  H   H4800     1.0  0.99329  0.40017  0.57274  1.0000
  C   C5976     1.0  0.93994  0.41856  0.67020  1.0000
  C   C5977     1.0  0.99188  0.39053  0.71992  1.0000
  H   H4801     1.0  0.94227  0.41641  0.66166  1.0000
  C   C5978     1.0  0.95691  0.36709  0.49122  1.0000
  C   C5979     1.0  0.99218  0.47661  0.67244  1.0000
  H   H4802     1.0  0.93246  0.42545  0.70110  1.0000
  H   H4803     1.0  0.93441  0.43699  0.72501  1.0000
  C   C5980     1.0  0.89563  0.27854  0.51973  1.0000
  Fe  Fe410     1.0  0.94781  0.25379  0.57744  1.0000
  H   H4804     1.0  0.98810  0.35726  0.60390  1.0000
  C   C5981     1.0  0.98471  0.34097  0.66311  1.0000
  C   C5982     1.0  0.98744  0.48269  0.65318  1.0000
  H   H4805     1.0  0.86231  0.28972  0.50889  1.0000
  C   C5983     1.0  0.88350  0.25880  0.54400  1.0000
  C   C5984     1.0  0.99270  0.38085  0.70471  1.0000
  H   H4806     1.0  0.98844  0.38077  0.59588  1.0000
  C   C5985     1.0  0.99441  0.29565  0.51656  1.0000
  H   H4807     1.0  0.98998  0.48041  0.61978  1.0000
  C   C5986     1.0  0.88795  0.24759  0.54152  1.0000
  H   H4808     1.0  0.99551  0.44092  0.64848  1.0000
  C   C5987     1.0  0.99188  0.25971  0.50277  1.0000
  H   H4809     1.0  0.99226  0.46029  0.65253  1.0000
  C   C5988     1.0  0.97117  0.35913  0.64934  1.0000
  C   C5989     1.0  0.96728  0.35653  0.66155  1.0000
  H   H4810     1.0  0.99299  0.26483  0.52803  1.0000
  C   C5990     1.0  0.93039  0.48928  0.69792  1.0000
  C   C5991     1.0  0.98440  0.33467  0.62751  1.0000
  H   H4811     1.0  0.98944  0.38006  0.62779  1.0000
  C   C5992     1.0  0.99316  0.41646  0.59130  1.0000
  C   C5993     1.0  0.98599  0.34588  0.62114  1.0000
  H   H4812     1.0  0.99322  0.40382  0.65894  1.0000
  S   S808      1.0  0.99349  0.44118  0.67333  1.0000
  H   H4813     1.0  0.92424  0.24588  0.62100  1.0000
  H   H4814     1.0  0.98381  0.33216  0.63687  1.0000
  S   S809      1.0  0.99454  0.38445  0.64872  1.0000
  H   H4815     1.0  0.99002  0.33403  0.66846  1.0000
  H   H4816     1.0  0.90755  0.49007  0.71952  1.0000
  C   C5994     1.0  0.99357  0.39340  0.53836  1.0000
  C   C5995     1.0  0.91417  0.49067  0.72354  1.0000
  C   C5996     1.0  0.95940  0.25128  0.49137  1.0000
  H   H4817     1.0  0.99428  0.27524  0.50603  1.0000
  C   C5997     1.0  0.99413  0.35295  0.51359  1.0000
  C   C5998     1.0  0.99393  0.34820  0.50442  1.0000
  S   S810      1.0  0.91522  0.24388  0.49403  1.0000
  H   H4818     1.0  0.99333  0.40973  0.52565  1.0000
  C   C5999     1.0  0.96609  0.37177  0.49153  1.0000
  H   H4819     1.0  0.99525  0.37799  0.55227  1.0000
  C   C6000     1.0  0.99487  0.30852  0.55134  1.0000
  C   C6001     1.0  0.99486  0.26415  0.55950  1.0000
  C   C6002     1.0  0.93178  0.49215  0.73323  1.0000
  C   C6003     1.0  0.94087  0.49209  0.69755  1.0000
  H   H4820     1.0  0.94186  0.25310  0.61897  1.0000
  H   H4821     1.0  0.98993  0.24294  0.53615  1.0000
  C   C6004     1.0  0.99515  0.25892  0.60104  1.0000
  H   H4822     1.0  0.99548  0.30790  0.56894  1.0000
  H   H4823     1.0  0.99543  0.30670  0.53410  1.0000
  S   S811      1.0  0.99568  0.43574  0.61015  1.0000
  H   H4824     1.0  0.99536  0.26385  0.56829  1.0000
  H   H4825     1.0  0.87884  0.25980  0.49219  1.0000
  C   C6005     1.0  0.86445  0.28457  0.49259  1.0000
  Fe  Fe411     1.0  0.60250  0.33600  0.97050  1.0000
  H   H4826     1.0  0.67691  0.47633  0.96002  1.0000
  S   S812      1.0  0.61754  0.32542  0.95933  1.0000
  S   S813      1.0  0.56150  0.35164  0.96688  1.0000
  S   S814      1.0  0.59361  0.35451  0.96363  1.0000
  S   S815      1.0  0.52343  0.29275  0.90201  1.0000
  Fe  Fe412     1.0  0.57922  0.29031  0.91802  1.0000
  S   S816      1.0  0.59769  0.28899  0.90750  1.0000
  S   S817      1.0  0.56512  0.30596  0.91270  1.0000
  Fe  Fe413     1.0  0.58652  0.26886  0.93621  1.0000
  S   S818      1.0  0.60559  0.26615  0.92738  1.0000
  C   C6006     1.0  0.51379  0.24636  0.92980  1.0000
  Fe  Fe414     1.0  0.60241  0.28576  0.92484  1.0000
  S   S819      1.0  0.61586  0.29502  0.92534  1.0000
  Fe  Fe415     1.0  0.59872  0.26966  0.91119  1.0000
  S   S820      1.0  0.60687  0.25933  0.89700  1.0000
  S   S821      1.0  0.58384  0.28812  0.93522  1.0000
  S   S822      1.0  0.57980  0.27126  0.92021  1.0000
  H   H4827     1.0  0.49831  0.26514  0.94772  1.0000
  S   S823      1.0  0.49836  0.36107  0.96787  1.0000
  C   C6007     1.0  0.52343  0.30491  0.98354  1.0000
  Fe  Fe416     1.0  0.73850  0.41300  0.96579  1.0000
  Fe  Fe417     1.0  0.57702  0.34915  0.97471  1.0000
  S   S824      1.0  0.73317  0.39914  0.96070  1.0000
  Fe  Fe418     1.0  0.74716  0.43555  0.95633  1.0000
  S   S825      1.0  0.75267  0.44937  0.94059  1.0000
  S   S826      1.0  0.75666  0.41661  0.95905  1.0000
  H   H4828     1.0  0.51788  0.26188  0.95168  1.0000
  H   H4829     1.0  0.50003  0.25073  0.89588  1.0000
  H   H4830     1.0  0.98962  0.46541  0.90691  1.0000
  C   C6008     1.0  0.53780  0.35500  0.97131  1.0000
  S   S827      1.0  0.50796  0.31419  0.92341  1.0000
  H   H4831     1.0  0.55660  0.26172  0.92060  1.0000
  C   C6009     1.0  0.54541  0.26363  0.97966  1.0000
  H   H4832     1.0  0.72313  0.32188  0.97894  1.0000
  Fe  Fe419     1.0  0.98480  0.46379  0.86374  1.0000
  C   C6010     1.0  0.83695  0.47192  0.93484  1.0000
  Fe  Fe420     1.0  0.99489  0.46914  0.88119  1.0000
  Fe  Fe421     1.0  0.59550  0.35845  0.97998  1.0000
  C   C6011     1.0  0.97188  0.42045  0.74502  1.0000
  C   C6012     1.0  0.65245  0.26714  0.97402  1.0000
  C   C6013     1.0  0.80147  0.41771  0.98235  1.0000
  C   C6014     1.0  0.53570  0.29692  0.90300  1.0000
  C   C6015     1.0  0.54051  0.36607  0.90877  1.0000
  C   C6016     1.0  0.61185  0.37600  0.98523  1.0000
  C   C6017     1.0  0.79886  0.46403  0.92706  1.0000
  C   C6018     1.0  0.58107  0.34965  0.84626  1.0000
  S   S828      1.0  0.98743  0.45413  0.88165  1.0000
  S   S829      1.0  0.91448  0.45367  0.95989  1.0000
  Fe  Fe422     1.0  0.95959  0.43150  0.79089  1.0000
  S   S830      1.0  0.97359  0.44088  0.77986  1.0000
  S   S831      1.0  0.94910  0.42730  0.78058  1.0000
  Fe  Fe423     1.0  0.96381  0.43399  0.81362  1.0000
  S   S832      1.0  0.97809  0.44365  0.80408  1.0000
  S   S833      1.0  0.95817  0.43225  0.83328  1.0000
  Fe  Fe424     1.0  0.96620  0.45342  0.79190  1.0000
  S   S834      1.0  0.96231  0.47303  0.78558  1.0000
  H   H4833     1.0  0.54586  0.24543  0.98760  1.0000
  C   C6019     1.0  0.60736  0.41956  0.98887  1.0000
  S   S835      1.0  0.95131  0.44485  0.80212  1.0000
  S   S836      1.0  0.97069  0.41957  0.80348  1.0000
  H   H4834     1.0  0.53278  0.29235  0.92725  1.0000
  H   H4835     1.0  0.52665  0.34695  0.95756  1.0000
  C   C6020     1.0  0.66440  0.26627  0.96881  1.0000
  C   C6021     1.0  0.53116  0.25339  0.97944  1.0000
  S   S837      1.0  0.84360  0.40624  0.97930  1.0000
  C   C6022     1.0  0.92715  0.47535  0.76182  1.0000
  H   H4836     1.0  0.64826  0.38145  0.97256  1.0000
  H   H4837     1.0  0.65943  0.46109  0.97389  1.0000
  C   C6023     1.0  0.71665  0.46437  0.96396  1.0000
  C   C6024     1.0  0.54708  0.35842  0.97307  1.0000
  C   C6025     1.0  0.95780  0.42446  0.76693  1.0000
  C   C6026     1.0  0.95263  0.42618  0.75745  1.0000
  C   C6027     1.0  0.86101  0.48490  0.98224  1.0000
  S   S838      1.0  0.99374  0.47801  0.86267  1.0000
  H   H4838     1.0  0.52588  0.28282  0.88099  1.0000
  C   C6028     1.0  0.96996  0.42045  0.76548  1.0000
  H   H4839     1.0  0.94323  0.42909  0.75860  1.0000
  C   C6029     1.0  0.55767  0.32058  0.96717  1.0000
  H   H4840     1.0  0.58630  0.28314  0.98320  1.0000
  H   H4841     1.0  0.97397  0.41883  0.77281  1.0000
  C   C6030     1.0  0.97399  0.47962  0.78368  1.0000
  H   H4842     1.0  0.98849  0.45782  0.77518  1.0000
  S   S839      1.0  0.88489  0.47335  0.95442  1.0000
  H   H4843     1.0  0.99434  0.40957  0.77162  1.0000
  C   C6031     1.0  0.94485  0.46670  0.93820  1.0000
  C   C6032     1.0  0.92473  0.43610  0.74292  1.0000
  S   S840      1.0  0.71447  0.44220  0.99072  1.0000
  C   C6033     1.0  0.85635  0.49163  0.91477  1.0000
  C   C6034     1.0  0.92383  0.46663  0.91070  1.0000
  C   C6035     1.0  0.65593  0.31280  0.94525  1.0000
  C   C6036     1.0  0.96962  0.44925  0.85086  1.0000
  C   C6037     1.0  0.96242  0.44422  0.84734  1.0000
  C   C6038     1.0  0.96706  0.43840  0.83799  1.0000
  C   C6039     1.0  0.61468  0.46106  0.98708  1.0000
  P   P200      1.0  0.53380  0.35645  0.93266  1.0000
  H   H4844     1.0  0.96606  0.45371  0.85807  1.0000
  H   H4845     1.0  0.95328  0.44494  0.85177  1.0000
  C   C6040     1.0  0.92172  0.44105  0.75274  1.0000
  H   H4846     1.0  0.59503  0.35813  0.83562  1.0000
  C   C6041     1.0  0.55061  0.26565  0.94572  1.0000
  Fe  Fe425     1.0  0.83000  0.42287  0.97624  1.0000
  H   H4847     1.0  0.77298  0.46475  0.98765  1.0000
  H   H4848     1.0  0.62855  0.43357  0.98682  1.0000
  C   C6042     1.0  0.93778  0.46938  0.75570  1.0000
  H   H4849     1.0  0.84274  0.46540  0.96512  1.0000
  C   C6043     1.0  0.78406  0.46784  0.97034  1.0000
  H   H4850     1.0  0.71068  0.49017  0.94423  1.0000
  C   C6044     1.0  0.98465  0.46344  0.92573  1.0000
  H   H4851     1.0  0.54740  0.28004  0.90188  1.0000
  H   H4852     1.0  0.91615  0.43734  0.76076  1.0000
  C   C6045     1.0  0.62186  0.45482  0.94331  1.0000
  C   C6046     1.0  0.53824  0.25035  0.90316  1.0000
  C   C6047     1.0  0.60671  0.24441  0.96794  1.0000
  C   C6048     1.0  0.82253  0.46123  0.98173  1.0000
  C   C6049     1.0  0.98558  0.46042  0.91514  1.0000
  C   C6050     1.0  0.61929  0.46309  0.97491  1.0000
  H   H4853     1.0  0.52167  0.31124  0.85145  1.0000
  H   H4854     1.0  0.71958  0.36702  0.96800  1.0000
  H   H4855     1.0  0.71025  0.31167  0.97482  1.0000
  H   H4856     1.0  0.97590  0.41111  0.84106  1.0000
  C   C6051     1.0  0.65284  0.46025  0.98199  1.0000
  H   H4857     1.0  0.53971  0.34788  0.96695  1.0000
  C   C6052     1.0  0.82406  0.39462  0.96795  1.0000
  H   H4858     1.0  0.68434  0.38346  0.95916  1.0000
  C   C6053     1.0  0.81690  0.39842  0.95985  1.0000
  C   C6054     1.0  0.75471  0.46051  0.94585  1.0000
  C   C6055     1.0  0.58936  0.32116  0.89851  1.0000
  H   H4859     1.0  0.91449  0.40935  0.97111  1.0000
  H   H4860     1.0  0.64084  0.30068  0.97180  1.0000
  C   C6056     1.0  0.59449  0.33438  0.90685  1.0000
  C   C6057     1.0  0.72494  0.37353  0.94955  1.0000
  C   C6058     1.0  0.88296  0.47768  0.92269  1.0000
  H   H4861     1.0  0.94374  0.47595  0.85526  1.0000
  C   C6059     1.0  0.59198  0.35245  0.84389  1.0000
  H   H4862     1.0  0.95498  0.45832  0.75741  1.0000
  C   C6060     1.0  0.71490  0.32682  0.97652  1.0000
  C   C6061     1.0  0.78490  0.42211  0.96882  1.0000
  C   C6062     1.0  0.79592  0.42499  0.96363  1.0000
  C   C6063     1.0  0.98516  0.40715  0.83845  1.0000
  H   H4863     1.0  0.80655  0.44066  0.98234  1.0000
  S   S841      1.0  0.67897  0.40748  0.96229  1.0000
  H   H4864     1.0  0.77857  0.42371  0.96353  1.0000
  H   H4865     1.0  0.79808  0.42876  0.95435  1.0000
  H   H4866     1.0  0.51913  0.35784  0.97380  1.0000
  C   C6064     1.0  0.79479  0.46400  0.96286  1.0000
  C   C6065     1.0  0.93887  0.48608  0.86844  1.0000
  C   C6066     1.0  0.67279  0.36149  0.97909  1.0000
  C   C6067     1.0  0.60646  0.24435  0.90010  1.0000
  C   C6068     1.0  0.98366  0.47367  0.78871  1.0000
  C   C6069     1.0  0.51495  0.33597  0.95963  1.0000
  H   H4867     1.0  0.51207  0.37006  0.94444  1.0000
  H   H4868     1.0  0.84617  0.47211  0.93201  1.0000
  C   C6070     1.0  0.69379  0.33964  0.97007  1.0000
  H   H4869     1.0  0.57980  0.32694  0.93038  1.0000
  H   H4870     1.0  0.53288  0.26026  0.85898  1.0000
  C   C6071     1.0  0.55415  0.30250  0.90837  1.0000
  C   C6072     1.0  0.55565  0.29152  0.90591  1.0000
  C   C6073     1.0  0.53453  0.30814  0.90468  1.0000
  C   C6074     1.0  0.54368  0.31087  0.90749  1.0000
  H   H4871     1.0  0.56378  0.28508  0.90635  1.0000
  H   H4872     1.0  0.54253  0.31939  0.90926  1.0000
  C   C6075     1.0  0.65059  0.30455  0.95400  1.0000
  H   H4873     1.0  0.50793  0.38531  0.95572  1.0000
  C   C6076     1.0  0.95967  0.42432  0.74643  1.0000
  C   C6077     1.0  0.61564  0.38652  0.98265  1.0000
  C   C6078     1.0  0.61870  0.48323  0.97498  1.0000
  C   C6079     1.0  0.69086  0.43797  0.96239  1.0000
  H   H4874     1.0  0.88363  0.38983  0.98677  1.0000
  H   H4875     1.0  0.83629  0.34500  0.98905  1.0000
  H   H4876     1.0  0.49820  0.25338  0.87366  1.0000
  S   S842      1.0  0.58590  0.33024  0.98031  1.0000
  H   H4877     1.0  0.63022  0.44854  0.94242  1.0000
  C   C6080     1.0  0.71437  0.40121  0.95162  1.0000
  C   C6081     1.0  0.85176  0.46053  0.96455  1.0000
  H   H4878     1.0  0.71235  0.40638  0.97824  1.0000
  H   H4879     1.0  0.72083  0.39909  0.94391  1.0000
  S   S843      1.0  0.50886  0.37744  0.98539  1.0000
  C   C6082     1.0  0.61576  0.31772  0.94982  1.0000
  C   C6083     1.0  0.62540  0.31496  0.94078  1.0000
  C   C6084     1.0  0.62500  0.30830  0.93329  1.0000
  C   C6085     1.0  0.61498  0.30416  0.93473  1.0000
  C   C6086     1.0  0.60514  0.30699  0.94370  1.0000
  C   C6087     1.0  0.60552  0.31385  0.95123  1.0000
  H   H4880     1.0  0.63326  0.31801  0.93955  1.0000
  H   H4881     1.0  0.63262  0.30617  0.92642  1.0000
  H   H4882     1.0  0.59739  0.30373  0.94495  1.0000
  H   H4883     1.0  0.59805  0.31587  0.95827  1.0000
  H   H4884     1.0  0.72704  0.45813  0.94133  1.0000
  C   C6088     1.0  0.52607  0.25604  0.85922  1.0000
  P   P201      1.0  0.51315  0.26662  0.87788  1.0000
  H   H4885     1.0  0.58941  0.35277  0.89922  1.0000
  C   C6089     1.0  0.49787  0.28003  0.98728  1.0000
  C   C6090     1.0  0.55476  0.34593  0.94043  1.0000
  S   S844      1.0  0.89479  0.45779  0.98427  1.0000
  H   H4886     1.0  0.97266  0.43708  0.92559  1.0000
  H   H4887     1.0  0.69953  0.38240  0.97597  1.0000
  H   H4888     1.0  0.50627  0.33134  0.93748  1.0000
  H   H4889     1.0  0.60214  0.47167  0.92684  1.0000
  C   C6091     1.0  0.95135  0.47349  0.92873  1.0000
  C   C6092     1.0  0.58410  0.33768  0.86530  1.0000
  S   S845      1.0  0.87444  0.41208  0.96868  1.0000
  H   H4890     1.0  0.50867  0.37576  0.90398  1.0000
  S   S846      1.0  0.76911  0.41204  0.98754  1.0000
  H   H4891     1.0  0.54940  0.36382  0.91006  1.0000
  H   H4892     1.0  0.98219  0.39542  0.82983  1.0000
  C   C6093     1.0  0.86875  0.45222  0.97313  1.0000
  Fe  Fe426     1.0  0.90638  0.46799  0.98664  1.0000
  H   H4893     1.0  0.57565  0.35315  0.83983  1.0000
  H   H4894     1.0  0.98921  0.47798  0.83890  1.0000
  H   H4895     1.0  0.54023  0.32412  0.96435  1.0000
  C   C6094     1.0  0.52254  0.28649  0.87310  1.0000
  C   C6095     1.0  0.68745  0.44759  0.97834  1.0000
  C   C6096     1.0  0.98903  0.48520  0.82070  1.0000
  C   C6097     1.0  0.49822  0.26886  0.88639  1.0000
  H   H4896     1.0  0.64321  0.46187  0.96199  1.0000
  C   C6098     1.0  0.53922  0.24492  0.89414  1.0000
  H   H4897     1.0  0.65007  0.29662  0.95198  1.0000
  C   C6099     1.0  0.53996  0.32333  0.98237  1.0000
  C   C6100     1.0  0.55665  0.33849  0.89037  1.0000
  C   C6101     1.0  0.52026  0.30267  0.85639  1.0000
  H   H4898     1.0  0.51221  0.36608  0.92372  1.0000
  H   H4899     1.0  0.66438  0.45390  0.95563  1.0000
  C   C6102     1.0  0.60603  0.46786  0.93443  1.0000
  C   C6103     1.0  0.52263  0.25978  0.88809  1.0000
  C   C6104     1.0  0.98392  0.46710  0.75872  1.0000
  H   H4900     1.0  0.67519  0.35333  0.98519  1.0000
  C   C6105     1.0  0.50662  0.25216  0.86756  1.0000
  C   C6106     1.0  0.58458  0.33064  0.89033  1.0000
  H   H4901     1.0  0.78339  0.48810  0.97930  1.0000
  C   C6107     1.0  0.50427  0.25407  0.93522  1.0000
  C   C6108     1.0  0.51538  0.25759  0.86753  1.0000
  C   C6109     1.0  0.54544  0.32282  0.97069  1.0000
  C   C6110     1.0  0.54643  0.28873  0.90321  1.0000
  H   H4902     1.0  0.66341  0.39215  0.95958  1.0000
  H   H4903     1.0  0.69965  0.40208  0.94465  1.0000
  C   C6111     1.0  0.54502  0.32902  0.87971  1.0000
  H   H4904     1.0  0.81891  0.45327  0.94068  1.0000
  C   C6112     1.0  0.72427  0.45608  0.91502  1.0000
  C   C6113     1.0  0.72951  0.45512  0.92418  1.0000
  C   C6114     1.0  0.95258  0.47198  0.82443  1.0000
  H   H4905     1.0  0.54966  0.29434  0.93339  1.0000
  S   S847      1.0  0.97747  0.47951  0.88917  1.0000
  C   C6115     1.0  0.49891  0.29054  0.96702  1.0000
  H   H4906     1.0  0.57099  0.33819  0.94616  1.0000
  S   S848      1.0  0.57806  0.35451  0.99053  1.0000
  C   C6116     1.0  0.68576  0.33856  0.94529  1.0000
  C   C6117     1.0  0.68608  0.35043  0.94193  1.0000
  C   C6118     1.0  0.67593  0.35891  0.94493  1.0000
  C   C6119     1.0  0.66539  0.35556  0.95103  1.0000
  C   C6120     1.0  0.66489  0.34367  0.95414  1.0000
  C   C6121     1.0  0.67527  0.33517  0.95154  1.0000
  P   P202      1.0  0.65127  0.33924  0.96203  1.0000
  C   C6122     1.0  0.88240  0.45705  0.92914  1.0000
  C   C6123     1.0  0.63897  0.35029  0.95740  1.0000
  C   C6124     1.0  0.63517  0.36084  0.96137  1.0000
  C   C6125     1.0  0.62569  0.36942  0.95782  1.0000
  C   C6126     1.0  0.61958  0.36736  0.95075  1.0000
  C   C6127     1.0  0.62314  0.35682  0.94694  1.0000
  C   C6128     1.0  0.63286  0.34835  0.95015  1.0000
  C   C6129     1.0  0.80289  0.45417  0.96732  1.0000
  C   C6130     1.0  0.57931  0.30420  0.88321  1.0000
  C   C6131     1.0  0.90204  0.42172  0.98079  1.0000
  C   C6132     1.0  0.71224  0.46096  0.91600  1.0000
  C   C6133     1.0  0.61228  0.27489  0.96134  1.0000
  C   C6134     1.0  0.64546  0.30680  0.96519  1.0000
  H   H4907     1.0  0.97978  0.45790  0.94473  1.0000
  H   H4908     1.0  0.98623  0.41487  0.75351  1.0000
  H   H4909     1.0  0.72953  0.45298  0.90722  1.0000
  C   C6135     1.0  0.70088  0.34542  0.97270  1.0000
  H   H4910     1.0  0.51087  0.30086  0.84465  1.0000
  H   H4911     1.0  0.69367  0.33197  0.94308  1.0000
  H   H4912     1.0  0.69421  0.35304  0.93706  1.0000
  H   H4913     1.0  0.67616  0.36813  0.94248  1.0000
  H   H4914     1.0  0.65769  0.36232  0.95321  1.0000
  H   H4915     1.0  0.67525  0.32591  0.95425  1.0000
  H   H4916     1.0  0.63938  0.36240  0.96736  1.0000
  H   H4917     1.0  0.62276  0.37752  0.96093  1.0000
  H   H4918     1.0  0.61186  0.37380  0.94853  1.0000
  H   H4919     1.0  0.61819  0.35504  0.94176  1.0000
  H   H4920     1.0  0.63524  0.34020  0.94723  1.0000
  H   H4921     1.0  0.61198  0.29547  0.86752  1.0000
  H   H4922     1.0  0.81991  0.40347  0.95118  1.0000
  C   C6136     1.0  0.70960  0.40536  0.97094  1.0000
  H   H4923     1.0  0.96051  0.48278  0.96205  1.0000
  C   C6137     1.0  0.55833  0.25259  0.92024  1.0000
  C   C6138     1.0  0.99284  0.47916  0.78712  1.0000
  H   H4924     1.0  0.86157  0.48271  0.91594  1.0000
  H   H4925     1.0  0.93627  0.45201  0.82898  1.0000
  H   H4926     1.0  0.65420  0.36214  0.98535  1.0000
  C   C6139     1.0  0.93844  0.45988  0.82947  1.0000
  H   H4927     1.0  0.52649  0.31468  0.90395  1.0000
  C   C6140     1.0  0.61683  0.45974  0.93352  1.0000
  C   C6141     1.0  0.52355  0.36985  0.98094  1.0000
  C   C6142     1.0  0.71803  0.40235  0.96108  1.0000
  C   C6143     1.0  0.57111  0.33266  0.93074  1.0000
  C   C6144     1.0  0.72278  0.45909  0.93430  1.0000
  C   C6145     1.0  0.79604  0.45777  0.92058  1.0000
  C   C6146     1.0  0.78919  0.44950  0.92629  1.0000
  C   C6147     1.0  0.78528  0.44740  0.93847  1.0000
  C   C6148     1.0  0.78807  0.45364  0.94498  1.0000
  H   H4928     1.0  0.92379  0.45419  0.76006  1.0000
  H   H4929     1.0  0.89932  0.40396  0.96497  1.0000
  C   C6149     1.0  0.54004  0.37290  0.94062  1.0000
  C   C6150     1.0  0.94545  0.46379  0.77329  1.0000
  Fe  Fe427     1.0  0.98412  0.43015  0.79318  1.0000
  C   C6151     1.0  0.91824  0.46037  0.92127  1.0000
  H   H4930     1.0  0.57982  0.28565  0.88765  1.0000
  C   C6152     1.0  0.56766  0.28987  0.98810  1.0000
  C   C6153     1.0  0.51690  0.38186  0.95148  1.0000
  S   S849      1.0  0.92317  0.45458  0.98285  1.0000
  H   H4931     1.0  0.97682  0.47358  0.76247  1.0000
  H   H4932     1.0  0.88032  0.48637  0.92451  1.0000
  H   H4933     1.0  0.59102  0.24510  0.91420  1.0000
  H   H4934     1.0  0.57392  0.31724  0.97246  1.0000
  C   C6154     1.0  0.70547  0.46493  0.92611  1.0000
  Fe  Fe428     1.0  0.89849  0.46724  0.96537  1.0000
  H   H4935     1.0  0.71516  0.45558  0.96683  1.0000
  C   C6155     1.0  0.51683  0.25732  0.94571  1.0000
  H   H4936     1.0  0.80784  0.41573  0.98759  1.0000
  C   C6156     1.0  0.83340  0.46164  0.93595  1.0000
  C   C6157     1.0  0.82149  0.46137  0.93974  1.0000
  H   H4937     1.0  0.74709  0.47472  0.93316  1.0000
  H   H4938     1.0  0.78673  0.44483  0.92130  1.0000
  H   H4939     1.0  0.77979  0.44113  0.94286  1.0000
  H   H4940     1.0  0.77754  0.47522  0.96709  1.0000
  H   H4941     1.0  0.52423  0.39237  0.95785  1.0000
  H   H4942     1.0  0.85212  0.46140  0.98186  1.0000
  H   H4943     1.0  0.52532  0.37952  0.88722  1.0000
  C   C6158     1.0  0.90530  0.41333  0.97393  1.0000
  H   H4944     1.0  0.55098  0.35032  0.94767  1.0000
  S   S850      1.0  0.99107  0.45394  0.84926  1.0000
  H   H4945     1.0  0.76315  0.44845  0.95924  1.0000
  C   C6159     1.0  0.51964  0.36734  0.91644  1.0000
  C   C6160     1.0  0.58452  0.34209  0.89070  1.0000
  H   H4946     1.0  0.59840  0.33576  0.91319  1.0000
  C   C6161     1.0  0.62752  0.28049  0.96630  1.0000
  C   C6162     1.0  0.53093  0.36826  0.94009  1.0000
  H   H4947     1.0  0.56093  0.34213  0.89472  1.0000
  C   C6163     1.0  0.97690  0.41828  0.75461  1.0000
  H   H4948     1.0  0.83985  0.45382  0.93408  1.0000
  H   H4949     1.0  0.62730  0.39541  0.98561  1.0000
  C   C6164     1.0  0.53127  0.31085  0.94479  1.0000
  C   C6165     1.0  0.54126  0.31509  0.93845  1.0000
  C   C6166     1.0  0.55154  0.31098  0.94270  1.0000
  C   C6167     1.0  0.55182  0.30270  0.95325  1.0000
  C   C6168     1.0  0.54169  0.29860  0.95984  1.0000
  C   C6169     1.0  0.53137  0.30299  0.95560  1.0000
  P   P203      1.0  0.54182  0.28805  0.97366  1.0000
  C   C6170     1.0  0.53936  0.27411  0.97348  1.0000
  H   H4950     1.0  0.54903  0.36978  0.93627  1.0000
  H   H4951     1.0  0.87245  0.47046  0.93893  1.0000
  H   H4952     1.0  0.73289  0.37533  0.95033  1.0000
  C   C6171     1.0  0.94686  0.46344  0.76161  1.0000
  C   C6172     1.0  0.55576  0.28584  0.97735  1.0000
  H   H4953     1.0  0.69119  0.40878  0.97926  1.0000
  C   C6173     1.0  0.88149  0.42345  0.98131  1.0000
  H   H4954     1.0  0.63067  0.33989  0.98141  1.0000
  H   H4955     1.0  0.81476  0.47068  0.96695  1.0000
  C   C6174     1.0  0.52542  0.26356  0.97281  1.0000
  C   C6175     1.0  0.52955  0.27384  0.96973  1.0000
  C   C6176     1.0  0.89063  0.45488  0.91881  1.0000
  H   H4956     1.0  0.70485  0.48160  0.98339  1.0000
  H   H4957     1.0  0.60069  0.33698  0.86907  1.0000
  C   C6177     1.0  0.54435  0.34114  0.89272  1.0000
  H   H4958     1.0  0.65990  0.32979  0.94069  1.0000
  H   H4959     1.0  0.57036  0.30633  0.88803  1.0000
  H   H4960     1.0  0.52348  0.31340  0.94127  1.0000
  H   H4961     1.0  0.54121  0.32107  0.92999  1.0000
  H   H4962     1.0  0.55950  0.31369  0.93752  1.0000
  H   H4963     1.0  0.56000  0.29959  0.95612  1.0000
  C   C6178     1.0  0.56598  0.27963  0.97095  1.0000
  H   H4964     1.0  0.56548  0.27560  0.96427  1.0000
  H   H4965     1.0  0.69156  0.32304  0.96903  1.0000
  H   H4966     1.0  0.52855  0.26452  0.91192  1.0000
  P   P204      1.0  0.54123  0.24942  0.94120  1.0000
  H   H4967     1.0  0.54896  0.29604  0.99072  1.0000
  P   P205      1.0  0.79766  0.47090  0.94744  1.0000
  C   C6179     1.0  0.75089  0.47235  0.94076  1.0000
  C   C6180     1.0  0.58467  0.29242  0.88304  1.0000
  H   H4968     1.0  0.51743  0.26364  0.97055  1.0000
  H   H4969     1.0  0.52457  0.28164  0.96506  1.0000
  H   H4970     1.0  0.79898  0.45947  0.91112  1.0000
  C   C6181     1.0  0.53764  0.38153  0.94706  1.0000
  H   H4971     1.0  0.65755  0.42134  0.95527  1.0000
  C   C6182     1.0  0.94463  0.47973  0.83124  1.0000
  H   H4972     1.0  0.52577  0.31130  0.97563  1.0000
  H   H4973     1.0  0.53225  0.24505  0.87986  1.0000
  C   C6183     1.0  0.60846  0.26986  0.97316  1.0000
  C   C6184     1.0  0.65124  0.32550  0.95903  1.0000
  C   C6185     1.0  0.70238  0.40295  0.95203  1.0000
  C   C6186     1.0  0.59508  0.34051  0.86281  1.0000
  C   C6187     1.0  0.97888  0.43750  0.83234  1.0000
  C   C6188     1.0  0.69394  0.40561  0.96201  1.0000
  C   C6189     1.0  0.85871  0.43792  0.92092  1.0000
  C   C6190     1.0  0.85191  0.43068  0.92942  1.0000
  C   C6191     1.0  0.85303  0.42776  0.94106  1.0000
  C   C6192     1.0  0.86098  0.43201  0.94417  1.0000
  C   C6193     1.0  0.86771  0.43942  0.93576  1.0000
  C   C6194     1.0  0.86657  0.44232  0.92406  1.0000
  P   P206      1.0  0.87767  0.44494  0.94026  1.0000
  C   C6195     1.0  0.86975  0.44998  0.95361  1.0000
  C   C6196     1.0  0.89094  0.43385  0.94200  1.0000
  C   C6197     1.0  0.90030  0.43683  0.94422  1.0000
  C   C6198     1.0  0.91099  0.42868  0.94467  1.0000
  C   C6199     1.0  0.91246  0.41751  0.94274  1.0000
  C   C6200     1.0  0.90319  0.41445  0.94051  1.0000
  C   C6201     1.0  0.89243  0.42256  0.94021  1.0000
  C   C6202     1.0  0.85801  0.45622  0.95451  1.0000
  H   H4974     1.0  0.81116  0.45088  0.96178  1.0000
  C   C6203     1.0  0.98378  0.48223  0.83256  1.0000
  C   C6204     1.0  0.87509  0.44803  0.96301  1.0000
  C   C6205     1.0  0.92614  0.45062  0.75230  1.0000
  H   H4975     1.0  0.53926  0.34668  0.89884  1.0000
  C   C6206     1.0  0.51930  0.37311  0.94520  1.0000
  S   S851      1.0  0.60577  0.34030  0.98598  1.0000
  C   C6207     1.0  0.59899  0.34788  0.85216  1.0000
  C   C6208     1.0  0.52238  0.34350  0.95306  1.0000
  H   H4976     1.0  0.85787  0.44014  0.91189  1.0000
  H   H4977     1.0  0.84576  0.42734  0.92704  1.0000
  H   H4978     1.0  0.84773  0.42219  0.94771  1.0000
  H   H4979     1.0  0.86187  0.42956  0.95318  1.0000
  H   H4980     1.0  0.87168  0.44795  0.91736  1.0000
  H   H4981     1.0  0.89925  0.44542  0.94577  1.0000
  H   H4982     1.0  0.91805  0.43096  0.94673  1.0000
  H   H4983     1.0  0.92069  0.41113  0.94327  1.0000
  H   H4984     1.0  0.90422  0.40570  0.93932  1.0000
  H   H4985     1.0  0.88532  0.41993  0.93868  1.0000
  H   H4986     1.0  0.85367  0.45768  0.94748  1.0000
  Fe  Fe429     1.0  0.92441  0.46436  0.96405  1.0000
  H   H4987     1.0  0.88410  0.44329  0.96267  1.0000
  H   H4988     1.0  0.89395  0.44602  0.91736  1.0000
  H   H4989     1.0  0.73882  0.45126  0.92353  1.0000
  H   H4990     1.0  0.67099  0.49102  0.97484  1.0000
  C   C6209     1.0  0.80566  0.39622  0.96313  1.0000
  C   C6210     1.0  0.53842  0.37176  0.89762  1.0000
  S   S852      1.0  0.74651  0.43743  0.97431  1.0000
  Fe  Fe430     1.0  0.91169  0.44515  0.97903  1.0000
  C   C6211     1.0  0.54210  0.26401  0.94097  1.0000
  C   C6212     1.0  0.50905  0.33172  0.95401  1.0000
  H   H4991     1.0  0.67164  0.43357  0.95239  1.0000
  C   C6213     1.0  0.63829  0.33849  0.98496  1.0000
  C   C6214     1.0  0.81303  0.47139  0.94249  1.0000
  C   C6215     1.0  0.79484  0.46204  0.93931  1.0000
  H   H4992     1.0  0.66865  0.26083  0.96241  1.0000
  C   C6216     1.0  0.56443  0.31899  0.97526  1.0000
  H   H4993     1.0  0.52902  0.30205  0.86976  1.0000
  H   H4994     1.0  0.68414  0.43063  0.98052  1.0000
  S   S853      1.0  0.81831  0.42579  0.96370  1.0000
  H   H4995     1.0  0.60108  0.26578  0.97589  1.0000
  C   C6217     1.0  0.93503  0.47002  0.77923  1.0000
  C   C6218     1.0  0.67084  0.27232  0.97190  1.0000
  H   H4996     1.0  0.95356  0.48097  0.92997  1.0000
  C   C6219     1.0  0.55731  0.32646  0.87724  1.0000
  C   C6220     1.0  0.58943  0.34394  0.89896  1.0000
  H   H4997     1.0  0.78476  0.45199  0.95439  1.0000
  H   H4998     1.0  0.92953  0.46200  0.90399  1.0000
  H   H4999     1.0  0.54432  0.24674  0.90887  1.0000
  H   H5000     1.0  0.65954  0.31123  0.93646  1.0000
  C   C6221     1.0  0.52811  0.24885  0.85133  1.0000
  C   C6222     1.0  0.82246  0.48339  0.98432  1.0000
  H   H5001     1.0  0.53643  0.24758  0.84504  1.0000
  C   C6223     1.0  0.65615  0.32329  0.94770  1.0000
  H   H5002     1.0  0.95980  0.47606  0.91036  1.0000
  C   C6224     1.0  0.65818  0.44859  0.95680  1.0000
  C   C6225     1.0  0.53557  0.27377  0.93438  1.0000
  H   H5003     1.0  0.52902  0.33819  0.88949  1.0000
  C   C6226     1.0  0.65045  0.44918  0.98780  1.0000
  C   C6227     1.0  0.75572  0.47805  0.95615  1.0000
  C   C6228     1.0  0.64578  0.31720  0.96774  1.0000
  C   C6229     1.0  0.64952  0.33780  0.97756  1.0000
  C   C6230     1.0  0.80429  0.42270  0.97038  1.0000
  H   H5004     1.0  0.82257  0.45271  0.98064  1.0000
  C   C6231     1.0  0.69518  0.44736  0.95447  1.0000
  H   H5005     1.0  0.58919  0.31233  0.89859  1.0000
  C   C6232     1.0  0.57696  0.27882  0.97291  1.0000
  C   C6233     1.0  0.55338  0.34065  0.92319  1.0000
  C   C6234     1.0  0.61605  0.43947  0.97569  1.0000
  C   C6235     1.0  0.59641  0.28929  0.87733  1.0000
  C   C6236     1.0  0.97629  0.44420  0.92568  1.0000
  C   C6237     1.0  0.67914  0.48292  0.95222  1.0000
  H   H5006     1.0  0.59498  0.42509  0.97774  1.0000
  C   C6238     1.0  0.98139  0.45086  0.91513  1.0000
  H   H5007     1.0  0.56034  0.27769  0.94610  1.0000
  H   H5008     1.0  0.65510  0.44158  0.98409  1.0000
  C   C6239     1.0  0.52406  0.34675  0.94081  1.0000
  C   C6240     1.0  0.61611  0.45804  0.95408  1.0000
  C   C6241     1.0  0.63807  0.44611  0.96227  1.0000
  H   H5009     1.0  0.70816  0.46162  0.90894  1.0000
  C   C6242     1.0  0.52612  0.36066  0.97520  1.0000
  C   C6243     1.0  0.66229  0.43715  0.95497  1.0000
  C   C6244     1.0  0.65434  0.43024  0.95662  1.0000
  C   C6245     1.0  0.64229  0.43468  0.96024  1.0000
  C   C6246     1.0  0.60523  0.46616  0.95494  1.0000
  H   H5010     1.0  0.99076  0.41787  0.84624  1.0000
  C   C6247     1.0  0.75957  0.45753  0.95568  1.0000
  C   C6248     1.0  0.64612  0.45308  0.96043  1.0000
  S   S854      1.0  0.72916  0.43186  0.96126  1.0000
  C   C6249     1.0  0.54844  0.34720  0.93195  1.0000
  C   C6250     1.0  0.56614  0.33891  0.93966  1.0000
  H   H5011     1.0  0.57170  0.25469  0.90430  1.0000
  C   C6251     1.0  0.71074  0.46416  0.93527  1.0000
  C   C6252     1.0  0.58559  0.31301  0.87754  1.0000
  C   C6253     1.0  0.51072  0.33484  0.94180  1.0000
  C   C6254     1.0  0.60023  0.47106  0.94514  1.0000
  S   S855      1.0  0.84272  0.43424  0.97305  1.0000
  C   C6255     1.0  0.53117  0.36344  0.91818  1.0000
  Fe  Fe431     1.0  0.85568  0.41751  0.97811  1.0000
  C   C6256     1.0  0.59744  0.30977  0.87185  1.0000
  H   H5012     1.0  0.60064  0.28011  0.87753  1.0000
  H   H5013     1.0  0.54567  0.37368  0.89037  1.0000
  H   H5014     1.0  0.54842  0.34089  0.91699  1.0000
  C   C6257     1.0  0.85707  0.45837  0.97394  1.0000
  C   C6258     1.0  0.85147  0.49218  0.98815  1.0000
  H   H5015     1.0  0.91980  0.47941  0.75764  1.0000
  C   C6259     1.0  0.55899  0.31962  0.98691  1.0000
  H   H5016     1.0  0.53095  0.38012  0.98759  1.0000
  H   H5017     1.0  0.70164  0.48956  0.92926  1.0000
  Fe  Fe432     1.0  0.97571  0.48724  0.87060  1.0000
  H   H5018     1.0  0.91946  0.45095  0.92271  1.0000
  Fe  Fe433     1.0  0.72950  0.43200  0.97953  1.0000
  C   C6260     1.0  0.54706  0.28610  0.93612  1.0000
  C   C6261     1.0  0.53854  0.33639  0.88741  1.0000
  H   H5019     1.0  0.51975  0.34412  0.92572  1.0000
  H   H5020     1.0  0.69613  0.46854  0.92683  1.0000
  C   C6262     1.0  0.55323  0.27663  0.94309  1.0000
  H   H5021     1.0  0.90665  0.46160  0.93815  1.0000
  C   C6263     1.0  0.92583  0.47579  0.77350  1.0000
  P   P207      1.0  0.70192  0.46877  0.94854  1.0000
  H   H5022     1.0  0.51449  0.27254  0.89906  1.0000
  C   C6264     1.0  0.69161  0.45704  0.97046  1.0000
  C   C6265     1.0  0.56689  0.24867  0.91088  1.0000
  C   C6266     1.0  0.65925  0.33607  0.98237  1.0000
  C   C6267     1.0  0.98603  0.44248  0.83581  1.0000
  C   C6268     1.0  0.52697  0.37510  0.89584  1.0000
  H   H5023     1.0  0.69203  0.46423  0.97380  1.0000
  S   S856      1.0  0.57922  0.25636  0.95191  1.0000
  H   H5024     1.0  0.97174  0.44170  0.94449  1.0000
  C   C6269     1.0  0.51837  0.34214  0.93517  1.0000
  C   C6270     1.0  0.53780  0.28485  0.93234  1.0000
  C   C6271     1.0  0.53284  0.37306  0.98308  1.0000
  H   H5025     1.0  0.62482  0.47608  0.95953  1.0000
  H   H5026     1.0  0.50331  0.32586  0.95911  1.0000
  H   H5027     1.0  0.58079  0.34956  0.88453  1.0000
  P   P208      1.0  0.57919  0.32806  0.87907  1.0000
  C   C6272     1.0  0.61426  0.26989  0.98153  1.0000
  H   H5028     1.0  0.51351  0.33367  0.96912  1.0000
  C   C6273     1.0  0.88483  0.41554  0.97389  1.0000
  C   C6274     1.0  0.51945  0.24326  0.85161  1.0000
  C   C6275     1.0  0.61399  0.48116  0.98704  1.0000
  H   H5029     1.0  0.56217  0.32076  0.87122  1.0000
  H   H5030     1.0  0.59825  0.31554  0.91282  1.0000
  C   C6276     1.0  0.59440  0.32299  0.90665  1.0000
  H   H5031     1.0  0.76312  0.46373  0.96888  1.0000
  C   C6277     1.0  0.72405  0.46734  0.96905  1.0000
  H   H5032     1.0  0.54476  0.38464  0.94798  1.0000
  C   C6278     1.0  0.69566  0.45694  0.95848  1.0000
  C   C6279     1.0  0.80030  0.44833  0.97904  1.0000
  C   C6280     1.0  0.75992  0.46623  0.96092  1.0000
  C   C6281     1.0  0.71177  0.37422  0.93763  1.0000
  C   C6282     1.0  0.72218  0.37621  0.93857  1.0000
  C   C6283     1.0  0.69991  0.37567  0.98393  1.0000
  H   H5033     1.0  0.63631  0.42911  0.96152  1.0000
  C   C6284     1.0  0.70656  0.36731  0.95879  1.0000
  C   C6285     1.0  0.70405  0.36966  0.94769  1.0000
  C   C6286     1.0  0.52486  0.24417  0.93226  1.0000
  C   C6287     1.0  0.61873  0.29859  0.98713  1.0000
  H   H5034     1.0  0.72796  0.46095  0.97588  1.0000
  H   H5035     1.0  0.52916  0.27286  0.93028  1.0000
  C   C6288     1.0  0.52137  0.26483  0.89757  1.0000
  H   H5036     1.0  0.98181  0.44876  0.90694  1.0000
  H   H5037     1.0  0.64140  0.31886  0.97637  1.0000
  H   H5038     1.0  0.68010  0.27160  0.96787  1.0000
  C   C6289     1.0  0.51219  0.28584  0.85905  1.0000
  H   H5039     1.0  0.98270  0.43250  0.82559  1.0000
  C   C6290     1.0  0.67667  0.48635  0.98089  1.0000
  C   C6291     1.0  0.55667  0.29100  0.98590  1.0000
  H   H5040     1.0  0.59185  0.47735  0.94586  1.0000
  C   C6292     1.0  0.68144  0.36727  0.97145  1.0000
  C   C6293     1.0  0.67795  0.37839  0.96445  1.0000
  C   C6294     1.0  0.66603  0.38338  0.96469  1.0000
  C   C6295     1.0  0.65751  0.37740  0.97203  1.0000
  C   C6296     1.0  0.66089  0.36646  0.97923  1.0000
  H   H5041     1.0  0.83266  0.39662  0.96547  1.0000
  H   H5042     1.0  0.70963  0.37636  0.92912  1.0000
  H   H5043     1.0  0.72806  0.37999  0.93084  1.0000
  H   H5044     1.0  0.66799  0.33550  0.97687  1.0000
  H   H5045     1.0  0.62059  0.49173  0.97038  1.0000
  H   H5046     1.0  0.69602  0.36818  0.94684  1.0000
  H   H5047     1.0  0.60787  0.27466  0.95484  1.0000
  C   C6297     1.0  0.81806  0.47139  0.97401  1.0000
  Fe  Fe434     1.0  0.75485  0.41834  0.97739  1.0000
  H   H5048     1.0  0.62131  0.45724  0.92523  1.0000
  C   C6298     1.0  0.69571  0.48109  0.98572  1.0000
  C   C6299     1.0  0.56471  0.33350  0.92253  1.0000
  C   C6300     1.0  0.82720  0.46212  0.99061  1.0000
  H   H5049     1.0  0.69071  0.43050  0.95932  1.0000
  H   H5050     1.0  0.79996  0.39950  0.95695  1.0000
  H   H5051     1.0  0.94317  0.44686  0.92415  1.0000
  C   C6301     1.0  0.94188  0.45712  0.93650  1.0000
  H   H5052     1.0  0.93708  0.45169  0.94378  1.0000
  C   C6302     1.0  0.71139  0.47264  0.95521  1.0000
  C   C6303     1.0  0.94541  0.45434  0.92539  1.0000
  H   H5053     1.0  0.56193  0.32005  0.95819  1.0000
  H   H5054     1.0  0.55564  0.25845  0.95100  1.0000
  C   C6304     1.0  0.51633  0.28058  0.86940  1.0000
  C   C6305     1.0  0.52608  0.38593  0.95259  1.0000
  H   H5055     1.0  0.53049  0.32491  0.98492  1.0000
  C   C6306     1.0  0.95186  0.46115  0.91590  1.0000
  C   C6307     1.0  0.60279  0.29797  0.87171  1.0000
  S   S857      1.0  0.95583  0.45753  0.90204  1.0000
  H   H5056     1.0  0.60748  0.34999  0.85030  1.0000
  S   S858      1.0  0.50181  0.30277  0.95603  1.0000
  C   C6308     1.0  0.52658  0.25000  0.93990  1.0000
  C   C6309     1.0  0.51417  0.29682  0.85257  1.0000
  C   C6310     1.0  0.93044  0.46755  0.83623  1.0000
  C   C6311     1.0  0.56325  0.33113  0.88258  1.0000
  C   C6312     1.0  0.69712  0.32749  0.97093  1.0000
  H   H5057     1.0  0.69835  0.44695  0.94532  1.0000
  C   C6313     1.0  0.95486  0.47073  0.91760  1.0000
  Fe  Fe435     1.0  0.96985  0.46533  0.88807  1.0000
  S   S859      1.0  0.96659  0.47386  0.87006  1.0000
  P   P209      1.0  0.63137  0.27529  0.98894  1.0000
  C   C6314     1.0  0.58216  0.24995  0.97402  1.0000
  C   C6315     1.0  0.70766  0.32108  0.97418  1.0000
  H   H5058     1.0  0.56869  0.34021  0.85848  1.0000
  H   H5059     1.0  0.72417  0.38699  0.98806  1.0000
  S   S860      1.0  0.94061  0.47029  0.95209  1.0000
  C   C6316     1.0  0.71156  0.33895  0.97573  1.0000
  C   C6317     1.0  0.51759  0.37296  0.90527  1.0000
  C   C6318     1.0  0.91560  0.48466  0.91788  1.0000
  C   C6319     1.0  0.68710  0.43805  0.97434  1.0000
  H   H5060     1.0  0.52333  0.30043  0.96065  1.0000
  H   H5061     1.0  0.56837  0.32830  0.91587  1.0000
  C   C6320     1.0  0.65340  0.28009  0.98549  1.0000
  C   C6321     1.0  0.58789  0.25114  0.96228  1.0000
  C   C6322     1.0  0.94944  0.46217  0.82354  1.0000
  C   C6323     1.0  0.50057  0.28951  0.97821  1.0000
  H   H5062     1.0  0.93769  0.47858  0.87562  1.0000
  H   H5063     1.0  0.95573  0.45616  0.81844  1.0000
  C   C6324     1.0  0.69293  0.49035  0.93494  1.0000
  C   C6325     1.0  0.66535  0.27920  0.98026  1.0000
  H   H5064     1.0  0.95976  0.48384  0.75355  1.0000
  H   H5065     1.0  0.54050  0.32510  0.87585  1.0000
  C   C6326     1.0  0.52933  0.26028  0.90490  1.0000
  H   H5066     1.0  0.96126  0.47332  0.81983  1.0000
  H   H5067     1.0  0.80394  0.47061  0.92253  1.0000
  C   C6327     1.0  0.87853  0.46854  0.93095  1.0000
  C   C6328     1.0  0.99283  0.48199  0.94495  1.0000
  P   P210      1.0  0.62242  0.45171  0.96683  1.0000
  H   H5068     1.0  0.60267  0.31625  0.86777  1.0000
  H   H5069     1.0  0.90129  0.46234  0.90254  1.0000
  H   H5070     1.0  0.50728  0.28150  0.85609  1.0000
  C   C6329     1.0  0.78824  0.48546  0.94521  1.0000
  C   C6330     1.0  0.54461  0.36735  0.97917  1.0000
  C   C6331     1.0  0.62112  0.43189  0.98486  1.0000
  C   C6332     1.0  0.89673  0.41033  0.97042  1.0000
  C   C6333     1.0  0.64654  0.47029  0.98639  1.0000
  C   C6334     1.0  0.78226  0.41687  0.98077  1.0000
  H   H5071     1.0  0.87292  0.45065  0.98035  1.0000
  C   C6335     1.0  0.89480  0.46410  0.91040  1.0000
  S   S861      1.0  0.90848  0.47862  0.96817  1.0000
  C   C6336     1.0  0.57713  0.34228  0.85691  1.0000
  H   H5072     1.0  0.52754  0.24565  0.98243  1.0000
  C   C6337     1.0  0.69758  0.40677  0.97150  1.0000
  C   C6338     1.0  0.97153  0.48461  0.83623  1.0000
  C   C6339     1.0  0.97572  0.44686  0.93630  1.0000
  Fe  Fe436     1.0  0.66721  0.40597  0.98040  1.0000
  H   H5073     1.0  0.57268  0.25236  0.97637  1.0000
  C   C6340     1.0  0.79047  0.41494  0.98753  1.0000
  H   H5074     1.0  0.61745  0.29823  0.97879  1.0000
  H   H5075     1.0  0.60060  0.46868  0.96321  1.0000
  H   H5076     1.0  0.67036  0.28383  0.98272  1.0000
  C   C6341     1.0  0.98626  0.46738  0.74678  1.0000
  H   H5077     1.0  0.58475  0.27422  0.96770  1.0000
  H   H5078     1.0  0.87229  0.42732  0.98420  1.0000
  C   C6342     1.0  0.80153  0.39025  0.97452  1.0000
  C   C6343     1.0  0.62389  0.27514  0.97815  1.0000
  C   C6344     1.0  0.62185  0.28017  0.95792  1.0000
  C   C6345     1.0  0.81672  0.48164  0.94138  1.0000
  H   H5079     1.0  0.78093  0.48301  0.93194  1.0000
  H   H5080     1.0  0.92197  0.46568  0.84094  1.0000
  H   H5081     1.0  0.63470  0.28491  0.96350  1.0000
  H   H5082     1.0  0.68574  0.34450  0.96730  1.0000
  H   H5083     1.0  0.99475  0.42926  0.75903  1.0000
  C   C6346     1.0  0.91116  0.46629  0.93002  1.0000
  C   C6347     1.0  0.82863  0.48187  0.93767  1.0000
  H   H5084     1.0  0.81899  0.36076  0.98504  1.0000
  C   C6348     1.0  0.98146  0.44833  0.84507  1.0000
  H   H5085     1.0  0.71727  0.34331  0.97752  1.0000
  H   H5086     1.0  0.55174  0.37005  0.98058  1.0000
  S   S862      1.0  0.91299  0.42570  0.98466  1.0000
  H   H5087     1.0  0.62484  0.28401  0.94875  1.0000
  C   C6349     1.0  0.90984  0.47835  0.92836  1.0000
  H   H5088     1.0  0.99521  0.44158  0.83142  1.0000
  P   P211      1.0  0.98972  0.47614  0.92547  1.0000
  S   S863      1.0  0.49803  0.28996  0.93026  1.0000
  C   C6350     1.0  0.55225  0.24472  0.92895  1.0000
  Fe  Fe437     1.0  0.49730  0.30423  0.93902  1.0000
  C   C6351     1.0  0.57781  0.28387  0.98155  1.0000
  H   H5089     1.0  0.60248  0.44259  0.96612  1.0000
  C   C6352     1.0  0.98008  0.45629  0.93636  1.0000
  C   C6353     1.0  0.81821  0.48245  0.97515  1.0000
  H   H5090     1.0  0.98400  0.46496  0.79406  1.0000
  C   C6354     1.0  0.60653  0.43700  0.97319  1.0000
  S   S864      1.0  0.64858  0.48413  0.97773  1.0000
  C   C6355     1.0  0.64681  0.27422  0.98227  1.0000
  C   C6356     1.0  0.71723  0.36899  0.95961  1.0000
  Fe  Fe438     1.0  0.50732  0.30095  0.91413  1.0000
  P   P212      1.0  0.69676  0.36106  0.97172  1.0000
  C   C6357     1.0  0.93350  0.47748  0.83709  1.0000
  H   H5091     1.0  0.87980  0.47963  0.97733  1.0000
  H   H5092     1.0  0.83135  0.48973  0.93725  1.0000
  H   H5093     1.0  0.61171  0.39412  0.97676  1.0000
  H   H5094     1.0  0.79273  0.38892  0.97671  1.0000
  C   C6358     1.0  0.89102  0.47550  0.91237  1.0000
  C   C6359     1.0  0.98493  0.47975  0.93983  1.0000
  H   H5095     1.0  0.92726  0.48331  0.84242  1.0000
  H   H5096     1.0  0.88754  0.43300  0.99011  1.0000
  H   H5097     1.0  0.73232  0.48076  0.96911  1.0000
  S   S865      1.0  0.73760  0.41287  0.98451  1.0000
  C   C6360     1.0  0.52983  0.29321  0.98504  1.0000
  C   C6361     1.0  0.94226  0.48464  0.85685  1.0000
  H   H5098     1.0  0.60471  0.24952  0.95005  1.0000
  C   C6362     1.0  0.62123  0.47428  0.96890  1.0000
  H   H5099     1.0  0.89458  0.48257  0.90608  1.0000
  C   C6363     1.0  0.78144  0.46191  0.98205  1.0000
  H   H5100     1.0  0.96698  0.47814  0.94256  1.0000
  H   H5101     1.0  0.55273  0.26351  0.98310  1.0000
  H   H5102     1.0  0.50389  0.29609  0.97987  1.0000
  C   C6364     1.0  0.97323  0.48014  0.94611  1.0000
  S   S866      1.0  0.60078  0.37540  0.97868  1.0000
  C   C6365     1.0  0.69048  0.48154  0.94497  1.0000
  C   C6366     1.0  0.54138  0.25332  0.98249  1.0000
  H   H5103     1.0  0.91765  0.48042  0.77816  1.0000
  H   H5104     1.0  0.93414  0.47026  0.78828  1.0000
  H   H5105     1.0  0.96763  0.48202  0.84541  1.0000
  C   C6367     1.0  0.78115  0.48896  0.93697  1.0000
  C   C6368     1.0  0.72651  0.47847  0.96523  1.0000
  C   C6369     1.0  0.62447  0.38727  0.98764  1.0000
  C   C6370     1.0  0.60019  0.24850  0.95916  1.0000
  H   H5106     1.0  0.60868  0.31628  0.98589  1.0000
  C   C6371     1.0  0.92244  0.47876  0.90893  1.0000
  H   H5107     1.0  0.86111  0.48371  0.95264  1.0000
  H   H5108     1.0  0.64761  0.26230  0.97159  1.0000
  H   H5109     1.0  0.85958  0.47905  0.97779  1.0000
  C   C6372     1.0  0.87244  0.48524  0.98195  1.0000
  S   S867      1.0  0.64740  0.40981  0.98501  1.0000
  C   C6373     1.0  0.50573  0.25934  0.94337  1.0000
  C   C6374     1.0  0.89011  0.42670  0.98460  1.0000
  C   C6375     1.0  0.75142  0.48114  0.94591  1.0000
  C   C6376     1.0  0.80865  0.38639  0.98277  1.0000
  H   H5110     1.0  0.90427  0.48273  0.93529  1.0000
  C   C6377     1.0  0.68841  0.48717  0.97792  1.0000
  C   C6378     1.0  0.52443  0.29750  0.86665  1.0000
  C   C6379     1.0  0.69866  0.36443  0.98449  1.0000
  C   C6380     1.0  0.78957  0.45212  0.98637  1.0000
  C   C6381     1.0  0.71416  0.48370  0.95124  1.0000
  C   C6382     1.0  0.60224  0.42706  0.97975  1.0000
  C   C6383     1.0  0.86512  0.49062  0.95252  1.0000
  C   C6384     1.0  0.99355  0.41103  0.84129  1.0000
  H   H5111     1.0  0.95246  0.45909  0.77777  1.0000
  C   C6385     1.0  0.99061  0.45829  0.76584  1.0000
  C   C6386     1.0  0.81998  0.38866  0.97936  1.0000
  H   H5112     1.0  0.68487  0.44756  0.98760  1.0000
  C   C6387     1.0  0.98872  0.39831  0.83212  1.0000
  H   H5113     1.0  0.92680  0.48341  0.90065  1.0000
  C   C6388     1.0  0.96952  0.48272  0.95726  1.0000
  C   C6389     1.0  0.98907  0.48464  0.95610  1.0000
  H   H5114     1.0  0.82569  0.38589  0.98549  1.0000
  C   C6390     1.0  0.54671  0.32168  0.99059  1.0000
  C   C6391     1.0  0.72176  0.48653  0.95615  1.0000
  C   C6392     1.0  0.98366  0.48833  0.91468  1.0000
  C   C6393     1.0  0.97742  0.48500  0.96224  1.0000
  C   C6394     1.0  0.53141  0.24956  0.88665  1.0000
  S   S868      1.0  0.75539  0.48861  0.96360  1.0000
  H   H5115     1.0  0.91650  0.48533  0.80603  1.0000
  H   H5116     1.0  0.93585  0.48258  0.81046  1.0000
  C   C6395     1.0  0.60087  0.24344  0.97975  1.0000
  C   C6396     1.0  0.87684  0.48792  0.95346  1.0000
  C   C6397     1.0  0.58862  0.24635  0.98269  1.0000
  H   H5117     1.0  0.92140  0.42863  0.74326  1.0000
  C   C6398     1.0  0.92259  0.49061  0.80036  1.0000
  H   H5118     1.0  0.92619  0.48848  0.93433  1.0000
  H   H5119     1.0  0.74811  0.49024  0.94220  1.0000
  H   H5120     1.0  0.81054  0.48945  0.94360  1.0000
  H   H5121     1.0  0.99522  0.48632  0.96001  1.0000
  C   C6399     1.0  0.93347  0.48909  0.80293  1.0000
  H   H5122     1.0  0.97454  0.48694  0.97091  1.0000
  H   H5123     1.0  0.85514  0.49226  0.89729  1.0000
  H   H5124     1.0  0.98094  0.47406  0.74127  1.0000
  H   H5125     1.0  0.79288  0.49069  0.95860  1.0000
  H   H5126     1.0  0.59754  0.24352  0.93551  1.0000
  C   C6400     1.0  0.50870  0.24498  0.85967  1.0000
  C   C6401     1.0  0.96449  0.49015  0.82802  1.0000
  C   C6402     1.0  0.99554  0.45911  0.74190  1.0000
  C   C6403     1.0  0.99224  0.49070  0.78070  1.0000
  C   C6404     1.0  0.98208  0.49062  0.81250  1.0000
  H   H5127     1.0  0.94311  0.49110  0.76843  1.0000
  H   H5128     1.0  0.93873  0.49136  0.90948  1.0000
  C   C6405     1.0  0.99020  0.49081  0.90308  1.0000
  C   C6406     1.0  0.97361  0.49101  0.77690  1.0000
  C   C6407     1.0  0.93365  0.45528  0.74201  1.0000
  H   H5129     1.0  0.95886  0.44786  0.74186  1.0000
  H   H5130     1.0  0.82229  0.49193  0.98545  1.0000
  H   H5131     1.0  0.84260  0.49181  0.98845  1.0000
  H   H5132     1.0  0.69189  0.49243  0.96955  1.0000
  P   P213      1.0  0.94872  0.49238  0.83252  1.0000
  H   H5133     1.0  0.61120  0.26573  0.99059  1.0000
  P   P214      1.0  0.93896  0.46800  0.74101  1.0000
  C   C6408     1.0  0.53568  0.70771  0.03947  1.0000
  H   H5134     1.0  0.89426  0.49286  0.11101  1.0000
  H   H5135     1.0  0.71481  0.55122  0.03950  1.0000
  C   C6409     1.0  0.59876  0.55441  0.01619  1.0000
  H   H5136     1.0  0.56408  0.68718  0.99441  1.0000
  Fe  Fe439     1.0  0.63459  0.51547  0.00266  1.0000
  S   S869      1.0  0.62941  0.51678  0.02164  1.0000
  H   H5137     1.0  0.54607  0.68101  0.99555  1.0000
  H   H5138     1.0  0.90451  0.53688  0.23682  1.0000
  H   H5139     1.0  0.62503  0.55674  0.00283  1.0000
  C   C6410     1.0  0.73812  0.54658  0.99131  1.0000
  H   H5140     1.0  0.84658  0.52458  0.06237  1.0000
  C   C6411     1.0  0.51115  0.59990  0.01338  1.0000
  H   H5141     1.0  0.50698  0.72532  0.04844  1.0000
  S   S870      1.0  0.69588  0.51994  0.03995  1.0000
  S   S871      1.0  0.68406  0.51486  0.06782  1.0000
  Fe  Fe440     1.0  0.70148  0.51752  0.05661  1.0000
  S   S872      1.0  0.70861  0.53158  0.05911  1.0000
  Fe  Fe441     1.0  0.67902  0.51552  0.05130  1.0000
  S   S873      1.0  0.66128  0.52681  0.04899  1.0000
  H   H5142     1.0  0.51312  0.61531  0.01715  1.0000
  H   H5143     1.0  0.77090  0.49743  0.02341  1.0000
  Fe  Fe442     1.0  0.56246  0.65298  0.02756  1.0000
  H   H5144     1.0  0.78666  0.50823  0.01136  1.0000
  S   S874      1.0  0.56314  0.63388  0.02959  1.0000
  Fe  Fe443     1.0  0.56573  0.67234  0.03666  1.0000
  S   S875      1.0  0.56337  0.68590  0.02026  1.0000
  S   S876      1.0  0.57026  0.67487  0.05234  1.0000
  Fe  Fe444     1.0  0.54858  0.67789  0.02106  1.0000
  H   H5145     1.0  0.96081  0.55227  0.13482  1.0000
  H   H5146     1.0  0.96189  0.49672  0.19074  1.0000
  S   S877      1.0  0.54985  0.66547  0.03841  1.0000
  S   S878      1.0  0.57846  0.65879  0.02720  1.0000
  C   C6412     1.0  0.65051  0.51278  0.02812  1.0000
  C   C6413     1.0  0.55706  0.59270  0.02046  1.0000
  C   C6414     1.0  0.89949  0.49444  0.06011  1.0000
  C   C6415     1.0  0.84278  0.50739  0.06807  1.0000
  P   P215      1.0  0.98650  0.49662  0.17994  1.0000
  C   C6416     1.0  0.82235  0.50706  0.07013  1.0000
  H   H5147     1.0  0.91006  0.50414  0.99438  1.0000
  C   C6417     1.0  0.55979  0.57148  0.02546  1.0000
  C   C6418     1.0  0.67419  0.53591  0.99419  1.0000
  S   S879      1.0  0.68499  0.49612  0.05259  1.0000
  C   C6419     1.0  0.51972  0.67357  0.02158  1.0000
  C   C6420     1.0  0.59197  0.62558  0.00788  1.0000
  H   H5148     1.0  0.50681  0.64370  0.02137  1.0000
  Fe  Fe445     1.0  0.78059  0.50810  0.05339  1.0000
  S   S880      1.0  0.77575  0.52416  0.06066  1.0000
  S   S881      1.0  0.77841  0.50865  0.03570  1.0000
  S   S882      1.0  0.78292  0.50699  0.08463  1.0000
  Fe  Fe446     1.0  0.76695  0.51308  0.07685  1.0000
  S   S883      1.0  0.74877  0.52023  0.08660  1.0000
  Fe  Fe447     1.0  0.79223  0.51641  0.06749  1.0000
  S   S884      1.0  0.80504  0.52727  0.06570  1.0000
  C   C6421     1.0  0.50070  0.71784  0.02450  1.0000
  H   H5149     1.0  0.60452  0.55971  0.01624  1.0000
  P   P216      1.0  0.95877  0.59237  0.22099  1.0000
  C   C6422     1.0  0.89138  0.52815  0.22376  1.0000
  C   C6423     1.0  0.81949  0.51935  0.06663  1.0000
  C   C6424     1.0  0.82829  0.52558  0.06386  1.0000
  H   H5150     1.0  0.82615  0.53505  0.06120  1.0000
  C   C6425     1.0  0.93567  0.52729  0.16954  1.0000
  C   C6426     1.0  0.93635  0.51783  0.17914  1.0000
  C   C6427     1.0  0.93684  0.50657  0.17799  1.0000
  C   C6428     1.0  0.93667  0.50461  0.16723  1.0000
  C   C6429     1.0  0.93565  0.51409  0.15766  1.0000
  C   C6430     1.0  0.93492  0.52547  0.15890  1.0000
  H   H5151     1.0  0.93654  0.51915  0.18749  1.0000
  C   C6431     1.0  0.61055  0.71534  0.00450  1.0000
  H   H5152     1.0  0.93545  0.51266  0.14934  1.0000
  H   H5153     1.0  0.64420  0.55050  0.00841  1.0000
  C   C6432     1.0  0.53963  0.68853  0.07072  1.0000
  C   C6433     1.0  0.99080  0.53479  0.19211  1.0000
  H   H5154     1.0  0.59234  0.69866  0.99638  1.0000
  C   C6434     1.0  0.96281  0.56890  0.23335  1.0000
  H   H5155     1.0  0.97803  0.49794  0.11576  1.0000
  H   H5156     1.0  0.82716  0.52013  0.01149  1.0000
  C   C6435     1.0  0.95335  0.49636  0.21849  1.0000
  C   C6436     1.0  0.93392  0.50952  0.03911  1.0000
  H   H5157     1.0  0.72302  0.57951  0.06175  1.0000
  H   H5158     1.0  0.93029  0.51833  0.03470  1.0000
  C   C6437     1.0  0.80392  0.52735  0.00668  1.0000
  C   C6438     1.0  0.80167  0.52888  0.01814  1.0000
  C   C6439     1.0  0.79397  0.52301  0.02719  1.0000
  C   C6440     1.0  0.78837  0.51576  0.02467  1.0000
  C   C6441     1.0  0.79077  0.51406  0.01326  1.0000
  C   C6442     1.0  0.79873  0.51969  0.00431  1.0000
  H   H5159     1.0  0.80607  0.53445  0.01999  1.0000
  H   H5160     1.0  0.79234  0.52416  0.03605  1.0000
  C   C6443     1.0  0.90468  0.50972  0.22058  1.0000
  C   C6444     1.0  0.86487  0.49554  0.01980  1.0000
  C   C6445     1.0  0.56900  0.68901  0.05427  1.0000
  C   C6446     1.0  0.56726  0.69910  0.04537  1.0000
  C   C6447     1.0  0.56699  0.71011  0.04722  1.0000
  C   C6448     1.0  0.56828  0.71105  0.05800  1.0000
  C   C6449     1.0  0.56964  0.70099  0.06695  1.0000
  C   C6450     1.0  0.57012  0.69003  0.06505  1.0000
  H   H5161     1.0  0.56643  0.69840  0.03700  1.0000
  H   H5162     1.0  0.56601  0.71777  0.04023  1.0000
  H   H5163     1.0  0.57065  0.70163  0.07529  1.0000
  H   H5164     1.0  0.57149  0.68228  0.07194  1.0000
  C   C6451     1.0  0.71925  0.52704  0.06760  1.0000
  C   C6452     1.0  0.71817  0.53332  0.07603  1.0000
  C   C6453     1.0  0.72718  0.53095  0.08196  1.0000
  C   C6454     1.0  0.73751  0.52254  0.07925  1.0000
  C   C6455     1.0  0.73860  0.51618  0.07085  1.0000
  C   C6456     1.0  0.72938  0.51829  0.06516  1.0000
  H   H5165     1.0  0.71035  0.54007  0.07794  1.0000
  H   H5166     1.0  0.72626  0.53582  0.08849  1.0000
  H   H5167     1.0  0.74650  0.50960  0.06878  1.0000
  H   H5168     1.0  0.73028  0.51347  0.05861  1.0000
  C   C6457     1.0  0.71320  0.50205  0.01429  1.0000
  C   C6458     1.0  0.72291  0.50113  0.00484  1.0000
  C   C6459     1.0  0.49788  0.69743  0.04181  1.0000
  H   H5169     1.0  0.59112  0.62102  0.01701  1.0000
  C   C6460     1.0  0.70498  0.52154  0.00410  1.0000
  C   C6461     1.0  0.70398  0.51200  0.01362  1.0000
  H   H5170     1.0  0.54374  0.52387  0.05824  1.0000
  H   H5171     1.0  0.53251  0.57585  0.99784  1.0000
  H   H5172     1.0  0.69803  0.52937  0.00382  1.0000
  H   H5173     1.0  0.69614  0.51241  0.02054  1.0000
  C   C6462     1.0  0.63931  0.52006  0.02769  1.0000
  C   C6463     1.0  0.63530  0.52943  0.03338  1.0000
  C   C6464     1.0  0.64234  0.53154  0.03953  1.0000
  C   C6465     1.0  0.65340  0.52418  0.04025  1.0000
  C   C6466     1.0  0.65760  0.51488  0.03437  1.0000
  H   H5174     1.0  0.50912  0.66077  0.02640  1.0000
  H   H5175     1.0  0.62658  0.53493  0.03328  1.0000
  H   H5176     1.0  0.63905  0.53870  0.04407  1.0000
  H   H5177     1.0  0.50488  0.69646  0.07855  1.0000
  C   C6467     1.0  0.56680  0.71900  0.00049  1.0000
  C   C6468     1.0  0.71193  0.54306  0.01615  1.0000
  C   C6469     1.0  0.59925  0.70558  0.02834  1.0000
  C   C6470     1.0  0.96993  0.55994  0.21302  1.0000
  C   C6471     1.0  0.62622  0.67525  0.00687  1.0000
  H   H5178     1.0  0.73286  0.49880  0.09881  1.0000
  C   C6472     1.0  0.52538  0.71524  0.07282  1.0000
  C   C6473     1.0  0.51678  0.73197  0.00484  1.0000
  H   H5179     1.0  0.58239  0.64225  0.01205  1.0000
  H   H5180     1.0  0.78316  0.51773  0.99176  1.0000
  H   H5181     1.0  0.92558  0.59322  0.20454  1.0000
  C   C6474     1.0  0.54347  0.63138  0.00382  1.0000
  C   C6475     1.0  0.54026  0.66864  0.07010  1.0000
  C   C6476     1.0  0.59865  0.69538  0.03722  1.0000
  C   C6477     1.0  0.52498  0.68466  0.06326  1.0000
  C   C6478     1.0  0.49970  0.67775  0.01888  1.0000
  C   C6479     1.0  0.96476  0.52364  0.16238  1.0000
  H   H5182     1.0  0.54116  0.57228  0.01492  1.0000
  S   S885      1.0  0.93183  0.51116  0.22411  1.0000
  C   C6480     1.0  0.97737  0.53215  0.16808  1.0000
  C   C6481     1.0  0.59770  0.61947  0.99891  1.0000
  H   H5183     1.0  0.59668  0.68791  0.05573  1.0000
  H   H5184     1.0  0.91427  0.61259  0.20878  1.0000
  H   H5185     1.0  0.54463  0.65942  0.07135  1.0000
  H   H5186     1.0  0.51209  0.72322  0.09903  1.0000
  C   C6482     1.0  0.97620  0.61339  0.19293  1.0000
  H   H5187     1.0  0.91809  0.49256  0.18587  1.0000
  C   C6483     1.0  0.58699  0.63757  0.00511  1.0000
  H   H5188     1.0  0.65348  0.57010  0.00634  1.0000
  C   C6484     1.0  0.86489  0.50083  0.99269  1.0000
  C   C6485     1.0  0.67291  0.54581  0.01696  1.0000
  H   H5189     1.0  0.63613  0.49515  0.01691  1.0000
  C   C6486     1.0  0.52020  0.68530  0.01661  1.0000
  C   C6487     1.0  0.85040  0.53237  0.00291  1.0000
  H   H5190     1.0  0.88980  0.53757  0.22278  1.0000
  C   C6488     1.0  0.92276  0.60879  0.21103  1.0000
  C   C6489     1.0  0.71499  0.52092  0.99499  1.0000
  H   H5191     1.0  0.54271  0.72911  0.01565  1.0000
  H   H5192     1.0  0.53614  0.69836  0.04166  1.0000
  S   S886      1.0  0.95037  0.55288  0.19080  1.0000
  C   C6490     1.0  0.59709  0.71650  0.04307  1.0000
  H   H5193     1.0  0.52287  0.71338  0.00541  1.0000
  C   C6491     1.0  0.53949  0.67914  0.99243  1.0000
  C   C6492     1.0  0.50087  0.70337  0.07211  1.0000
  H   H5194     1.0  0.51879  0.64154  0.03545  1.0000
  C   C6493     1.0  0.57897  0.71909  0.01309  1.0000
  C   C6494     1.0  0.98268  0.52098  0.17366  1.0000
  C   C6495     1.0  0.95797  0.59600  0.23467  1.0000
  H   H5195     1.0  0.55694  0.60078  0.01387  1.0000
  H   H5196     1.0  0.62289  0.70939  0.01586  1.0000
  H   H5197     1.0  0.98111  0.50904  0.21689  1.0000
  H   H5198     1.0  0.88821  0.50371  0.09008  1.0000
  C   C6496     1.0  0.50385  0.63952  0.00029  1.0000
  C   C6497     1.0  0.83401  0.50107  0.07089  1.0000
  C   C6498     1.0  0.51028  0.71038  0.02895  1.0000
  H   H5199     1.0  0.98641  0.51951  0.14761  1.0000
  H   H5200     1.0  0.87462  0.50169  0.17091  1.0000
  H   H5201     1.0  0.94205  0.54925  0.13336  1.0000
  H   H5202     1.0  0.59888  0.68717  0.03527  1.0000
  H   H5203     1.0  0.95830  0.61385  0.20216  1.0000
  H   H5204     1.0  0.96689  0.50505  0.16785  1.0000
  C   C6499     1.0  0.55848  0.53206  0.05052  1.0000
  C   C6500     1.0  0.54029  0.71292  0.02790  1.0000
  H   H5205     1.0  0.98839  0.56546  0.18821  1.0000
  C   C6501     1.0  0.50209  0.71960  0.05527  1.0000
  H   H5206     1.0  0.92228  0.62306  0.21848  1.0000
  C   C6502     1.0  0.92915  0.59791  0.20858  1.0000
  H   H5207     1.0  0.96405  0.54214  0.15840  1.0000
  H   H5208     1.0  0.91332  0.58468  0.22903  1.0000
  C   C6503     1.0  0.57539  0.71001  0.99602  1.0000
  S   S887      1.0  0.53243  0.69066  0.01603  1.0000
  C   C6504     1.0  0.88439  0.51013  0.23071  1.0000
  C   C6505     1.0  0.77354  0.54828  0.00815  1.0000
  H   H5209     1.0  0.99080  0.55892  0.23000  1.0000
  H   H5210     1.0  0.88213  0.50319  0.05720  1.0000
  C   C6506     1.0  0.83332  0.51879  0.02683  1.0000
  C   C6507     1.0  0.83734  0.51124  0.03654  1.0000
  Fe  Fe448     1.0  0.69149  0.49576  0.06821  1.0000
  C   C6508     1.0  0.55739  0.57173  0.03739  1.0000
  C   C6509     1.0  0.98791  0.60724  0.19209  1.0000
  S   S888      1.0  0.85755  0.50053  0.06863  1.0000
  C   C6510     1.0  0.53962  0.72500  0.02470  1.0000
  H   H5211     1.0  0.75863  0.54043  0.01468  1.0000
  C   C6511     1.0  0.73258  0.51528  0.02130  1.0000
  C   C6512     1.0  0.52487  0.72187  0.00185  1.0000
  C   C6513     1.0  0.99494  0.56536  0.23077  1.0000
  C   C6514     1.0  0.50306  0.62095  0.05094  1.0000
  S   S889      1.0  0.81309  0.53519  0.99539  1.0000
  C   C6515     1.0  0.53810  0.72332  0.07911  1.0000
  H   H5212     1.0  0.95807  0.52467  0.15771  1.0000
  P   P217      1.0  0.75805  0.52954  0.99600  1.0000
  H   H5213     1.0  0.53261  0.53563  0.04301  1.0000
  H   H5214     1.0  0.97895  0.53694  0.13201  1.0000
  H   H5215     1.0  0.59973  0.52720  0.01317  1.0000
  C   C6516     1.0  0.86803  0.49811  0.03762  1.0000
  H   H5216     1.0  0.87496  0.50914  0.07627  1.0000
  H   H5217     1.0  0.99479  0.61066  0.18528  1.0000
  H   H5218     1.0  0.72399  0.51393  0.02195  1.0000
  C   C6517     1.0  0.86667  0.50681  0.01399  1.0000
  S   S890      1.0  0.92725  0.54135  0.20335  1.0000
  H   H5219     1.0  0.83300  0.52807  0.02512  1.0000
  H   H5220     1.0  0.84038  0.51459  0.04224  1.0000
  S   S891      1.0  0.70950  0.49830  0.05815  1.0000
  H   H5221     1.0  0.58030  0.72304  0.01941  1.0000
  H   H5222     1.0  0.54407  0.70763  0.02133  1.0000
  C   C6518     1.0  0.53026  0.71462  0.04790  1.0000
  S   S892      1.0  0.79785  0.50130  0.05862  1.0000
  C   C6519     1.0  0.76582  0.54209  0.00733  1.0000
  H   H5223     1.0  0.82669  0.49923  0.01597  1.0000
  C   C6520     1.0  0.86986  0.50931  0.03193  1.0000
  H   H5224     1.0  0.95295  0.51501  0.23765  1.0000
  S   S893      1.0  0.56867  0.72443  0.06067  1.0000
  C   C6521     1.0  0.50690  0.61084  0.01644  1.0000
  C   C6522     1.0  0.60721  0.67032  0.01302  1.0000
  H   H5225     1.0  0.56335  0.52692  0.05717  1.0000
  H   H5226     1.0  0.58340  0.65274  0.99146  1.0000
  C   C6523     1.0  0.49806  0.74169  0.02341  1.0000
  C   C6524     1.0  0.54593  0.54530  0.03333  1.0000
  C   C6525     1.0  0.62045  0.71556  0.00813  1.0000
  C   C6526     1.0  0.90555  0.50525  0.16582  1.0000
  C   C6527     1.0  0.90905  0.50911  0.15370  1.0000
  C   C6528     1.0  0.90656  0.50390  0.14609  1.0000
  H   H5227     1.0  0.66618  0.50921  0.03483  1.0000
  C   C6529     1.0  0.94462  0.59863  0.21717  1.0000
  H   H5228     1.0  0.98036  0.49800  0.09506  1.0000
  C   C6530     1.0  0.55548  0.63268  0.01988  1.0000
  H   H5229     1.0  0.90761  0.50927  0.17167  1.0000
  H   H5230     1.0  0.91375  0.51611  0.15021  1.0000
  H   H5231     1.0  0.90937  0.50677  0.13667  1.0000
  S   S894      1.0  0.94746  0.53699  0.21803  1.0000
  C   C6531     1.0  0.60179  0.68189  0.01403  1.0000
  C   C6532     1.0  0.67000  0.52717  0.00340  1.0000
  S   S895      1.0  0.58831  0.67535  0.99431  1.0000
  C   C6533     1.0  0.52946  0.72508  0.08921  1.0000
  C   C6534     1.0  0.90290  0.49469  0.07871  1.0000
  C   C6535     1.0  0.60732  0.72375  0.99471  1.0000
  H   H5232     1.0  0.70329  0.50098  0.08510  1.0000
  H   H5233     1.0  0.94219  0.55461  0.23094  1.0000
  C   C6536     1.0  0.54597  0.56786  0.00781  1.0000
  C   C6537     1.0  0.96279  0.57664  0.22236  1.0000
  H   H5234     1.0  0.51738  0.68762  0.05942  1.0000
  H   H5235     1.0  0.97092  0.52269  0.22891  1.0000
  Fe  Fe449     1.0  0.70235  0.50035  0.04241  1.0000
  C   C6538     1.0  0.93608  0.56168  0.23468  1.0000
  H   H5236     1.0  0.98986  0.52005  0.17770  1.0000
  S   S896      1.0  0.92643  0.56823  0.21498  1.0000
  C   C6539     1.0  0.99414  0.49297  0.21594  1.0000
  C   C6540     1.0  0.96985  0.51251  0.16813  1.0000
  C   C6541     1.0  0.50952  0.66979  0.02255  1.0000
  C   C6542     1.0  0.52960  0.69270  0.06594  1.0000
  C   C6543     1.0  0.66758  0.56272  0.07120  1.0000
  C   C6544     1.0  0.66540  0.55206  0.07119  1.0000
  C   C6545     1.0  0.67162  0.54625  0.06212  1.0000
  C   C6546     1.0  0.68005  0.55103  0.05305  1.0000
  C   C6547     1.0  0.68198  0.56194  0.05275  1.0000
  C   C6548     1.0  0.67584  0.56765  0.06201  1.0000
  P   P218      1.0  0.69219  0.56872  0.04068  1.0000
  C   C6549     1.0  0.70223  0.57214  0.04704  1.0000
  C   C6550     1.0  0.70011  0.55878  0.03100  1.0000
  C   C6551     1.0  0.71097  0.55129  0.03248  1.0000
  C   C6552     1.0  0.70119  0.55055  0.01455  1.0000
  C   C6553     1.0  0.69526  0.55834  0.02197  1.0000
  C   C6554     1.0  0.70631  0.58255  0.04240  1.0000
  C   C6555     1.0  0.71380  0.58517  0.04769  1.0000
  C   C6556     1.0  0.71723  0.57747  0.05765  1.0000
  C   C6557     1.0  0.71318  0.56713  0.06235  1.0000
  C   C6558     1.0  0.70575  0.56444  0.05705  1.0000
  C   C6559     1.0  0.68451  0.58167  0.03192  1.0000
  C   C6560     1.0  0.67239  0.58615  0.03552  1.0000
  C   C6561     1.0  0.66653  0.59586  0.02836  1.0000
  C   C6562     1.0  0.67269  0.60109  0.01752  1.0000
  C   C6563     1.0  0.68472  0.59660  0.01380  1.0000
  C   C6564     1.0  0.69060  0.58691  0.02094  1.0000
  H   H5237     1.0  0.66286  0.56713  0.07833  1.0000
  H   H5238     1.0  0.65898  0.54820  0.07826  1.0000
  H   H5239     1.0  0.66991  0.53799  0.06214  1.0000
  H   H5240     1.0  0.68508  0.54613  0.04639  1.0000
  H   H5241     1.0  0.67742  0.57595  0.06209  1.0000
  H   H5242     1.0  0.69739  0.55014  0.00767  1.0000
  H   H5243     1.0  0.68681  0.56389  0.02072  1.0000
  H   H5244     1.0  0.70368  0.58871  0.03479  1.0000
  H   H5245     1.0  0.71583  0.56110  0.07007  1.0000
  H   H5246     1.0  0.70276  0.55632  0.06078  1.0000
  H   H5247     1.0  0.66733  0.58213  0.04372  1.0000
  H   H5248     1.0  0.65718  0.59926  0.03119  1.0000
  H   H5249     1.0  0.98030  0.53977  0.16790  1.0000
  H   H5250     1.0  0.95182  0.51016  0.03017  1.0000
  H   H5251     1.0  0.69988  0.58338  0.01783  1.0000
  C   C6565     1.0  0.96058  0.54412  0.13302  1.0000
  H   H5252     1.0  0.51662  0.69392  0.03992  1.0000
  H   H5253     1.0  0.56938  0.61944  0.01256  1.0000
  C   C6566     1.0  0.50894  0.70007  0.03733  1.0000
  H   H5254     1.0  0.68947  0.60056  0.00533  1.0000
  C   C6567     1.0  0.71760  0.50120  0.09211  1.0000
  C   C6568     1.0  0.89143  0.50127  0.08163  1.0000
  C   C6569     1.0  0.51054  0.69309  0.01245  1.0000
  C   C6570     1.0  0.83297  0.49494  0.03199  1.0000
  H   H5255     1.0  0.93408  0.53283  0.15158  1.0000
  H   H5256     1.0  0.87726  0.50576  0.23521  1.0000
  H   H5257     1.0  0.71373  0.50987  0.09393  1.0000
  H   H5258     1.0  0.73522  0.54588  0.00068  1.0000
  H   H5259     1.0  0.54173  0.71482  0.99163  1.0000
  H   H5260     1.0  0.53110  0.72878  0.09557  1.0000
  C   C6571     1.0  0.88167  0.51474  0.99148  1.0000
  P   P219      1.0  0.98360  0.51317  0.12736  1.0000
  C   C6572     1.0  0.98163  0.49913  0.13660  1.0000
  C   C6573     1.0  0.94115  0.49766  0.22210  1.0000
  H   H5261     1.0  0.59231  0.68422  0.01703  1.0000
  C   C6574     1.0  0.96665  0.55678  0.23411  1.0000
  C   C6575     1.0  0.85622  0.52510  0.99489  1.0000
  H   H5262     1.0  0.99336  0.52814  0.10548  1.0000
  H   H5263     1.0  0.59537  0.70664  0.06090  1.0000
  C   C6576     1.0  0.51113  0.62801  0.04825  1.0000
  C   C6577     1.0  0.53560  0.72271  0.99389  1.0000
  H   H5264     1.0  0.59603  0.72475  0.04543  1.0000
  C   C6578     1.0  0.98333  0.50369  0.20083  1.0000
  H   H5265     1.0  0.67920  0.53807  0.01460  1.0000
  C   C6579     1.0  0.97047  0.52457  0.12965  1.0000
  C   C6580     1.0  0.95985  0.52305  0.12855  1.0000
  C   C6581     1.0  0.94967  0.53196  0.12978  1.0000
  C   C6582     1.0  0.95001  0.54245  0.13213  1.0000
  C   C6583     1.0  0.98570  0.50248  0.21175  1.0000
  C   C6584     1.0  0.97082  0.53529  0.13162  1.0000
  C   C6585     1.0  0.98933  0.49528  0.19407  1.0000
  C   C6586     1.0  0.92646  0.50280  0.04739  1.0000
  H   H5266     1.0  0.84090  0.49357  0.04637  1.0000
  C   C6587     1.0  0.50023  0.68942  0.01388  1.0000
  C   C6588     1.0  0.67487  0.51530  0.00326  1.0000
  C   C6589     1.0  0.98863  0.57327  0.23798  1.0000
  H   H5267     1.0  0.80798  0.49464  0.09447  1.0000
  H   H5268     1.0  0.51021  0.63129  0.00156  1.0000
  C   C6590     1.0  0.78265  0.55091  0.99859  1.0000
  C   C6591     1.0  0.62081  0.68689  0.00768  1.0000
  H   H5269     1.0  0.96491  0.50578  0.14764  1.0000
  H   H5270     1.0  0.66154  0.55868  0.04044  1.0000
  C   C6592     1.0  0.59675  0.70626  0.05180  1.0000
  H   H5271     1.0  0.53438  0.74115  0.03072  1.0000
  H   H5272     1.0  0.87134  0.52206  0.01566  1.0000
  H   H5273     1.0  0.95944  0.51496  0.12674  1.0000
  H   H5274     1.0  0.94147  0.53066  0.12908  1.0000
  H   H5275     1.0  0.92977  0.49322  0.07798  1.0000
  C   C6593     1.0  0.71178  0.49626  0.08702  1.0000
  C   C6594     1.0  0.64383  0.55432  0.99930  1.0000
  C   C6595     1.0  0.59603  0.53609  0.01449  1.0000
  C   C6596     1.0  0.60344  0.54288  0.01469  1.0000
  H   H5276     1.0  0.51642  0.62714  0.05439  1.0000
  H   H5277     1.0  0.61282  0.53920  0.01361  1.0000
  C   C6597     1.0  0.76342  0.54201  0.08571  1.0000
  C   C6598     1.0  0.77315  0.54393  0.08818  1.0000
  C   C6599     1.0  0.78016  0.55092  0.07967  1.0000
  C   C6600     1.0  0.77749  0.55591  0.06864  1.0000
  C   C6601     1.0  0.76799  0.55365  0.06590  1.0000
  C   C6602     1.0  0.76082  0.54683  0.07462  1.0000
  P   P220      1.0  0.76511  0.55957  0.05133  1.0000
  C   C6603     1.0  0.75676  0.57456  0.05014  1.0000
  C   C6604     1.0  0.77893  0.55885  0.04061  1.0000
  C   C6605     1.0  0.77981  0.56679  0.02969  1.0000
  C   C6606     1.0  0.79048  0.56602  0.02137  1.0000
  C   C6607     1.0  0.80036  0.55740  0.02394  1.0000
  C   C6608     1.0  0.79955  0.54948  0.03478  1.0000
  C   C6609     1.0  0.78886  0.55006  0.04298  1.0000
  C   C6610     1.0  0.75018  0.57963  0.04145  1.0000
  C   C6611     1.0  0.74378  0.59127  0.04040  1.0000
  C   C6612     1.0  0.74381  0.59791  0.04808  1.0000
  C   C6613     1.0  0.75028  0.59292  0.05680  1.0000
  C   C6614     1.0  0.75676  0.58130  0.05782  1.0000
  C   C6615     1.0  0.75670  0.55114  0.04828  1.0000
  C   C6616     1.0  0.74453  0.55286  0.05292  1.0000
  C   C6617     1.0  0.73802  0.54628  0.05066  1.0000
  C   C6618     1.0  0.74361  0.53782  0.04394  1.0000
  C   C6619     1.0  0.75571  0.53601  0.03941  1.0000
  C   C6620     1.0  0.76221  0.54275  0.04137  1.0000
  H   H5278     1.0  0.75805  0.53649  0.09229  1.0000
  H   H5279     1.0  0.77537  0.53984  0.09664  1.0000
  H   H5280     1.0  0.78786  0.55220  0.08150  1.0000
  H   H5281     1.0  0.78312  0.56120  0.06213  1.0000
  H   H5282     1.0  0.75347  0.54483  0.07285  1.0000
  H   H5283     1.0  0.77229  0.57351  0.02750  1.0000
  H   H5284     1.0  0.79110  0.57207  0.01290  1.0000
  H   H5285     1.0  0.80859  0.55671  0.01745  1.0000
  H   H5286     1.0  0.80713  0.54265  0.03680  1.0000
  H   H5287     1.0  0.78842  0.54356  0.05115  1.0000
  H   H5288     1.0  0.75007  0.57460  0.03542  1.0000
  H   H5289     1.0  0.73887  0.59516  0.03357  1.0000
  H   H5290     1.0  0.73889  0.60695  0.04725  1.0000
  H   H5291     1.0  0.75034  0.59807  0.06274  1.0000
  H   H5292     1.0  0.76174  0.57764  0.06460  1.0000
  H   H5293     1.0  0.74013  0.55911  0.05847  1.0000
  H   H5294     1.0  0.72869  0.54740  0.05441  1.0000
  H   H5295     1.0  0.73859  0.53247  0.04254  1.0000
  H   H5296     1.0  0.76016  0.52917  0.03460  1.0000
  H   H5297     1.0  0.77161  0.54100  0.03786  1.0000
  Fe  Fe450     1.0  0.94180  0.54032  0.18734  1.0000
  H   H5298     1.0  0.91712  0.50658  0.04928  1.0000
  C   C6621     1.0  0.55481  0.58244  0.04079  1.0000
  H   H5299     1.0  0.94453  0.58421  0.20997  1.0000
  C   C6622     1.0  0.50336  0.59399  0.01229  1.0000
  C   C6623     1.0  0.54744  0.53034  0.05113  1.0000
  C   C6624     1.0  0.60853  0.69033  0.01120  1.0000
  C   C6625     1.0  0.85726  0.50060  0.17124  1.0000
  C   C6626     1.0  0.53813  0.63884  0.01170  1.0000
  Fe  Fe451     1.0  0.96053  0.53668  0.20089  1.0000
  C   C6627     1.0  0.88398  0.50436  0.07386  1.0000
  H   H5300     1.0  0.93748  0.49933  0.18548  1.0000
  H   H5301     1.0  0.66307  0.52953  0.01075  1.0000
  C   C6628     1.0  0.83743  0.49931  0.03896  1.0000
  C   C6629     1.0  0.67128  0.54774  0.02813  1.0000
  S   S897      1.0  0.77071  0.49744  0.06908  1.0000
  Fe  Fe452     1.0  0.93933  0.52606  0.21213  1.0000
  P   P221      1.0  0.56333  0.55778  0.02077  1.0000
  C   C6630     1.0  0.66309  0.55752  0.03158  1.0000
  H   H5302     1.0  0.91347  0.50504  0.21718  1.0000
  C   C6631     1.0  0.57911  0.55229  0.01760  1.0000
  H   H5303     1.0  0.67182  0.50859  0.01049  1.0000
  S   S898      1.0  0.95336  0.52416  0.19592  1.0000
  C   C6632     1.0  0.98613  0.51264  0.11216  1.0000
  C   C6633     1.0  0.94000  0.59280  0.21169  1.0000
  C   C6634     1.0  0.74971  0.52296  0.00989  1.0000
  H   H5304     1.0  0.54646  0.72562  0.07760  1.0000
  C   C6635     1.0  0.54117  0.53696  0.04254  1.0000
  C   C6636     1.0  0.58759  0.70996  0.00876  1.0000
  H   H5305     1.0  0.54016  0.64571  0.02536  1.0000
  H   H5306     1.0  0.52714  0.66745  0.02471  1.0000
  C   C6637     1.0  0.56068  0.62489  0.01230  1.0000
  H   H5307     1.0  0.78888  0.55534  0.99931  1.0000
  H   H5308     1.0  0.50091  0.68567  0.99231  1.0000
  H   H5309     1.0  0.57826  0.53525  0.01608  1.0000
  H   H5310     1.0  0.81556  0.50224  0.07235  1.0000
  H   H5311     1.0  0.97447  0.60154  0.22912  1.0000
  C   C6638     1.0  0.55477  0.62441  0.00412  1.0000
  S   S899      1.0  0.97883  0.53242  0.20373  1.0000
  H   H5312     1.0  0.84589  0.50587  0.99775  1.0000
  C   C6639     1.0  0.65846  0.56378  0.01240  1.0000
  C   C6640     1.0  0.54422  0.63969  0.01952  1.0000
  C   C6641     1.0  0.93817  0.60962  0.21954  1.0000
  H   H5313     1.0  0.54092  0.55029  0.02679  1.0000
  H   H5314     1.0  0.51887  0.71231  0.02570  1.0000
  C   C6642     1.0  0.83986  0.51964  0.06454  1.0000
  C   C6643     1.0  0.99470  0.51899  0.14134  1.0000
  H   H5315     1.0  0.55883  0.72256  0.99726  1.0000
  H   H5316     1.0  0.97250  0.55643  0.20518  1.0000
  H   H5317     1.0  0.77258  0.55090  0.01622  1.0000
  C   C6644     1.0  0.92761  0.56942  0.22869  1.0000
  H   H5318     1.0  0.52687  0.66659  0.06296  1.0000
  C   C6645     1.0  0.92727  0.61465  0.21651  1.0000
  C   C6646     1.0  0.74869  0.51274  0.03030  1.0000
  H   H5319     1.0  0.97310  0.54295  0.22447  1.0000
  H   H5320     1.0  0.73484  0.52373  0.00306  1.0000
  H   H5321     1.0  0.54366  0.69450  0.07251  1.0000
  H   H5322     1.0  0.55280  0.67342  0.07623  1.0000
  H   H5323     1.0  0.90970  0.52631  0.21511  1.0000
  H   H5324     1.0  0.96640  0.57782  0.20363  1.0000
  C   C6647     1.0  0.71685  0.54345  0.02509  1.0000
  H   H5325     1.0  0.71632  0.53688  0.01051  1.0000
  H   H5326     1.0  0.71684  0.59325  0.04412  1.0000
  S   S900      1.0  0.55985  0.66481  0.01038  1.0000
  C   C6648     1.0  0.86930  0.49606  0.17061  1.0000
  H   H5327     1.0  0.57174  0.54910  0.99865  1.0000
  H   H5328     1.0  0.75056  0.50118  0.12855  1.0000
  H   H5329     1.0  0.67616  0.54139  0.03423  1.0000
  H   H5330     1.0  0.63569  0.67265  0.00424  1.0000
  C   C6649     1.0  0.55705  0.54705  0.03263  1.0000
  C   C6650     1.0  0.53000  0.72669  0.04468  1.0000
  C   C6651     1.0  0.97174  0.49815  0.14587  1.0000
  C   C6652     1.0  0.68369  0.51207  0.99377  1.0000
  Fe  Fe453     1.0  0.56702  0.74043  0.04602  1.0000
  H   H5331     1.0  0.74540  0.50466  0.10940  1.0000
  H   H5332     1.0  0.99530  0.55476  0.20632  1.0000
  C   C6653     1.0  0.50564  0.63734  0.02960  1.0000
  C   C6654     1.0  0.97879  0.51110  0.17392  1.0000
  C   C6655     1.0  0.88803  0.50100  0.06308  1.0000
  H   H5333     1.0  0.59838  0.72427  0.02476  1.0000
  C   C6656     1.0  0.86938  0.51358  0.02010  1.0000
  C   C6657     1.0  0.72839  0.49494  0.09484  1.0000
  H   H5334     1.0  0.65043  0.57322  0.02632  1.0000
  H   H5335     1.0  0.98944  0.51289  0.07934  1.0000
  H   H5336     1.0  0.66813  0.60857  0.01197  1.0000
  H   H5337     1.0  0.76367  0.51909  0.01899  1.0000
  C   C6658     1.0  0.99209  0.52136  0.09147  1.0000
  C   C6659     1.0  0.98987  0.54446  0.18271  1.0000
  Fe  Fe454     1.0  0.93675  0.55227  0.20777  1.0000
  H   H5338     1.0  0.73003  0.49341  0.00529  1.0000
  C   C6660     1.0  0.59747  0.69573  0.04889  1.0000
  H   H5339     1.0  0.72509  0.53753  0.02649  1.0000
  H   H5340     1.0  0.56165  0.58206  0.00779  1.0000
  C   C6661     1.0  0.58390  0.54073  0.01602  1.0000
  C   C6662     1.0  0.53611  0.71838  0.07097  1.0000
  H   H5341     1.0  0.98142  0.55040  0.18221  1.0000
  H   H5342     1.0  0.54302  0.66071  0.00044  1.0000
  H   H5343     1.0  0.52052  0.59618  0.01150  1.0000
  C   C6663     1.0  0.49757  0.63024  0.03222  1.0000
  H   H5344     1.0  0.97400  0.62159  0.18676  1.0000
  C   C6664     1.0  0.56865  0.72359  0.00893  1.0000
  H   H5345     1.0  0.55753  0.56373  0.04408  1.0000
  C   C6665     1.0  0.90256  0.52185  0.21937  1.0000
  C   C6666     1.0  0.89560  0.50376  0.22620  1.0000
  H   H5346     1.0  0.65349  0.50533  0.02400  1.0000
  C   C6667     1.0  0.49636  0.62200  0.04292  1.0000
  C   C6668     1.0  0.55709  0.56031  0.00818  1.0000
  H   H5347     1.0  0.60139  0.61013  0.00110  1.0000
  C   C6669     1.0  0.96639  0.57204  0.21220  1.0000
  H   H5348     1.0  0.87181  0.51458  0.03668  1.0000
  H   H5349     1.0  0.55267  0.60125  0.03491  1.0000
  H   H5350     1.0  0.80872  0.49360  0.03339  1.0000
  C   C6670     1.0  0.58667  0.55915  0.01750  1.0000
  H   H5351     1.0  0.51083  0.70206  0.00830  1.0000
  C   C6671     1.0  0.82983  0.51434  0.01928  1.0000
  H   H5352     1.0  0.95719  0.50383  0.21667  1.0000
  H   H5353     1.0  0.73281  0.50664  0.03928  1.0000
  H   H5354     1.0  0.60190  0.66395  0.01497  1.0000
  C   C6672     1.0  0.55969  0.58204  0.01704  1.0000
  C   C6673     1.0  0.65678  0.56563  0.02365  1.0000
  C   C6674     1.0  0.82961  0.50246  0.02185  1.0000
  H   H5355     1.0  0.52592  0.73225  0.05098  1.0000
  C   C6675     1.0  0.59831  0.71619  0.03138  1.0000
  H   H5356     1.0  0.89697  0.49325  0.17977  1.0000
  C   C6676     1.0  0.51876  0.72195  0.09115  1.0000
  C   C6677     1.0  0.66632  0.55369  0.00909  1.0000
  C   C6678     1.0  0.94605  0.50492  0.03656  1.0000
  C   C6679     1.0  0.96731  0.60896  0.20169  1.0000
  H   H5357     1.0  0.56224  0.73087  0.01204  1.0000
  C   C6680     1.0  0.54485  0.67654  0.07289  1.0000
  C   C6681     1.0  0.97010  0.59830  0.20965  1.0000
  C   C6682     1.0  0.73868  0.52101  0.01068  1.0000
  H   H5358     1.0  0.58330  0.56815  0.01848  1.0000
  C   C6683     1.0  0.51673  0.71702  0.08301  1.0000
  H   H5359     1.0  0.75271  0.50929  0.03783  1.0000
  H   H5360     1.0  0.60100  0.56831  0.99239  1.0000
  H   H5361     1.0  0.80084  0.51812  0.99559  1.0000
  C   C6684     1.0  0.53478  0.73180  0.03316  1.0000
  C   C6685     1.0  0.53029  0.67269  0.06533  1.0000
  H   H5362     1.0  0.54302  0.71692  0.06329  1.0000
  Fe  Fe455     1.0  0.57469  0.67180  0.01088  1.0000
  H   H5363     1.0  0.55298  0.58262  0.05000  1.0000
  C   C6686     1.0  0.73754  0.51119  0.03112  1.0000
  C   C6687     1.0  0.55464  0.59293  0.03233  1.0000
  P   P222      1.0  0.50230  0.73141  0.01408  1.0000
  P   P223      1.0  0.52317  0.70825  0.06256  1.0000
  C   C6688     1.0  0.56327  0.54039  0.04133  1.0000
  H   H5364     1.0  0.62627  0.69312  0.00559  1.0000
  H   H5365     1.0  0.50846  0.71454  0.08473  1.0000
  C   C6689     1.0  0.75481  0.51845  0.01967  1.0000
  H   H5366     1.0  0.98425  0.58389  0.21468  1.0000
  H   H5367     1.0  0.94154  0.61430  0.22376  1.0000
  H   H5368     1.0  0.62354  0.65799  0.00876  1.0000
  S   S901      1.0  0.93702  0.54107  0.17040  1.0000
  H   H5369     1.0  0.52932  0.64412  0.01166  1.0000
  C   C6690     1.0  0.99078  0.52135  0.10328  1.0000
  H   H5370     1.0  0.97686  0.51120  0.19772  1.0000
  C   C6691     1.0  0.97021  0.55232  0.22394  1.0000
  C   C6692     1.0  0.98189  0.59216  0.20871  1.0000
  S   S902      1.0  0.62402  0.50747  0.99577  1.0000
  H   H5371     1.0  0.85239  0.53033  0.01144  1.0000
  C   C6693     1.0  0.88229  0.52229  0.22946  1.0000
  H   H5372     1.0  0.57182  0.54163  0.04103  1.0000
  P   P224      1.0  0.60148  0.70512  0.01314  1.0000
  C   C6694     1.0  0.96832  0.53349  0.16256  1.0000
  H   H5373     1.0  0.83695  0.54772  0.00637  1.0000
  C   C6695     1.0  0.50759  0.71065  0.06340  1.0000
  C   C6696     1.0  0.98339  0.50449  0.09729  1.0000
  C   C6697     1.0  0.98217  0.50440  0.10908  1.0000
  C   C6698     1.0  0.95073  0.49359  0.04229  1.0000
  H   H5374     1.0  0.59950  0.72413  0.99191  1.0000
  C   C6699     1.0  0.56308  0.55477  0.99879  1.0000
  H   H5375     1.0  0.86864  0.49466  0.04671  1.0000
  H   H5376     1.0  0.85342  0.50964  0.17199  1.0000
  C   C6700     1.0  0.61941  0.66699  0.00946  1.0000
  C   C6701     1.0  0.99380  0.58165  0.23911  1.0000
  C   C6702     1.0  0.75548  0.49548  0.12254  1.0000
  C   C6703     1.0  0.99075  0.59664  0.20000  1.0000
  C   C6704     1.0  0.85020  0.49356  0.17078  1.0000
  P   P225      1.0  0.86724  0.51191  0.99842  1.0000
  C   C6705     1.0  0.98845  0.51289  0.08848  1.0000
  C   C6706     1.0  0.54099  0.56986  0.99820  1.0000
  H   H5377     1.0  0.89024  0.50104  0.00404  1.0000
  H   H5378     1.0  0.68749  0.50289  0.99369  1.0000
  C   C6707     1.0  0.53772  0.66775  0.99522  1.0000
  C   C6708     1.0  0.51243  0.63616  0.03758  1.0000
  H   H5379     1.0  0.52783  0.65661  0.99320  1.0000
  H   H5380     1.0  0.55896  0.61866  0.99804  1.0000
  H   H5381     1.0  0.99585  0.52799  0.08464  1.0000
  C   C6709     1.0  0.58576  0.70551  0.00010  1.0000
  S   S903      1.0  0.53606  0.63119  0.99344  1.0000
  S   S904      1.0  0.65207  0.50800  0.99192  1.0000
  C   C6710     1.0  0.89965  0.49606  0.17036  1.0000
  C   C6711     1.0  0.84162  0.54229  0.00006  1.0000
  C   C6712     1.0  0.52916  0.66544  0.99117  1.0000
  C   C6713     1.0  0.76745  0.53812  0.99708  1.0000
  C   C6714     1.0  0.91989  0.57867  0.23358  1.0000
  H   H5382     1.0  0.87363  0.52718  0.23292  1.0000
  C   C6715     1.0  0.63293  0.55783  0.99618  1.0000
  H   H5383     1.0  0.90282  0.49855  0.20268  1.0000
  C   C6716     1.0  0.75253  0.49743  0.11175  1.0000
  C   C6717     1.0  0.72374  0.51055  0.99512  1.0000
  H   H5384     1.0  0.84089  0.49713  0.17116  1.0000
  C   C6718     1.0  0.85338  0.50010  0.99341  1.0000
  S   S905      1.0  0.55942  0.74181  0.03090  1.0000
  H   H5385     1.0  0.51578  0.74020  0.02451  1.0000
  H   H5386     1.0  0.50208  0.61459  0.05919  1.0000
  C   C6719     1.0  0.62367  0.73240  0.99242  1.0000
  P   P226      1.0  0.66821  0.55125  0.99467  1.0000
  C   C6720     1.0  0.96786  0.52068  0.23835  1.0000
  H   H5387     1.0  0.92128  0.54493  0.23604  1.0000
  H   H5388     1.0  0.63450  0.72427  0.00505  1.0000
  C   C6721     1.0  0.96690  0.60026  0.23616  1.0000
  H   H5389     1.0  0.50667  0.58574  0.00945  1.0000
  C   C6722     1.0  0.58754  0.64347  0.99342  1.0000
  C   C6723     1.0  0.89136  0.50792  0.99621  1.0000
  C   C6724     1.0  0.90067  0.49474  0.15059  1.0000
  C   C6725     1.0  0.62702  0.72401  0.00206  1.0000
  H   H5390     1.0  0.49686  0.68932  0.04812  1.0000
  H   H5391     1.0  0.89886  0.57020  0.33030  1.0000
  C   C6726     1.0  0.95543  0.50027  0.30132  1.0000
  C   C6727     1.0  0.98164  0.61989  0.37480  1.0000
  S   S906      1.0  0.99270  0.55067  0.34936  1.0000
  H   H5392     1.0  0.96478  0.59042  0.39802  1.0000
  H   H5393     1.0  0.99040  0.50498  0.27444  1.0000
  C   C6728     1.0  0.94758  0.59704  0.25475  1.0000
  H   H5394     1.0  0.98911  0.58738  0.24512  1.0000
  C   C6729     1.0  0.90325  0.59679  0.32983  1.0000
  S   S907      1.0  0.97678  0.58323  0.33741  1.0000
  C   C6730     1.0  0.91551  0.57137  0.30877  1.0000
  Fe  Fe456     1.0  0.94523  0.56561  0.27169  1.0000
  S   S908      1.0  0.95170  0.54612  0.27628  1.0000
  S   S909      1.0  0.92997  0.57549  0.26331  1.0000
  Fe  Fe457     1.0  0.96066  0.57017  0.28522  1.0000
  S   S910      1.0  0.96839  0.55111  0.29113  1.0000
  S   S911      1.0  0.96406  0.58548  0.28962  1.0000
  Fe  Fe458     1.0  0.96940  0.55020  0.27272  1.0000
  S   S912      1.0  0.98569  0.53896  0.26406  1.0000
  Fe  Fe459     1.0  0.95012  0.54868  0.29426  1.0000
  S   S913      1.0  0.94237  0.53643  0.31021  1.0000
  S   S914      1.0  0.96311  0.56959  0.26638  1.0000
  S   S915      1.0  0.94223  0.56790  0.28996  1.0000
  S   S916      1.0  0.97208  0.69465  0.47274  1.0000
  H   H5395     1.0  0.98509  0.57387  0.42425  1.0000
  C   C6731     1.0  0.99005  0.51623  0.35426  1.0000
  Fe  Fe460     1.0  0.99142  0.57001  0.34497  1.0000
  H   H5396     1.0  0.91874  0.55003  0.37786  1.0000
  C   C6732     1.0  0.95681  0.50694  0.37216  1.0000
  C   C6733     1.0  0.92329  0.50549  0.29652  1.0000
  H   H5397     1.0  0.96816  0.72423  0.48384  1.0000
  C   C6734     1.0  0.94616  0.50210  0.31101  1.0000
  H   H5398     1.0  0.97974  0.66250  0.44218  1.0000
  Fe  Fe461     1.0  0.97392  0.72882  0.43732  1.0000
  C   C6735     1.0  0.97370  0.58311  0.32412  1.0000
  C   C6736     1.0  0.97775  0.57328  0.31900  1.0000
  C   C6737     1.0  0.97466  0.57367  0.30851  1.0000
  C   C6738     1.0  0.96773  0.58399  0.30307  1.0000
  C   C6739     1.0  0.96393  0.59379  0.30815  1.0000
  C   C6740     1.0  0.96674  0.59330  0.31868  1.0000
  H   H5399     1.0  0.98309  0.56537  0.32320  1.0000
  H   H5400     1.0  0.97778  0.56610  0.30454  1.0000
  H   H5401     1.0  0.95867  0.60180  0.30397  1.0000
  H   H5402     1.0  0.96359  0.60092  0.32256  1.0000
  S   S917      1.0  0.99276  0.57047  0.36288  1.0000
  C   C6741     1.0  0.94783  0.52228  0.30736  1.0000
  C   C6742     1.0  0.95744  0.52024  0.29805  1.0000
  H   H5403     1.0  0.91122  0.56364  0.36084  1.0000
  H   H5404     1.0  0.96197  0.52713  0.29308  1.0000
  C   C6743     1.0  0.99244  0.60978  0.27270  1.0000
  S   S918      1.0  0.99436  0.64189  0.43408  1.0000
  H   H5405     1.0  0.95985  0.57212  0.24136  1.0000
  C   C6744     1.0  0.98645  0.66520  0.43470  1.0000
  C   C6745     1.0  0.98114  0.49872  0.32321  1.0000
  C   C6746     1.0  0.98329  0.57411  0.41595  1.0000
  C   C6747     1.0  0.98571  0.62491  0.39928  1.0000
  C   C6748     1.0  0.98694  0.67710  0.43095  1.0000
  H   H5406     1.0  0.96849  0.53744  0.34931  1.0000
  H   H5407     1.0  0.95460  0.52297  0.32888  1.0000
  Fe  Fe462     1.0  0.98946  0.70647  0.42980  1.0000
  C   C6749     1.0  0.97430  0.58304  0.41185  1.0000
  C   C6750     1.0  0.98657  0.50603  0.35508  1.0000
  C   C6751     1.0  0.93362  0.51178  0.27645  1.0000
  C   C6752     1.0  0.98672  0.52109  0.43359  1.0000
  C   C6753     1.0  0.92066  0.58028  0.24425  1.0000
  C   C6754     1.0  0.92741  0.50710  0.34921  1.0000
  C   C6755     1.0  0.93779  0.53729  0.35593  1.0000
  H   H5408     1.0  0.97986  0.57265  0.24299  1.0000
  H   H5409     1.0  0.91486  0.54251  0.31369  1.0000
  H   H5410     1.0  0.96939  0.58965  0.41688  1.0000
  C   C6756     1.0  0.92065  0.53618  0.24116  1.0000
  P   P227      1.0  0.93985  0.50936  0.26178  1.0000
  H   H5411     1.0  0.96095  0.50246  0.34603  1.0000
  H   H5412     1.0  0.97918  0.61051  0.26382  1.0000
  C   C6757     1.0  0.98993  0.56567  0.40933  1.0000
  C   C6758     1.0  0.99509  0.64610  0.46485  1.0000
  H   H5413     1.0  0.97492  0.52117  0.26331  1.0000
  H   H5414     1.0  0.91817  0.55634  0.32313  1.0000
  C   C6759     1.0  0.95935  0.52619  0.37129  1.0000
  H   H5415     1.0  0.98742  0.66397  0.46669  1.0000
  C   C6760     1.0  0.92889  0.51789  0.25348  1.0000
  H   H5416     1.0  0.92724  0.62176  0.27993  1.0000
  H   H5417     1.0  0.90669  0.61971  0.28881  1.0000
  C   C6761     1.0  0.89753  0.57856  0.33249  1.0000
  C   C6762     1.0  0.97707  0.53683  0.32047  1.0000
  H   H5418     1.0  0.99110  0.59997  0.32263  1.0000
  C   C6763     1.0  0.98390  0.64450  0.40796  1.0000
  H   H5419     1.0  0.97409  0.62468  0.38014  1.0000
  H   H5420     1.0  0.91254  0.58405  0.29270  1.0000
  H   H5421     1.0  0.94122  0.59134  0.24301  1.0000
  H   H5422     1.0  0.91819  0.50505  0.25966  1.0000
  H   H5423     1.0  0.98671  0.52077  0.36142  1.0000
  H   H5424     1.0  0.91026  0.54935  0.29394  1.0000
  H   H5425     1.0  0.95549  0.55376  0.32208  1.0000
  C   C6764     1.0  0.95157  0.50393  0.34686  1.0000
  C   C6765     1.0  0.95587  0.51881  0.36647  1.0000
  H   H5426     1.0  0.93698  0.54322  0.33762  1.0000
  C   C6766     1.0  0.90537  0.58596  0.32672  1.0000
  H   H5427     1.0  0.88172  0.57622  0.34556  1.0000
  C   C6767     1.0  0.96083  0.52726  0.32980  1.0000
  H   H5428     1.0  0.94380  0.60634  0.28670  1.0000
  H   H5429     1.0  0.98079  0.61630  0.41739  1.0000
  S   S919      1.0  0.98005  0.72466  0.45399  1.0000
  H   H5430     1.0  0.92021  0.56005  0.34086  1.0000
  H   H5431     1.0  0.95810  0.53552  0.36758  1.0000
  H   H5432     1.0  0.98166  0.52838  0.40726  1.0000
  C   C6768     1.0  0.92308  0.51610  0.29898  1.0000
  C   C6769     1.0  0.93282  0.58176  0.32949  1.0000
  C   C6770     1.0  0.93324  0.54481  0.34640  1.0000
  H   H5433     1.0  0.98056  0.68355  0.43546  1.0000
  C   C6771     1.0  0.91904  0.51363  0.25436  1.0000
  H   H5434     1.0  0.96343  0.50099  0.32189  1.0000
  H   H5435     1.0  0.93996  0.58906  0.30204  1.0000
  C   C6772     1.0  0.95336  0.51428  0.25553  1.0000
  C   C6773     1.0  0.91279  0.57513  0.29762  1.0000
  H   H5436     1.0  0.93509  0.51460  0.32140  1.0000
  C   C6774     1.0  0.91402  0.55169  0.30931  1.0000
  C   C6775     1.0  0.96422  0.52165  0.38120  1.0000
  C   C6776     1.0  0.97672  0.53915  0.33118  1.0000
  P   P228      1.0  0.99364  0.63573  0.37593  1.0000
  H   H5437     1.0  0.93686  0.52924  0.27218  1.0000
  C   C6777     1.0  0.91391  0.61305  0.29183  1.0000
  H   H5438     1.0  0.94019  0.59555  0.26200  1.0000
  C   C6778     1.0  0.92548  0.61421  0.28681  1.0000
  H   H5439     1.0  0.99108  0.61922  0.27113  1.0000
  C   C6779     1.0  0.98748  0.64497  0.39589  1.0000
  H   H5440     1.0  0.93790  0.56063  0.31411  1.0000
  H   H5441     1.0  0.98334  0.53981  0.31265  1.0000
  C   C6780     1.0  0.91152  0.55550  0.29817  1.0000
  C   C6781     1.0  0.94240  0.51311  0.31407  1.0000
  C   C6782     1.0  0.98581  0.60487  0.26850  1.0000
  H   H5442     1.0  0.98771  0.56225  0.26343  1.0000
  H   H5443     1.0  0.95703  0.51347  0.27218  1.0000
  C   C6783     1.0  0.93480  0.60555  0.29060  1.0000
  C   C6784     1.0  0.95093  0.56741  0.33171  1.0000
  H   H5444     1.0  0.96024  0.66978  0.36998  1.0000
  C   C6785     1.0  0.88776  0.58195  0.34119  1.0000
  C   C6786     1.0  0.97903  0.53207  0.43162  1.0000
  H   H5445     1.0  0.99402  0.50780  0.30294  1.0000
  H   H5446     1.0  0.87813  0.59536  0.35094  1.0000
  C   C6787     1.0  0.93168  0.51526  0.35201  1.0000
  H   H5447     1.0  0.93518  0.53307  0.37491  1.0000
  C   C6788     1.0  0.93229  0.53908  0.36732  1.0000
  C   C6789     1.0  0.91598  0.55957  0.31461  1.0000
  H   H5448     1.0  0.94184  0.49510  0.31608  1.0000
  C   C6790     1.0  0.99570  0.58538  0.27708  1.0000
  C   C6791     1.0  0.91116  0.53166  0.24164  1.0000
  C   C6792     1.0  0.92811  0.52457  0.29022  1.0000
  C   C6793     1.0  0.91090  0.56721  0.29234  1.0000
  H   H5449     1.0  0.98357  0.65192  0.41142  1.0000
  H   H5450     1.0  0.91928  0.51765  0.30775  1.0000
  C   C6794     1.0  0.96124  0.50926  0.29505  1.0000
  H   H5451     1.0  0.90881  0.49587  0.24289  1.0000
  H   H5452     1.0  0.98916  0.59707  0.36109  1.0000
  C   C6795     1.0  0.92283  0.54862  0.36906  1.0000
  C   C6796     1.0  0.99062  0.50033  0.34574  1.0000
  C   C6797     1.0  0.96852  0.53542  0.34124  1.0000
  C   C6798     1.0  0.97172  0.58348  0.40122  1.0000
  C   C6799     1.0  0.98889  0.65056  0.35507  1.0000
  C   C6800     1.0  0.93317  0.52251  0.27893  1.0000
  H   H5453     1.0  0.97608  0.57522  0.38652  1.0000
  H   H5454     1.0  0.97976  0.50763  0.32405  1.0000
  H   H5455     1.0  0.93672  0.49543  0.24686  1.0000
  C   C6801     1.0  0.91857  0.55626  0.35950  1.0000
  C   C6802     1.0  0.98585  0.52234  0.40146  1.0000
  H   H5456     1.0  0.98221  0.58883  0.26759  1.0000
  C   C6803     1.0  0.96910  0.53092  0.31978  1.0000
  H   H5457     1.0  0.95400  0.50103  0.36892  1.0000
  S   S920      1.0  0.97081  0.71078  0.43988  1.0000
  H   H5458     1.0  0.92831  0.53263  0.29222  1.0000
  C   C6804     1.0  0.98045  0.61051  0.37104  1.0000
  H   H5459     1.0  0.95624  0.60261  0.26472  1.0000
  C   C6805     1.0  0.94284  0.57760  0.33423  1.0000
  C   C6806     1.0  0.88573  0.59273  0.34421  1.0000
  C   C6807     1.0  0.96054  0.52931  0.34070  1.0000
  C   C6808     1.0  0.92369  0.55427  0.34821  1.0000
  H   H5460     1.0  0.96862  0.50777  0.28778  1.0000
  H   H5461     1.0  0.89189  0.60852  0.34087  1.0000
  C   C6809     1.0  0.98824  0.63523  0.39144  1.0000
  H   H5462     1.0  0.90930  0.57009  0.28353  1.0000
  H   H5463     1.0  0.98690  0.61704  0.39621  1.0000
  H   H5464     1.0  0.90914  0.60267  0.32552  1.0000
  C   C6810     1.0  0.92100  0.59450  0.30449  1.0000
  H   H5465     1.0  0.91952  0.49886  0.30334  1.0000
  C   C6811     1.0  0.96541  0.50975  0.38657  1.0000
  C   C6812     1.0  0.93258  0.59573  0.29938  1.0000
  P   P229      1.0  0.94960  0.52467  0.35358  1.0000
  C   C6813     1.0  0.94909  0.56147  0.32433  1.0000
  H   H5466     1.0  0.92687  0.58985  0.33129  1.0000
  C   C6814     1.0  0.89347  0.60015  0.33854  1.0000
  P   P230      1.0  0.91814  0.58161  0.31558  1.0000
  H   H5467     1.0  0.99413  0.64784  0.45590  1.0000
  H   H5468     1.0  0.98278  0.54388  0.33170  1.0000
  C   C6815     1.0  0.98128  0.63424  0.41569  1.0000
  C   C6816     1.0  0.99173  0.69685  0.47751  1.0000
  H   H5469     1.0  0.94453  0.58241  0.33961  1.0000
  C   C6817     1.0  0.94383  0.51379  0.35077  1.0000
  C   C6818     1.0  0.93076  0.57569  0.32225  1.0000
  H   H5470     1.0  0.98082  0.50240  0.36298  1.0000
  C   C6819     1.0  0.96828  0.66445  0.36582  1.0000
  C   C6820     1.0  0.98225  0.62443  0.41136  1.0000
  H   H5471     1.0  0.98991  0.65285  0.39006  1.0000
  C   C6821     1.0  0.93904  0.56551  0.31971  1.0000
  H   H5472     1.0  0.90267  0.60235  0.30430  1.0000
  H   H5473     1.0  0.99247  0.70323  0.46933  1.0000
  C   C6822     1.0  0.98242  0.66002  0.34824  1.0000
  C   C6823     1.0  0.97473  0.65498  0.37267  1.0000
  H   H5474     1.0  0.96709  0.52735  0.38474  1.0000
  C   C6824     1.0  0.91166  0.60324  0.30064  1.0000
  C   C6825     1.0  0.95986  0.51563  0.26272  1.0000
  H   H5475     1.0  0.95877  0.56428  0.33525  1.0000
  H   H5476     1.0  0.92546  0.52269  0.35509  1.0000
  C   C6826     1.0  0.98243  0.69119  0.48140  1.0000
  H   H5477     1.0  0.96917  0.52930  0.31144  1.0000
  H   H5478     1.0  0.93656  0.53319  0.24683  1.0000
  H   H5479     1.0  0.97209  0.60799  0.37358  1.0000
  Fe  Fe463     1.0  0.97885  0.70621  0.45552  1.0000
  C   C6827     1.0  0.98717  0.56610  0.39875  1.0000
  C   C6828     1.0  0.92913  0.57264  0.25021  1.0000
  C   C6829     1.0  0.97010  0.51986  0.25772  1.0000
  H   H5480     1.0  0.96925  0.50620  0.39421  1.0000
  H   H5481     1.0  0.97889  0.63376  0.42507  1.0000
  H   H5482     1.0  0.93916  0.72256  0.47318  1.0000
  C   C6830     1.0  0.96159  0.50245  0.38212  1.0000
  C   C6831     1.0  0.94823  0.59457  0.24399  1.0000
  C   C6832     1.0  0.91029  0.52043  0.24833  1.0000
  C   C6833     1.0  0.97214  0.66699  0.35361  1.0000
  H   H5483     1.0  0.98177  0.52608  0.24165  1.0000
  C   C6834     1.0  0.99469  0.65681  0.42889  1.0000
  H   H5484     1.0  0.91806  0.50823  0.35018  1.0000
  C   C6835     1.0  0.92941  0.52939  0.24716  1.0000
  H   H5485     1.0  0.98927  0.65999  0.48712  1.0000
  C   C6836     1.0  0.97810  0.57497  0.39472  1.0000
  H   H5486     1.0  0.96962  0.53278  0.43423  1.0000
  H   H5487     1.0  0.91471  0.58755  0.24786  1.0000
  C   C6837     1.0  0.92854  0.50331  0.28529  1.0000
  C   C6838     1.0  0.95661  0.60104  0.25626  1.0000
  C   C6839     1.0  0.98754  0.59269  0.27057  1.0000
  S   S921      1.0  0.99181  0.72495  0.42573  1.0000
  C   C6840     1.0  0.99004  0.60439  0.36396  1.0000
  H   H5488     1.0  0.98388  0.50706  0.41526  1.0000
  C   C6841     1.0  0.93678  0.56324  0.24550  1.0000
  H   H5489     1.0  0.96712  0.67433  0.34832  1.0000
  H   H5490     1.0  0.90291  0.51696  0.24871  1.0000
  H   H5491     1.0  0.94327  0.55724  0.25014  1.0000
  H   H5492     1.0  0.97142  0.65305  0.38208  1.0000
  C   C6842     1.0  0.93520  0.49742  0.34517  1.0000
  C   C6843     1.0  0.98346  0.54213  0.42607  1.0000
  H   H5493     1.0  0.97556  0.74206  0.46910  1.0000
  H   H5494     1.0  0.96675  0.55083  0.24261  1.0000
  C   C6844     1.0  0.99123  0.65515  0.47096  1.0000
  C   C6845     1.0  0.95764  0.51644  0.24332  1.0000
  H   H5495     1.0  0.97735  0.55052  0.42448  1.0000
  C   C6846     1.0  0.99226  0.65283  0.48257  1.0000
  C   C6847     1.0  0.98521  0.64810  0.36735  1.0000
  C   C6848     1.0  0.94955  0.73540  0.46438  1.0000
  C   C6849     1.0  0.96619  0.60279  0.24691  1.0000
  H   H5496     1.0  0.98038  0.73465  0.48849  1.0000
  C   C6850     1.0  0.99560  0.68064  0.42128  1.0000
  C   C6851     1.0  0.94724  0.49585  0.34402  1.0000
  H   H5497     1.0  0.98535  0.66192  0.33877  1.0000
  C   C6852     1.0  0.99250  0.62308  0.37168  1.0000
  H   H5498     1.0  0.97315  0.60597  0.24804  1.0000
  C   C6853     1.0  0.97401  0.52254  0.24553  1.0000
  C   C6854     1.0  0.97186  0.49495  0.32204  1.0000
  C   C6855     1.0  0.98708  0.51026  0.40598  1.0000
  H   H5499     1.0  0.96251  0.49322  0.38624  1.0000
  H   H5500     1.0  0.92859  0.49504  0.28357  1.0000
  S   S922      1.0  0.98725  0.54200  0.38441  1.0000
  C   C6856     1.0  0.94407  0.49392  0.26162  1.0000
  H   H5501     1.0  0.99308  0.59104  0.30611  1.0000
  C   C6857     1.0  0.98993  0.52666  0.38951  1.0000
  C   C6858     1.0  0.94203  0.72992  0.47392  1.0000
  H   H5502     1.0  0.95235  0.73240  0.45621  1.0000
  C   C6859     1.0  0.99542  0.51877  0.38204  1.0000
  C   C6860     1.0  0.93810  0.73407  0.48429  1.0000
  C   C6861     1.0  0.99207  0.50235  0.39856  1.0000
  H   H5503     1.0  0.98327  0.51327  0.43769  1.0000
  H   H5504     1.0  0.99202  0.55962  0.39355  1.0000
  C   C6862     1.0  0.99565  0.54125  0.42242  1.0000
  Fe  Fe464     1.0  0.96978  0.52550  0.70249  1.0000
  S   S923      1.0  0.98800  0.64513  0.55149  1.0000
  S   S924      1.0  0.96688  0.53908  0.71304  1.0000
  C   C6863     1.0  0.98417  0.64774  0.51104  1.0000
  H   H5505     1.0  0.97271  0.64808  0.50012  1.0000
  S   S925      1.0  0.97680  0.53937  0.65992  1.0000
  H   H5506     1.0  0.98742  0.62036  0.49888  1.0000
  P   P231      1.0  0.98504  0.56156  0.54491  1.0000
  C   C6864     1.0  0.98284  0.59486  0.55717  1.0000
  S   S926      1.0  0.95840  0.53007  0.68960  1.0000
  H   H5507     1.0  0.96721  0.60228  0.55032  1.0000
  H   H5508     1.0  0.96816  0.58452  0.54375  1.0000
  C   C6865     1.0  0.91631  0.50161  0.72261  1.0000
  C   C6866     1.0  0.94940  0.50141  0.66464  1.0000
  H   H5509     1.0  0.97519  0.66072  0.53451  1.0000
  H   H5510     1.0  0.98288  0.58612  0.73448  1.0000
  S   S927      1.0  0.98000  0.69986  0.55559  1.0000
  H   H5511     1.0  0.97457  0.52305  0.61816  1.0000
  C   C6867     1.0  0.97635  0.72790  0.52987  1.0000
  C   C6868     1.0  0.95734  0.49985  0.74041  1.0000
  C   C6869     1.0  0.97441  0.56612  0.71082  1.0000
  C   C6870     1.0  0.96368  0.65823  0.51318  1.0000
  P   P232      1.0  0.98748  0.56371  0.72715  1.0000
  S   S928      1.0  0.98644  0.52209  0.68893  1.0000
  H   H5512     1.0  0.97577  0.55429  0.63771  1.0000
  H   H5513     1.0  0.96478  0.72627  0.54698  1.0000
  C   C6871     1.0  0.98726  0.49757  0.60876  1.0000
  H   H5514     1.0  0.98364  0.55121  0.61747  1.0000
  P   P233      1.0  0.99220  0.72941  0.50799  1.0000
  H   H5515     1.0  0.96696  0.58335  0.72660  1.0000
  C   C6872     1.0  0.97349  0.65104  0.50741  1.0000
  C   C6873     1.0  0.97758  0.51370  0.61855  1.0000
  C   C6874     1.0  0.97477  0.58446  0.54815  1.0000
  H   H5516     1.0  0.97380  0.69638  0.51373  1.0000
  C   C6875     1.0  0.93981  0.49961  0.66181  1.0000
  H   H5517     1.0  0.92257  0.49618  0.69717  1.0000
  C   C6876     1.0  0.97344  0.56651  0.73730  1.0000
  H   H5518     1.0  0.95555  0.66095  0.51018  1.0000
  C   C6877     1.0  0.99046  0.53796  0.57539  1.0000
  C   C6878     1.0  0.98467  0.56784  0.71257  1.0000
  H   H5519     1.0  0.97720  0.52067  0.73089  1.0000
  H   H5520     1.0  0.96401  0.56820  0.69842  1.0000
  C   C6879     1.0  0.96106  0.56283  0.55333  1.0000
  C   C6880     1.0  0.98260  0.71032  0.51063  1.0000
  H   H5521     1.0  0.97105  0.71447  0.57216  1.0000
  C   C6881     1.0  0.98509  0.54394  0.62480  1.0000
  H   H5522     1.0  0.96807  0.49843  0.66131  1.0000
  C   C6882     1.0  0.98942  0.68113  0.49931  1.0000
  C   C6883     1.0  0.98301  0.50961  0.60824  1.0000
  S   S929      1.0  0.96813  0.50675  0.70835  1.0000
  C   C6884     1.0  0.96083  0.49651  0.65925  1.0000
  C   C6885     1.0  0.95840  0.55591  0.53434  1.0000
  H   H5523     1.0  0.94012  0.55769  0.54309  1.0000
  C   C6886     1.0  0.96973  0.73190  0.53999  1.0000
  C   C6887     1.0  0.96967  0.52640  0.73518  1.0000
  C   C6888     1.0  0.97080  0.56056  0.54413  1.0000
  H   H5524     1.0  0.92700  0.51080  0.72647  1.0000
  C   C6889     1.0  0.95002  0.56186  0.55291  1.0000
  C   C6890     1.0  0.94867  0.55845  0.54340  1.0000
  H   H5525     1.0  0.98721  0.62341  0.56777  1.0000
  H   H5526     1.0  0.96477  0.49659  0.73387  1.0000
  C   C6891     1.0  0.98313  0.73489  0.52085  1.0000
  C   C6892     1.0  0.96287  0.53568  0.72846  1.0000
  H   H5527     1.0  0.98080  0.55295  0.67889  1.0000
  H   H5528     1.0  0.93857  0.49285  0.73696  1.0000
  H   H5529     1.0  0.96200  0.56533  0.56084  1.0000
  H   H5530     1.0  0.97233  0.50920  0.63728  1.0000
  C   C6893     1.0  0.96500  0.57688  0.73459  1.0000
  C   C6894     1.0  0.99358  0.54740  0.68963  1.0000
  H   H5531     1.0  0.97635  0.71918  0.52943  1.0000
  C   C6895     1.0  0.96435  0.66184  0.52286  1.0000
  H   H5532     1.0  0.97692  0.55463  0.52775  1.0000
  C   C6896     1.0  0.99336  0.54039  0.72474  1.0000
  C   C6897     1.0  0.98237  0.53636  0.64584  1.0000
  H   H5533     1.0  0.95675  0.66732  0.52742  1.0000
  C   C6898     1.0  0.97639  0.50580  0.62940  1.0000
  C   C6899     1.0  0.99167  0.53296  0.62281  1.0000
  S   S930      1.0  0.94081  0.50679  0.69644  1.0000
  Fe  Fe465     1.0  0.98398  0.50363  0.69375  1.0000
  H   H5534     1.0  0.94797  0.55037  0.72891  1.0000
  S   S931      1.0  0.97399  0.50646  0.67982  1.0000
  C   C6900     1.0  0.99007  0.54841  0.55523  1.0000
  H   H5535     1.0  0.98702  0.70598  0.51780  1.0000
  H   H5536     1.0  0.99001  0.51796  0.65130  1.0000
  H   H5537     1.0  0.97740  0.73097  0.57480  1.0000
  Fe  Fe466     1.0  0.97497  0.52530  0.67640  1.0000
  H   H5538     1.0  0.94251  0.56369  0.56001  1.0000
  C   C6901     1.0  0.98420  0.72137  0.50383  1.0000
  H   H5539     1.0  0.95739  0.55313  0.52703  1.0000
  C   C6902     1.0  0.99188  0.73060  0.55978  1.0000
  C   C6903     1.0  0.97866  0.71731  0.56615  1.0000
  C   C6904     1.0  0.97481  0.65823  0.52678  1.0000
  H   H5540     1.0  0.98847  0.67517  0.50780  1.0000
  C   C6905     1.0  0.96945  0.55687  0.53473  1.0000
  Fe  Fe467     1.0  0.95826  0.51101  0.69409  1.0000
  C   C6906     1.0  0.97421  0.59457  0.55181  1.0000
  C   C6907     1.0  0.99486  0.71516  0.54938  1.0000
  C   C6908     1.0  0.99210  0.58510  0.55875  1.0000
  C   C6909     1.0  0.98472  0.65126  0.52088  1.0000
  C   C6910     1.0  0.97514  0.70482  0.50832  1.0000
  C   C6911     1.0  0.96980  0.70993  0.49877  1.0000
  H   H5541     1.0  0.99324  0.59161  0.52795  1.0000
  C   C6912     1.0  0.98063  0.54568  0.63626  1.0000
  C   C6913     1.0  0.98502  0.71143  0.55712  1.0000
  S   S932      1.0  0.98674  0.67821  0.53498  1.0000
  C   C6914     1.0  0.99540  0.53779  0.55154  1.0000
  H   H5542     1.0  0.96845  0.56177  0.71803  1.0000
  H   H5543     1.0  0.98786  0.54324  0.71842  1.0000
  C   C6915     1.0  0.98220  0.72669  0.56760  1.0000
  H   H5544     1.0  0.94746  0.58692  0.73999  1.0000
  C   C6916     1.0  0.95050  0.51121  0.73778  1.0000
  C   C6917     1.0  0.98957  0.60540  0.51301  1.0000
  H   H5545     1.0  0.96436  0.70544  0.49673  1.0000
  H   H5546     1.0  0.94799  0.50669  0.67100  1.0000
  C   C6918     1.0  0.98394  0.57453  0.54994  1.0000
  H   H5547     1.0  0.98860  0.53801  0.58466  1.0000
  H   H5548     1.0  0.99180  0.49441  0.60080  1.0000
  C   C6919     1.0  0.95315  0.54309  0.73407  1.0000
  H   H5549     1.0  0.98171  0.57683  0.52239  1.0000
  C   C6920     1.0  0.98736  0.54835  0.56727  1.0000
  H   H5550     1.0  0.98704  0.54804  0.69769  1.0000
  H   H5551     1.0  0.98250  0.60276  0.55983  1.0000
  H   H5552     1.0  0.93204  0.72999  0.49159  1.0000
  C   C6921     1.0  0.98869  0.52521  0.64392  1.0000
  H   H5553     1.0  0.99538  0.54989  0.66074  1.0000
  C   C6922     1.0  0.97184  0.56981  0.69970  1.0000
  C   C6923     1.0  0.97903  0.72632  0.49408  1.0000
  C   C6924     1.0  0.92511  0.50235  0.72748  1.0000
  C   C6925     1.0  0.94166  0.49296  0.65350  1.0000
  C   C6926     1.0  0.99456  0.54832  0.73053  1.0000
  C   C6927     1.0  0.99354  0.52356  0.63237  1.0000
  H   H5554     1.0  0.95264  0.51679  0.72918  1.0000
  H   H5555     1.0  0.98424  0.51580  0.59990  1.0000
  C   C6928     1.0  0.99246  0.57303  0.70296  1.0000
  H   H5556     1.0  0.98822  0.49435  0.72867  1.0000
  C   C6929     1.0  0.99027  0.61690  0.50706  1.0000
  C   C6930     1.0  0.99007  0.55021  0.67901  1.0000
  C   C6931     1.0  0.98989  0.57667  0.69181  1.0000
  H   H5557     1.0  0.99513  0.58026  0.50286  1.0000
  C   C6932     1.0  0.97954  0.57514  0.69020  1.0000
  H   H5558     1.0  0.95687  0.74171  0.49871  1.0000
  Fe  Fe468     1.0  0.99270  0.68591  0.54647  1.0000
  H   H5559     1.0  0.98667  0.60004  0.50915  1.0000
  H   H5560     1.0  0.91142  0.50949  0.71781  1.0000
  H   H5561     1.0  0.99272  0.64850  0.52414  1.0000
  H   H5562     1.0  0.97760  0.57782  0.68155  1.0000
  C   C6933     1.0  0.99064  0.57165  0.52112  1.0000
  C   C6934     1.0  0.99272  0.57502  0.55504  1.0000
  H   H5563     1.0  0.93097  0.50342  0.66607  1.0000
  H   H5564     1.0  0.95692  0.74218  0.51877  1.0000
  C   C6935     1.0  0.98045  0.49367  0.63000  1.0000
  H   H5565     1.0  0.98285  0.55630  0.57045  1.0000
  C   C6936     1.0  0.99478  0.62365  0.51161  1.0000
  H   H5566     1.0  0.99352  0.59061  0.59292  1.0000
  C   C6937     1.0  0.98128  0.68323  0.49230  1.0000
  C   C6938     1.0  0.99317  0.60067  0.52363  1.0000
  C   C6939     1.0  0.99475  0.56333  0.53054  1.0000
  C   C6940     1.0  0.99498  0.62193  0.56086  1.0000
  C   C6941     1.0  0.99225  0.58307  0.73161  1.0000
  H   H5567     1.0  0.97402  0.67889  0.49538  1.0000
  C   C6942     1.0  0.97195  0.72055  0.49150  1.0000
  Fe  Fe469     1.0  0.55784  0.61291  0.95839  1.0000
  S   S933      1.0  0.53882  0.61787  0.96704  1.0000
  S   S934      1.0  0.56525  0.61951  0.93921  1.0000
  C   C6943     1.0  0.51471  0.68148  0.94647  1.0000
  C   C6944     1.0  0.69809  0.56295  0.97684  1.0000
  C   C6945     1.0  0.52568  0.69765  0.91494  1.0000
  C   C6946     1.0  0.63251  0.69201  0.96652  1.0000
  C   C6947     1.0  0.73485  0.55580  0.97175  1.0000
  C   C6948     1.0  0.68165  0.57885  0.97246  1.0000
  C   C6949     1.0  0.93831  0.50846  0.75754  1.0000
  S   S935      1.0  0.55903  0.59349  0.96458  1.0000
  C   C6950     1.0  0.89481  0.52514  0.97568  1.0000
  H   H5568     1.0  0.91334  0.51204  0.95782  1.0000
  Fe  Fe470     1.0  0.58693  0.70111  0.91270  1.0000
  S   S936      1.0  0.56790  0.70824  0.91983  1.0000
  S   S937      1.0  0.59940  0.71213  0.90072  1.0000
  Fe  Fe471     1.0  0.58555  0.67600  0.92454  1.0000
  S   S938      1.0  0.56650  0.68094  0.93291  1.0000
  S   S939      1.0  0.59589  0.65731  0.92618  1.0000
  Fe  Fe472     1.0  0.56474  0.69287  0.91552  1.0000
  S   S940      1.0  0.54962  0.69378  0.90787  1.0000
  Fe  Fe473     1.0  0.57114  0.69586  0.93661  1.0000
  S   S941      1.0  0.56190  0.70196  0.95332  1.0000
  S   S942      1.0  0.58355  0.68679  0.90670  1.0000
  S   S943      1.0  0.59053  0.68982  0.92988  1.0000
  C   C6951     1.0  0.74565  0.54911  0.96698  1.0000
  H   H5569     1.0  0.54727  0.64939  0.95385  1.0000
  S   S944      1.0  0.72461  0.53734  0.94987  1.0000
  Fe  Fe474     1.0  0.74428  0.50641  0.95802  1.0000
  S   S945      1.0  0.74326  0.51515  0.93943  1.0000
  C   C6952     1.0  0.56270  0.66924  0.96341  1.0000
  Fe  Fe475     1.0  0.74424  0.53123  0.94441  1.0000
  S   S946      1.0  0.75511  0.54385  0.93239  1.0000
  Fe  Fe476     1.0  0.72391  0.52021  0.94686  1.0000
  S   S947      1.0  0.71057  0.51654  0.93965  1.0000
  C   C6953     1.0  0.60247  0.61993  0.94412  1.0000
  S   S948      1.0  0.98580  0.52878  0.76594  1.0000
  Fe  Fe477     1.0  0.81073  0.53736  0.95429  1.0000
  C   C6954     1.0  0.85271  0.49701  0.90426  1.0000
  S   S949      1.0  0.79996  0.55175  0.94300  1.0000
  Fe  Fe478     1.0  0.83583  0.52584  0.95731  1.0000
  H   H5570     1.0  0.54333  0.70584  0.92695  1.0000
  S   S950      1.0  0.85516  0.52552  0.95111  1.0000
  Fe  Fe479     1.0  0.81718  0.51165  0.96523  1.0000
  S   S951      1.0  0.82430  0.52238  0.94778  1.0000
  S   S952      1.0  0.82299  0.54199  0.96207  1.0000
  C   C6955     1.0  0.52445  0.70928  0.93218  1.0000
  Fe  Fe480     1.0  0.97381  0.53140  0.79869  1.0000
  C   C6956     1.0  0.97058  0.55820  0.74762  1.0000
  S   S953      1.0  0.96504  0.53652  0.81606  1.0000
  Fe  Fe481     1.0  0.96746  0.52982  0.77649  1.0000
  C   C6957     1.0  0.91867  0.55331  0.76628  1.0000
  S   S954      1.0  0.95294  0.53009  0.76844  1.0000
  S   S955      1.0  0.99003  0.56015  0.76464  1.0000
  H   H5571     1.0  0.57510  0.57056  0.97375  1.0000
  H   H5572     1.0  0.57384  0.66514  0.91603  1.0000
  S   S956      1.0  0.97199  0.51658  0.79233  1.0000
  S   S957      1.0  0.96717  0.54479  0.78383  1.0000
  H   H5573     1.0  0.70747  0.55929  0.97562  1.0000
  H   H5574     1.0  0.52395  0.71360  0.93900  1.0000
  C   C6958     1.0  0.59319  0.63739  0.98437  1.0000
  C   C6959     1.0  0.91633  0.54929  0.75767  1.0000
  H   H5575     1.0  0.61116  0.54872  0.98822  1.0000
  C   C6960     1.0  0.87443  0.49315  0.98715  1.0000
  Fe  Fe482     1.0  0.81615  0.52974  0.97841  1.0000
  C   C6961     1.0  0.77623  0.54136  0.98731  1.0000
  H   H5576     1.0  0.51998  0.64612  0.90558  1.0000
  C   C6962     1.0  0.62529  0.71803  0.91734  1.0000
  H   H5577     1.0  0.53034  0.74006  0.96404  1.0000
  C   C6963     1.0  0.96763  0.51421  0.85264  1.0000
  C   C6964     1.0  0.97427  0.50952  0.84286  1.0000
  C   C6965     1.0  0.97364  0.51618  0.83143  1.0000
  C   C6966     1.0  0.96633  0.52748  0.82989  1.0000
  C   C6967     1.0  0.95968  0.53201  0.83972  1.0000
  C   C6968     1.0  0.96038  0.52546  0.85102  1.0000
  H   H5578     1.0  0.94701  0.53227  0.80739  1.0000
  H   H5579     1.0  0.97884  0.51265  0.82385  1.0000
  H   H5580     1.0  0.95405  0.54073  0.83857  1.0000
  H   H5581     1.0  0.95532  0.52916  0.85852  1.0000
  C   C6969     1.0  0.86346  0.51105  0.95209  1.0000
  C   C6970     1.0  0.85838  0.50213  0.95201  1.0000
  C   C6971     1.0  0.95392  0.57891  0.74213  1.0000
  C   C6972     1.0  0.87525  0.50841  0.95281  1.0000
  H   H5582     1.0  0.84925  0.50410  0.95159  1.0000
  C   C6973     1.0  0.67048  0.49303  0.94958  1.0000
  H   H5583     1.0  0.87918  0.51529  0.95293  1.0000
  C   C6974     1.0  0.76724  0.54582  0.93618  1.0000
  C   C6975     1.0  0.77221  0.55529  0.92949  1.0000
  C   C6976     1.0  0.78212  0.55704  0.93183  1.0000
  C   C6977     1.0  0.78732  0.54921  0.94074  1.0000
  C   C6978     1.0  0.78237  0.53971  0.94755  1.0000
  C   C6979     1.0  0.77223  0.53810  0.94535  1.0000
  H   H5584     1.0  0.76838  0.56130  0.92243  1.0000
  H   H5585     1.0  0.78586  0.56441  0.92660  1.0000
  H   H5586     1.0  0.78633  0.53363  0.95447  1.0000
  H   H5587     1.0  0.76839  0.53085  0.95062  1.0000
  C   C6980     1.0  0.53603  0.69906  0.91672  1.0000
  C   C6981     1.0  0.53541  0.70483  0.92540  1.0000
  C   C6982     1.0  0.56115  0.62981  0.87384  1.0000
  C   C6983     1.0  0.56952  0.69547  0.96463  1.0000
  C   C6984     1.0  0.58168  0.69106  0.96214  1.0000
  C   C6985     1.0  0.58746  0.68510  0.97130  1.0000
  C   C6986     1.0  0.51135  0.60882  0.98375  1.0000
  S   S958      1.0  0.60594  0.53430  0.97566  1.0000
  C   C6987     1.0  0.62585  0.58762  0.95940  1.0000
  H   H5588     1.0  0.58662  0.69221  0.95319  1.0000
  H   H5589     1.0  0.59682  0.68172  0.96936  1.0000
  H   H5590     1.0  0.50046  0.66555  0.98044  1.0000
  H   H5591     1.0  0.58336  0.62568  0.96917  1.0000
  C   C6988     1.0  0.67410  0.53073  0.96030  1.0000
  C   C6989     1.0  0.68227  0.53783  0.95553  1.0000
  C   C6990     1.0  0.69354  0.53338  0.94937  1.0000
  C   C6991     1.0  0.69651  0.52197  0.94754  1.0000
  C   C6992     1.0  0.68827  0.51492  0.95210  1.0000
  C   C6993     1.0  0.67708  0.51925  0.95862  1.0000
  C   C6994     1.0  0.50415  0.73573  0.89827  1.0000
  H   H5592     1.0  0.69987  0.53885  0.94584  1.0000
  H   H5593     1.0  0.69064  0.50606  0.95078  1.0000
  H   H5594     1.0  0.91730  0.56264  0.76562  1.0000
  C   C6995     1.0  0.52410  0.68598  0.98161  1.0000
  H   H5595     1.0  0.92863  0.52718  0.78352  1.0000
  C   C6996     1.0  0.52254  0.67448  0.98420  1.0000
  H   H5596     1.0  0.85926  0.54172  0.92650  1.0000
  C   C6997     1.0  0.89125  0.51541  0.76899  1.0000
  C   C6998     1.0  0.57351  0.63019  0.93581  1.0000
  C   C6999     1.0  0.58218  0.63105  0.92542  1.0000
  C   C7000     1.0  0.58910  0.63930  0.92260  1.0000
  C   C7001     1.0  0.58701  0.64712  0.92987  1.0000
  C   C7002     1.0  0.57809  0.64652  0.94009  1.0000
  C   C7003     1.0  0.57157  0.63783  0.94324  1.0000
  H   H5597     1.0  0.58372  0.62516  0.91966  1.0000
  H   H5598     1.0  0.59597  0.63975  0.91469  1.0000
  H   H5599     1.0  0.57653  0.65247  0.94577  1.0000
  H   H5600     1.0  0.56518  0.63693  0.95145  1.0000
  H   H5601     1.0  0.79395  0.49962  0.98486  1.0000
  H   H5602     1.0  0.90076  0.52084  0.92619  1.0000
  H   H5603     1.0  0.95911  0.51019  0.91175  1.0000
  H   H5604     1.0  0.51044  0.67129  0.87712  1.0000
  S   S959      1.0  0.72488  0.51035  0.96519  1.0000
  H   H5605     1.0  0.94260  0.57207  0.75823  1.0000
  C   C7004     1.0  0.69030  0.55610  0.98419  1.0000
  C   C7005     1.0  0.56901  0.68813  0.98543  1.0000
  H   H5606     1.0  0.88263  0.51963  0.77334  1.0000
  H   H5607     1.0  0.96707  0.49381  0.92647  1.0000
  H   H5608     1.0  0.62984  0.67850  0.98213  1.0000
  H   H5609     1.0  0.90060  0.52565  0.94464  1.0000
  C   C7006     1.0  0.58878  0.55464  0.97454  1.0000
  C   C7007     1.0  0.95008  0.54116  0.74633  1.0000
  C   C7008     1.0  0.93123  0.50644  0.82057  1.0000
  H   H5610     1.0  0.50281  0.58816  0.97624  1.0000
  P   P234      1.0  0.91323  0.50033  0.91575  1.0000
  C   C7009     1.0  0.89912  0.50582  0.91182  1.0000
  C   C7010     1.0  0.92478  0.50623  0.90480  1.0000
  C   C7011     1.0  0.92223  0.51751  0.89773  1.0000
  C   C7012     1.0  0.93126  0.52220  0.88947  1.0000
  H   H5611     1.0  0.96465  0.49653  0.80950  1.0000
  H   H5612     1.0  0.88907  0.50520  0.92969  1.0000
  C   C7013     1.0  0.93651  0.49991  0.90382  1.0000
  C   C7014     1.0  0.89836  0.50768  0.90011  1.0000
  C   C7015     1.0  0.88738  0.51129  0.89715  1.0000
  C   C7016     1.0  0.91845  0.53723  0.75833  1.0000
  C   C7017     1.0  0.91979  0.49854  0.79021  1.0000
  C   C7018     1.0  0.88875  0.50720  0.92054  1.0000
  H   H5613     1.0  0.51313  0.66712  0.93124  1.0000
  C   C7019     1.0  0.55945  0.72917  0.89322  1.0000
  C   C7020     1.0  0.96986  0.49286  0.81608  1.0000
  H   H5614     1.0  0.92837  0.53348  0.80227  1.0000
  H   H5615     1.0  0.55263  0.62766  0.89203  1.0000
  C   C7021     1.0  0.55802  0.55674  0.98922  1.0000
  H   H5616     1.0  0.51487  0.64631  0.98421  1.0000
  C   C7022     1.0  0.98568  0.50036  0.89482  1.0000
  C   C7023     1.0  0.88192  0.49682  0.95363  1.0000
  H   H5617     1.0  0.91332  0.52275  0.89868  1.0000
  P   P235      1.0  0.51650  0.69710  0.97144  1.0000
  C   C7024     1.0  0.60341  0.55343  0.98495  1.0000
  H   H5618     1.0  0.67830  0.58768  0.96792  1.0000
  H   H5619     1.0  0.90625  0.50619  0.89330  1.0000
  H   H5620     1.0  0.88685  0.51272  0.88810  1.0000
  H   H5621     1.0  0.51632  0.67249  0.98068  1.0000
  H   H5622     1.0  0.60080  0.74246  0.93982  1.0000
  H   H5623     1.0  0.50995  0.65423  0.96513  1.0000
  H   H5624     1.0  0.63422  0.58452  0.95381  1.0000
  H   H5625     1.0  0.56907  0.63445  0.85545  1.0000
  C   C7025     1.0  0.84135  0.55123  0.93085  1.0000
  C   C7026     1.0  0.52652  0.67752  0.94142  1.0000
  C   C7027     1.0  0.62570  0.68617  0.97646  1.0000
  H   H5626     1.0  0.52345  0.69386  0.88942  1.0000
  H   H5627     1.0  0.51908  0.61095  0.98450  1.0000
  C   C7028     1.0  0.78025  0.50447  0.95053  1.0000
  H   H5628     1.0  0.76759  0.51657  0.94100  1.0000
  H   H5629     1.0  0.60393  0.61478  0.93769  1.0000
  H   H5630     1.0  0.58160  0.65881  0.89722  1.0000
  C   C7029     1.0  0.60953  0.62775  0.94243  1.0000
  C   C7030     1.0  0.54903  0.65966  0.91327  1.0000
  C   C7031     1.0  0.60803  0.69990  0.97162  1.0000
  H   H5631     1.0  0.77977  0.51039  0.95594  1.0000
  H   H5632     1.0  0.55315  0.66561  0.92641  1.0000
  H   H5633     1.0  0.76191  0.49500  0.98046  1.0000
  C   C7032     1.0  0.55172  0.64607  0.88367  1.0000
  C   C7033     1.0  0.62058  0.72136  0.92813  1.0000
  C   C7034     1.0  0.51791  0.72944  0.97409  1.0000
  C   C7035     1.0  0.96685  0.52474  0.74751  1.0000
  H   H5634     1.0  0.75101  0.51321  0.98724  1.0000
  C   C7036     1.0  0.52471  0.66278  0.88595  1.0000
  P   P236      1.0  0.50366  0.64731  0.94677  1.0000
  C   C7037     1.0  0.56773  0.72826  0.96023  1.0000
  C   C7038     1.0  0.90338  0.50325  0.75536  1.0000
  H   H5635     1.0  0.52026  0.62417  0.95098  1.0000
  C   C7039     1.0  0.49901  0.66939  0.91015  1.0000
  C   C7040     1.0  0.83117  0.53963  0.87551  1.0000
  H   H5636     1.0  0.58757  0.61317  0.95511  1.0000
  H   H5637     1.0  0.92199  0.50047  0.75319  1.0000
  C   C7041     1.0  0.92789  0.50502  0.78260  1.0000
  H   H5638     1.0  0.76828  0.50278  0.92915  1.0000
  C   C7042     1.0  0.49856  0.65892  0.98830  1.0000
  H   H5639     1.0  0.61259  0.64110  0.94864  1.0000
  H   H5640     1.0  0.50240  0.69065  0.95903  1.0000
  C   C7043     1.0  0.68427  0.50046  0.93235  1.0000
  C   C7044     1.0  0.61673  0.66380  0.96799  1.0000
  C   C7045     1.0  0.91253  0.51142  0.76561  1.0000
  H   H5641     1.0  0.62392  0.67650  0.95348  1.0000
  H   H5642     1.0  0.61659  0.62859  0.93472  1.0000
  C   C7046     1.0  0.90134  0.51684  0.77126  1.0000
  H   H5643     1.0  0.97895  0.54080  0.84161  1.0000
  C   C7047     1.0  0.93863  0.50374  0.78552  1.0000
  C   C7048     1.0  0.95456  0.49269  0.75148  1.0000
  H   H5644     1.0  0.50783  0.68007  0.94339  1.0000
  H   H5645     1.0  0.61486  0.59848  0.98419  1.0000
  C   C7049     1.0  0.52035  0.69040  0.95898  1.0000
  S   S960      1.0  0.80274  0.52643  0.97104  1.0000
  C   C7050     1.0  0.53903  0.64888  0.95252  1.0000
  S   S961      1.0  0.82988  0.51383  0.97428  1.0000
  H   H5646     1.0  0.88340  0.49333  0.98665  1.0000
  H   H5647     1.0  0.52891  0.65506  0.96808  1.0000
  H   H5648     1.0  0.52708  0.61379  0.93058  1.0000
  H   H5649     1.0  0.67078  0.51374  0.96232  1.0000
  H   H5650     1.0  0.49753  0.71460  0.96256  1.0000
  H   H5651     1.0  0.50678  0.70086  0.92043  1.0000
  C   C7051     1.0  0.59839  0.62537  0.98716  1.0000
  C   C7052     1.0  0.65415  0.55551  0.99067  1.0000
  C   C7053     1.0  0.51081  0.61141  0.95215  1.0000
  C   C7054     1.0  0.50654  0.64813  0.99029  1.0000
  C   C7055     1.0  0.54703  0.56434  0.98888  1.0000
  C   C7056     1.0  0.52863  0.65212  0.96056  1.0000
  C   C7057     1.0  0.51593  0.68362  0.88292  1.0000
  C   C7058     1.0  0.59317  0.61911  0.95389  1.0000
  C   C7059     1.0  0.62338  0.70787  0.91571  1.0000
  C   C7060     1.0  0.69377  0.57430  0.97090  1.0000
  H   H5652     1.0  0.99069  0.50208  0.88586  1.0000
  Fe  Fe483     1.0  0.62258  0.52430  0.98206  1.0000
  H   H5653     1.0  0.58797  0.55798  0.94784  1.0000
  H   H5654     1.0  0.64228  0.56551  0.96658  1.0000
  C   C7061     1.0  0.75261  0.54100  0.97436  1.0000
  H   H5655     1.0  0.97089  0.51444  0.89137  1.0000
  C   C7062     1.0  0.92065  0.49959  0.94671  1.0000
  C   C7063     1.0  0.91306  0.50403  0.92916  1.0000
  C   C7064     1.0  0.50789  0.66486  0.92678  1.0000
  H   H5656     1.0  0.95731  0.55372  0.76297  1.0000
  H   H5657     1.0  0.90419  0.49805  0.74912  1.0000
  C   C7065     1.0  0.94747  0.51507  0.81863  1.0000
  S   S962      1.0  0.56432  0.61451  0.97323  1.0000
  C   C7066     1.0  0.90265  0.50969  0.99075  1.0000
  H   H5658     1.0  0.79092  0.54970  0.98068  1.0000
  C   C7067     1.0  0.84459  0.53800  0.98105  1.0000
  C   C7068     1.0  0.94314  0.50512  0.84994  1.0000
  H   H5659     1.0  0.68636  0.50739  0.92484  1.0000
  C   C7069     1.0  0.55645  0.66283  0.91815  1.0000
  C   C7070     1.0  0.49670  0.73958  0.94699  1.0000
  H   H5660     1.0  0.66180  0.49412  0.95531  1.0000
  H   H5661     1.0  0.49587  0.73759  0.89569  1.0000
  H   H5662     1.0  0.93561  0.49798  0.87976  1.0000
  C   C7071     1.0  0.56887  0.64620  0.97574  1.0000
  C   C7072     1.0  0.51461  0.71887  0.97586  1.0000
  C   C7073     1.0  0.53220  0.68607  0.95411  1.0000
  H   H5663     1.0  0.94984  0.51934  0.88189  1.0000
  C   C7074     1.0  0.60247  0.65535  0.96456  1.0000
  C   C7075     1.0  0.59760  0.56454  0.98735  1.0000
  C   C7076     1.0  0.56109  0.64974  0.86291  1.0000
  C   C7077     1.0  0.52085  0.71083  0.96866  1.0000
  C   C7078     1.0  0.56424  0.63769  0.86331  1.0000
  H   H5664     1.0  0.94993  0.49447  0.79752  1.0000
  C   C7079     1.0  0.53406  0.72390  0.95831  1.0000
  C   C7080     1.0  0.53876  0.64504  0.94283  1.0000
  C   C7081     1.0  0.60706  0.63504  0.95032  1.0000
  H   H5665     1.0  0.62156  0.66454  0.97387  1.0000
  C   C7082     1.0  0.77844  0.51300  0.98914  1.0000
  H   H5666     1.0  0.52789  0.64166  0.93355  1.0000
  H   H5667     1.0  0.56552  0.73978  0.92170  1.0000
  C   C7083     1.0  0.97449  0.50732  0.89793  1.0000
  Fe  Fe484     1.0  0.98602  0.54275  0.77450  1.0000
  C   C7084     1.0  0.92501  0.53321  0.77636  1.0000
  C   C7085     1.0  0.54946  0.73385  0.92614  1.0000
  C   C7086     1.0  0.61159  0.66971  0.94907  1.0000
  C   C7087     1.0  0.61804  0.67054  0.95653  1.0000
  H   H5668     1.0  0.57408  0.70665  0.98925  1.0000
  H   H5669     1.0  0.72938  0.56184  0.96599  1.0000
  C   C7088     1.0  0.67814  0.56036  0.98536  1.0000
  H   H5670     1.0  0.66642  0.50977  0.93786  1.0000
  H   H5671     1.0  0.54181  0.72569  0.95174  1.0000
  H   H5672     1.0  0.54498  0.66687  0.96883  1.0000
  H   H5673     1.0  0.85755  0.52257  0.97753  1.0000
  H   H5674     1.0  0.86986  0.51208  0.92441  1.0000
  H   H5675     1.0  0.89614  0.53179  0.96769  1.0000
  C   C7089     1.0  0.51645  0.67245  0.88158  1.0000
  H   H5676     1.0  0.59087  0.72562  0.97187  1.0000
  H   H5677     1.0  0.49920  0.60044  0.95347  1.0000
  Fe  Fe485     1.0  0.72724  0.52693  0.96761  1.0000
  P   P237      1.0  0.59299  0.64503  0.96940  1.0000
  C   C7090     1.0  0.79726  0.53607  0.91528  1.0000
  C   C7091     1.0  0.79440  0.52620  0.92358  1.0000
  C   C7092     1.0  0.80323  0.51735  0.92801  1.0000
  C   C7093     1.0  0.81496  0.51822  0.92398  1.0000
  C   C7094     1.0  0.81795  0.52799  0.91542  1.0000
  C   C7095     1.0  0.80896  0.53703  0.91129  1.0000
  P   P238      1.0  0.83309  0.52923  0.91012  1.0000
  C   C7096     1.0  0.84250  0.51463  0.91181  1.0000
  C   C7097     1.0  0.83536  0.53631  0.89472  1.0000
  C   C7098     1.0  0.82954  0.53407  0.88739  1.0000
  H   H5678     1.0  0.59632  0.59109  0.96297  1.0000
  C   C7099     1.0  0.83863  0.54744  0.87085  1.0000
  C   C7100     1.0  0.84449  0.54968  0.87806  1.0000
  C   C7101     1.0  0.84288  0.54414  0.88995  1.0000
  C   C7102     1.0  0.84579  0.50844  0.90278  1.0000
  C   C7103     1.0  0.51193  0.62287  0.95071  1.0000
  H   H5679     1.0  0.91314  0.51973  0.97634  1.0000
  C   C7104     1.0  0.57433  0.74063  0.88695  1.0000
  C   C7105     1.0  0.84618  0.50912  0.92237  1.0000
  C   C7106     1.0  0.83633  0.53792  0.91815  1.0000
  C   C7107     1.0  0.82735  0.54630  0.92336  1.0000
  C   C7108     1.0  0.82986  0.55288  0.92972  1.0000
  C   C7109     1.0  0.52766  0.73195  0.96532  1.0000
  Fe  Fe486     1.0  0.64134  0.50121  0.98399  1.0000
  C   C7110     1.0  0.84792  0.53653  0.91906  1.0000
  H   H5680     1.0  0.79032  0.54308  0.91215  1.0000
  H   H5681     1.0  0.78529  0.52560  0.92676  1.0000
  H   H5682     1.0  0.80095  0.50988  0.93471  1.0000
  H   H5683     1.0  0.82160  0.51133  0.92769  1.0000
  H   H5684     1.0  0.81095  0.54490  0.90507  1.0000
  H   H5685     1.0  0.82370  0.52806  0.89086  1.0000
  C   C7111     1.0  0.51163  0.68773  0.95532  1.0000
  H   H5686     1.0  0.85021  0.55580  0.87446  1.0000
  H   H5687     1.0  0.84744  0.54609  0.89538  1.0000
  C   C7112     1.0  0.51791  0.65158  0.95889  1.0000
  C   C7113     1.0  0.60896  0.65628  0.97202  1.0000
  H   H5688     1.0  0.56875  0.65297  0.88851  1.0000
  C   C7114     1.0  0.95949  0.56025  0.75510  1.0000
  H   H5689     1.0  0.84363  0.51359  0.92956  1.0000
  H   H5690     1.0  0.81835  0.54765  0.92275  1.0000
  H   H5691     1.0  0.82278  0.55906  0.93403  1.0000
  C   C7115     1.0  0.98735  0.53479  0.84229  1.0000
  H   H5692     1.0  0.84293  0.51233  0.89463  1.0000
  H   H5693     1.0  0.85502  0.53026  0.91501  1.0000
  H   H5694     1.0  0.92512  0.54836  0.78213  1.0000
  H   H5695     1.0  0.90045  0.52218  0.77738  1.0000
  C   C7116     1.0  0.94255  0.52508  0.81110  1.0000
  C   C7117     1.0  0.91347  0.50464  0.75765  1.0000
  H   H5696     1.0  0.72414  0.49492  0.95268  1.0000
  H   H5697     1.0  0.62656  0.70560  0.90718  1.0000
  C   C7118     1.0  0.91337  0.50995  0.94974  1.0000
  C   C7119     1.0  0.55332  0.65613  0.90252  1.0000
  P   P239      1.0  0.60819  0.71824  0.95161  1.0000
  C   C7120     1.0  0.61483  0.70588  0.96167  1.0000
  C   C7121     1.0  0.59234  0.72122  0.95535  1.0000
  C   C7122     1.0  0.58603  0.72103  0.94740  1.0000
  C   C7123     1.0  0.57379  0.72464  0.94980  1.0000
  C   C7124     1.0  0.50594  0.67202  0.91602  1.0000
  H   H5698     1.0  0.84321  0.55605  0.93611  1.0000
  Fe  Fe487     1.0  0.64833  0.52444  0.97830  1.0000
  H   H5699     1.0  0.98006  0.50092  0.84411  1.0000
  C   C7125     1.0  0.62710  0.70179  0.95911  1.0000
  H   H5700     1.0  0.62363  0.72346  0.96369  1.0000
  C   C7126     1.0  0.96785  0.50487  0.90937  1.0000
  C   C7127     1.0  0.50212  0.59594  0.97926  1.0000
  C   C7128     1.0  0.61402  0.71442  0.93744  1.0000
  H   H5701     1.0  0.55041  0.64654  0.97998  1.0000
  H   H5702     1.0  0.89098  0.49479  0.95431  1.0000
  C   C7129     1.0  0.57393  0.72838  0.96823  1.0000
  H   H5703     1.0  0.61529  0.69317  0.92352  1.0000
  C   C7130     1.0  0.67384  0.57195  0.97975  1.0000
  S   S963      1.0  0.63891  0.51731  0.96953  1.0000
  C   C7131     1.0  0.55670  0.74170  0.92033  1.0000
  C   C7132     1.0  0.87779  0.51094  0.91756  1.0000
  C   C7133     1.0  0.56327  0.69433  0.97629  1.0000
  S   S964      1.0  0.66030  0.53658  0.96831  1.0000
  H   H5704     1.0  0.59047  0.71839  0.93920  1.0000
  C   C7134     1.0  0.52618  0.63947  0.91010  1.0000
  C   C7135     1.0  0.87710  0.51295  0.90586  1.0000
  C   C7136     1.0  0.85040  0.54314  0.92541  1.0000
  H   H5705     1.0  0.55264  0.72583  0.93207  1.0000
  H   H5706     1.0  0.63247  0.70617  0.95133  1.0000
  C   C7137     1.0  0.59899  0.54838  0.97862  1.0000
  S   S965      1.0  0.96836  0.50668  0.86710  1.0000
  C   C7138     1.0  0.58620  0.72501  0.96577  1.0000
  C   C7139     1.0  0.52228  0.62996  0.91829  1.0000
  C   C7140     1.0  0.51231  0.59878  0.97980  1.0000
  C   C7141     1.0  0.88351  0.52327  0.98106  1.0000
  H   H5707     1.0  0.49698  0.67524  0.90211  1.0000
  H   H5708     1.0  0.69984  0.57953  0.96507  1.0000
  C   C7142     1.0  0.60386  0.66216  0.95305  1.0000
  H   H5709     1.0  0.56350  0.65586  0.85474  1.0000
  C   C7143     1.0  0.94286  0.51572  0.88832  1.0000
  C   C7144     1.0  0.55715  0.65138  0.97532  1.0000
  H   H5710     1.0  0.83981  0.55181  0.86166  1.0000
  H   H5711     1.0  0.92929  0.53089  0.88397  1.0000
  H   H5712     1.0  0.62199  0.72941  0.92903  1.0000
  C   C7145     1.0  0.51752  0.64777  0.94917  1.0000
  C   C7146     1.0  0.60773  0.73116  0.89908  1.0000
  C   C7147     1.0  0.53257  0.68829  0.98584  1.0000
  C   C7148     1.0  0.53004  0.62124  0.92438  1.0000
  H   H5713     1.0  0.60803  0.65129  0.98097  1.0000
  C   C7149     1.0  0.59915  0.72475  0.90518  1.0000
  C   C7150     1.0  0.59733  0.63471  0.95986  1.0000
  C   C7151     1.0  0.55492  0.63396  0.88400  1.0000
  C   C7152     1.0  0.90619  0.51757  0.94233  1.0000
  C   C7153     1.0  0.89226  0.50863  0.76103  1.0000
  H   H5714     1.0  0.94513  0.50847  0.77968  1.0000
  C   C7154     1.0  0.53196  0.67549  0.89304  1.0000
  C   C7155     1.0  0.92298  0.54527  0.77563  1.0000
  H   H5715     1.0  0.91823  0.51695  0.81069  1.0000
  C   C7156     1.0  0.56513  0.65578  0.89673  1.0000
  Fe  Fe488     1.0  0.54049  0.59861  0.97463  1.0000
  C   C7157     1.0  0.53794  0.64023  0.90790  1.0000
  C   C7158     1.0  0.77341  0.50795  0.94216  1.0000
  H   H5716     1.0  0.56359  0.62045  0.87415  1.0000
  H   H5717     1.0  0.60728  0.69864  0.94288  1.0000
  C   C7159     1.0  0.55485  0.65393  0.87304  1.0000
  H   H5718     1.0  0.64198  0.68893  0.96449  1.0000
  H   H5719     1.0  0.74856  0.55006  0.95754  1.0000
  H   H5720     1.0  0.76097  0.53590  0.97052  1.0000
  C   C7160     1.0  0.59067  0.62639  0.96176  1.0000
  S   S966      1.0  0.74686  0.52203  0.96246  1.0000
  H   H5721     1.0  0.58090  0.66924  0.95909  1.0000
  C   C7161     1.0  0.57249  0.65904  0.90163  1.0000
  H   H5722     1.0  0.61256  0.67488  0.94017  1.0000
  Fe  Fe489     1.0  0.56424  0.59537  0.98007  1.0000
  H   H5723     1.0  0.53395  0.69707  0.98399  1.0000
  H   H5724     1.0  0.53911  0.68747  0.95719  1.0000
  C   C7162     1.0  0.77864  0.49618  0.98215  1.0000
  C   C7163     1.0  0.61530  0.58754  0.95689  1.0000
  H   H5725     1.0  0.56898  0.72459  0.94358  1.0000
  C   C7164     1.0  0.54555  0.63164  0.91442  1.0000
  H   H5726     1.0  0.53995  0.66000  0.91785  1.0000
  H   H5727     1.0  0.59853  0.70259  0.97362  1.0000
  H   H5728     1.0  0.55460  0.63213  0.91312  1.0000
  C   C7165     1.0  0.62297  0.74186  0.95756  1.0000
  H   H5729     1.0  0.62850  0.73920  0.98796  1.0000
  C   C7166     1.0  0.90437  0.51837  0.98054  1.0000
  H   H5730     1.0  0.55393  0.69802  0.97824  1.0000
  H   H5731     1.0  0.94252  0.54689  0.75058  1.0000
  H   H5732     1.0  0.52614  0.69305  0.90838  1.0000
  H   H5733     1.0  0.60822  0.68535  0.98657  1.0000
  P   P240      1.0  0.61581  0.58231  0.94419  1.0000
  C   C7167     1.0  0.61979  0.59278  0.93076  1.0000
  C   C7168     1.0  0.62676  0.56870  0.94471  1.0000
  C   C7169     1.0  0.63593  0.56668  0.93495  1.0000
  C   C7170     1.0  0.64464  0.55628  0.93576  1.0000
  C   C7171     1.0  0.64422  0.54786  0.94628  1.0000
  C   C7172     1.0  0.63507  0.54982  0.95597  1.0000
  C   C7173     1.0  0.62639  0.56018  0.95523  1.0000
  C   C7174     1.0  0.61660  0.59267  0.92055  1.0000
  C   C7175     1.0  0.61937  0.60086  0.91016  1.0000
  C   C7176     1.0  0.62543  0.60916  0.90982  1.0000
  C   C7177     1.0  0.62881  0.60921  0.91986  1.0000
  C   C7178     1.0  0.62604  0.60104  0.93028  1.0000
  C   C7179     1.0  0.60174  0.57987  0.94451  1.0000
  C   C7180     1.0  0.59257  0.58953  0.94184  1.0000
  C   C7181     1.0  0.58190  0.58780  0.94128  1.0000
  C   C7182     1.0  0.58021  0.57645  0.94347  1.0000
  C   C7183     1.0  0.58928  0.56680  0.94609  1.0000
  C   C7184     1.0  0.59999  0.56846  0.94663  1.0000
  C   C7185     1.0  0.63231  0.56217  0.98440  1.0000
  C   C7186     1.0  0.50083  0.69983  0.97684  1.0000
  H   H5734     1.0  0.56024  0.67826  0.95890  1.0000
  H   H5735     1.0  0.95568  0.51472  0.82067  1.0000
  C   C7187     1.0  0.90620  0.51473  0.93194  1.0000
  H   H5736     1.0  0.63647  0.57311  0.92674  1.0000
  H   H5737     1.0  0.65179  0.55475  0.92829  1.0000
  H   H5738     1.0  0.65104  0.53986  0.94700  1.0000
  H   H5739     1.0  0.63480  0.54333  0.96414  1.0000
  H   H5740     1.0  0.61937  0.56153  0.96286  1.0000
  H   H5741     1.0  0.61193  0.58628  0.92064  1.0000
  H   H5742     1.0  0.61677  0.60080  0.90237  1.0000
  H   H5743     1.0  0.62750  0.61555  0.90178  1.0000
  H   H5744     1.0  0.63351  0.61565  0.91957  1.0000
  H   H5745     1.0  0.62863  0.60139  0.93793  1.0000
  H   H5746     1.0  0.59366  0.59842  0.94013  1.0000
  H   H5747     1.0  0.57487  0.59529  0.93923  1.0000
  H   H5748     1.0  0.57185  0.57516  0.94324  1.0000
  C   C7188     1.0  0.94140  0.49579  0.79563  1.0000
  H   H5749     1.0  0.60679  0.56078  0.94872  1.0000
  C   C7189     1.0  0.56813  0.66260  0.91230  1.0000
  C   C7190     1.0  0.77386  0.50020  0.93539  1.0000
  H   H5750     1.0  0.53578  0.70739  0.95433  1.0000
  H   H5751     1.0  0.54435  0.67631  0.94170  1.0000
  H   H5752     1.0  0.88445  0.50757  0.75922  1.0000
  C   C7191     1.0  0.59075  0.72837  0.91479  1.0000
  H   H5753     1.0  0.87629  0.52848  0.97702  1.0000
  H   H5754     1.0  0.73144  0.50999  0.98800  1.0000
  H   H5755     1.0  0.51321  0.62935  0.91995  1.0000
  C   C7192     1.0  0.68272  0.53257  0.98447  1.0000
  C   C7193     1.0  0.93204  0.52575  0.80822  1.0000
  H   H5756     1.0  0.60277  0.62051  0.98033  1.0000
  C   C7194     1.0  0.61236  0.70408  0.93581  1.0000
  C   C7195     1.0  0.55235  0.73804  0.88652  1.0000
  H   H5757     1.0  0.67996  0.54673  0.95680  1.0000
  H   H5758     1.0  0.86861  0.51565  0.90356  1.0000
  H   H5759     1.0  0.57092  0.63741  0.98099  1.0000
  C   C7196     1.0  0.57449  0.66404  0.96361  1.0000
  H   H5760     1.0  0.52517  0.65422  0.88459  1.0000
  H   H5761     1.0  0.98618  0.49302  0.80335  1.0000
  P   P241      1.0  0.92551  0.51353  0.76837  1.0000
  C   C7197     1.0  0.73113  0.55461  0.98392  1.0000
  H   H5762     1.0  0.91660  0.53428  0.75157  1.0000
  H   H5763     1.0  0.66139  0.55981  0.97201  1.0000
  C   C7198     1.0  0.58111  0.68337  0.98293  1.0000
  C   C7199     1.0  0.52374  0.68515  0.88856  1.0000
  C   C7200     1.0  0.92634  0.51646  0.81299  1.0000
  H   H5764     1.0  0.52897  0.67287  0.93440  1.0000
  C   C7201     1.0  0.53524  0.67962  0.94541  1.0000
  H   H5765     1.0  0.54689  0.64228  0.93673  1.0000
  H   H5766     1.0  0.98220  0.50543  0.77041  1.0000
  S   S967      1.0  0.50068  0.71295  0.93954  1.0000
  C   C7202     1.0  0.94549  0.50457  0.89547  1.0000
  C   C7203     1.0  0.61988  0.73145  0.95813  1.0000
  H   H5767     1.0  0.93614  0.52444  0.74409  1.0000
  H   H5768     1.0  0.82657  0.53794  0.86993  1.0000
  C   C7204     1.0  0.61695  0.70089  0.92495  1.0000
  C   C7205     1.0  0.53064  0.71343  0.95988  1.0000
  C   C7206     1.0  0.53240  0.66418  0.89190  1.0000
  H   H5769     1.0  0.55253  0.66330  0.87261  1.0000
  C   C7207     1.0  0.92301  0.52908  0.76758  1.0000
  H   H5770     1.0  0.91307  0.55551  0.75036  1.0000
  H   H5771     1.0  0.59903  0.66153  0.94710  1.0000
  C   C7208     1.0  0.61349  0.69007  0.97898  1.0000
  C   C7209     1.0  0.95701  0.53212  0.75308  1.0000
  C   C7210     1.0  0.57774  0.65236  0.96961  1.0000
  C   C7211     1.0  0.52803  0.64458  0.94110  1.0000
  P   P242      1.0  0.54363  0.65172  0.89662  1.0000
  C   C7212     1.0  0.55408  0.66285  0.96906  1.0000
  H   H5772     1.0  0.98147  0.52694  0.86047  1.0000
  S   S968      1.0  0.52624  0.58994  0.97530  1.0000
  S   S969      1.0  0.81326  0.49487  0.96482  1.0000
  C   C7213     1.0  0.98273  0.49653  0.77541  1.0000
  Fe  Fe490     1.0  0.54538  0.61763  0.98261  1.0000
  H   H5773     1.0  0.53086  0.71671  0.89596  1.0000
  H   H5774     1.0  0.53803  0.67699  0.89718  1.0000
  C   C7214     1.0  0.94505  0.49691  0.75996  1.0000
  H   H5775     1.0  0.56924  0.73148  0.97617  1.0000
  C   C7215     1.0  0.93993  0.50649  0.86155  1.0000
  C   C7216     1.0  0.94107  0.51553  0.74631  1.0000
  H   H5776     1.0  0.56276  0.55254  0.98194  1.0000
  H   H5777     1.0  0.58525  0.55076  0.96970  1.0000
  C   C7217     1.0  0.58301  0.56584  0.97684  1.0000
  C   C7218     1.0  0.61501  0.59552  0.97654  1.0000
  S   S970      1.0  0.57979  0.58413  0.98758  1.0000
  Fe  Fe491     1.0  0.99058  0.51645  0.78221  1.0000
  C   C7219     1.0  0.92052  0.49662  0.93646  1.0000
  C   C7220     1.0  0.51411  0.70799  0.93032  1.0000
  C   C7221     1.0  0.60460  0.59136  0.96441  1.0000
  C   C7222     1.0  0.51638  0.74029  0.90833  1.0000
  H   H5778     1.0  0.77733  0.53885  0.97913  1.0000
  H   H5779     1.0  0.72273  0.55975  0.98763  1.0000
  H   H5780     1.0  0.84234  0.54009  0.97260  1.0000
  C   C7223     1.0  0.85325  0.52803  0.98391  1.0000
  H   H5781     1.0  0.62910  0.74178  0.96254  1.0000
  C   C7224     1.0  0.53804  0.73640  0.92446  1.0000
  C   C7225     1.0  0.60448  0.59546  0.97412  1.0000
  H   H5782     1.0  0.62392  0.56452  0.98194  1.0000
  H   H5783     1.0  0.50725  0.71693  0.98292  1.0000
  H   H5784     1.0  0.85583  0.49348  0.93203  1.0000
  C   C7226     1.0  0.62570  0.59160  0.96918  1.0000
  C   C7227     1.0  0.76041  0.51044  0.98659  1.0000
  C   C7228     1.0  0.61198  0.73153  0.95161  1.0000
  H   H5785     1.0  0.98935  0.50298  0.74450  1.0000
  S   S971      1.0  0.71683  0.53333  0.98384  1.0000
  H   H5786     1.0  0.69423  0.51823  0.97685  1.0000
  H   H5787     1.0  0.63388  0.59150  0.97112  1.0000
  C   C7229     1.0  0.68754  0.52070  0.98433  1.0000
  C   C7230     1.0  0.60701  0.74218  0.94482  1.0000
  H   H5788     1.0  0.51818  0.60408  0.95357  1.0000
  C   C7231     1.0  0.98878  0.52700  0.85292  1.0000
  S   S972      1.0  0.99285  0.53031  0.78983  1.0000
  C   C7232     1.0  0.50261  0.65524  0.93197  1.0000
  H   H5789     1.0  0.99511  0.54060  0.82428  1.0000
  C   C7233     1.0  0.58727  0.57068  0.98350  1.0000
  C   C7234     1.0  0.74871  0.53944  0.98658  1.0000
  C   C7235     1.0  0.49587  0.65253  0.92585  1.0000
  H   H5790     1.0  0.58417  0.72338  0.91960  1.0000
  C   C7236     1.0  0.76633  0.51701  0.98975  1.0000
  C   C7237     1.0  0.78458  0.50266  0.98531  1.0000
  H   H5791     1.0  0.59618  0.59846  0.97987  1.0000
  C   C7238     1.0  0.51472  0.70216  0.92169  1.0000
  C   C7239     1.0  0.65347  0.55966  0.97887  1.0000
  C   C7240     1.0  0.94196  0.50557  0.82329  1.0000
  H   H5792     1.0  0.68572  0.53906  0.97696  1.0000
  H   H5793     1.0  0.55824  0.73114  0.96201  1.0000
  H   H5794     1.0  0.92631  0.49373  0.95239  1.0000
  C   C7241     1.0  0.76656  0.50007  0.98278  1.0000
  H   H5795     1.0  0.50949  0.69111  0.87958  1.0000
  H   H5796     1.0  0.51302  0.73560  0.97964  1.0000
  C   C7242     1.0  0.50233  0.63237  0.94918  1.0000
  H   H5797     1.0  0.97214  0.51768  0.75273  1.0000
  H   H5798     1.0  0.66449  0.57564  0.98093  1.0000
  C   C7243     1.0  0.64260  0.56292  0.97576  1.0000
  C   C7244     1.0  0.52540  0.73082  0.90513  1.0000
  H   H5799     1.0  0.54753  0.61562  0.92761  1.0000
  H   H5800     1.0  0.91152  0.49921  0.78816  1.0000
  H   H5801     1.0  0.93954  0.51481  0.86338  1.0000
  C   C7245     1.0  0.67306  0.50182  0.93970  1.0000
  H   H5802     1.0  0.50036  0.73702  0.92947  1.0000
  C   C7246     1.0  0.78387  0.54763  0.98811  1.0000
  C   C7247     1.0  0.54160  0.62219  0.92261  1.0000
  C   C7248     1.0  0.53822  0.73371  0.98866  1.0000
  C   C7249     1.0  0.61382  0.73227  0.98878  1.0000
  C   C7250     1.0  0.51319  0.72637  0.89507  1.0000
  H   H5803     1.0  0.63006  0.72358  0.91009  1.0000
  H   H5804     1.0  0.94515  0.51250  0.84294  1.0000
  C   C7251     1.0  0.50028  0.61598  0.98713  1.0000
  H   H5805     1.0  0.58288  0.74134  0.88729  1.0000
  H   H5806     1.0  0.53368  0.72866  0.90772  1.0000
  H   H5807     1.0  0.54321  0.56609  0.98135  1.0000
  C   C7252     1.0  0.95117  0.57058  0.75238  1.0000
  H   H5808     1.0  0.96621  0.49566  0.77291  1.0000
  C   C7253     1.0  0.50225  0.74142  0.93508  1.0000
  H   H5809     1.0  0.97683  0.55011  0.74992  1.0000
  C   C7254     1.0  0.52384  0.72399  0.89841  1.0000
  H   H5810     1.0  0.55651  0.72122  0.89819  1.0000
  H   H5811     1.0  0.54641  0.73447  0.98232  1.0000
  H   H5812     1.0  0.83168  0.55257  0.98704  1.0000
  H   H5813     1.0  0.53247  0.73031  0.92919  1.0000
  H   H5814     1.0  0.51186  0.72092  0.89010  1.0000
  H   H5815     1.0  0.92671  0.49935  0.82407  1.0000
  C   C7255     1.0  0.85310  0.49768  0.92382  1.0000
  H   H5816     1.0  0.57601  0.72360  0.89845  1.0000
  C   C7256     1.0  0.93776  0.49699  0.87079  1.0000
  H   H5817     1.0  0.61428  0.72835  0.89169  1.0000
  C   C7257     1.0  0.94419  0.49422  0.84749  1.0000
  C   C7258     1.0  0.83869  0.54508  0.98915  1.0000
  C   C7259     1.0  0.50011  0.60934  0.95214  1.0000
  C   C7260     1.0  0.97242  0.49547  0.91772  1.0000
  H   H5818     1.0  0.49956  0.62358  0.99042  1.0000
  H   H5819     1.0  0.95450  0.49951  0.89446  1.0000
  C   C7261     1.0  0.78766  0.49328  0.95204  1.0000
  C   C7262     1.0  0.57042  0.73049  0.89340  1.0000
  S   S973      1.0  0.63190  0.53256  0.98979  1.0000
  C   C7263     1.0  0.60814  0.74093  0.90275  1.0000
  C   C7264     1.0  0.59096  0.73841  0.91826  1.0000
  H   H5820     1.0  0.54391  0.73698  0.88625  1.0000
  H   H5821     1.0  0.69381  0.54736  0.98877  1.0000
  H   H5822     1.0  0.50945  0.67982  0.91244  1.0000
  H   H5823     1.0  0.58461  0.74107  0.92579  1.0000
  H   H5824     1.0  0.61090  0.73907  0.98164  1.0000
  S   S974      1.0  0.54575  0.59868  0.99084  1.0000
  Fe  Fe492     1.0  0.58185  0.90151  0.18437  1.0000
  S   S975      1.0  0.58313  0.91896  0.17251  1.0000
  S   S976      1.0  0.58119  0.88570  0.17866  1.0000
  Fe  Fe493     1.0  0.58182  0.90962  0.20601  1.0000
  S   S977      1.0  0.58309  0.92784  0.19598  1.0000
  S   S978      1.0  0.57755  0.90510  0.22575  1.0000
  Fe  Fe494     1.0  0.56996  0.92642  0.18708  1.0000
  S   S979      1.0  0.55425  0.94086  0.18410  1.0000
  Fe  Fe495     1.0  0.59624  0.91886  0.18232  1.0000
  S   S980      1.0  0.61329  0.92410  0.17280  1.0000
  S   S981      1.0  0.56751  0.90887  0.19820  1.0000
  S   S982      1.0  0.59618  0.90059  0.19314  1.0000
  H   H5825     1.0  0.64234  0.98886  0.22373  1.0000
  H   H5826     1.0  0.56300  0.88538  0.21834  1.0000
  Fe  Fe496     1.0  0.56846  0.76648  0.03873  1.0000
  S   S983      1.0  0.56096  0.76993  0.02292  1.0000
  S   S984      1.0  0.57446  0.77933  0.04469  1.0000
  Fe  Fe497     1.0  0.54846  0.75893  0.03491  1.0000
  S   S985      1.0  0.52892  0.76281  0.03977  1.0000
  Fe  Fe498     1.0  0.57281  0.75237  0.02048  1.0000
  S   S986      1.0  0.55509  0.75683  0.05086  1.0000
  H   H5827     1.0  0.57499  0.77361  0.99182  1.0000
  Fe  Fe499     1.0  0.52359  0.91347  0.12547  1.0000
  S   S987      1.0  0.53341  0.89493  0.12446  1.0000
  C   C7265     1.0  0.55590  0.86912  0.10998  1.0000
  Fe  Fe500     1.0  0.54221  0.92434  0.10718  1.0000
  S   S988      1.0  0.55367  0.90674  0.10500  1.0000
  S   S989      1.0  0.54832  0.94039  0.09533  1.0000
  Fe  Fe501     1.0  0.53729  0.90179  0.10489  1.0000
  S   S990      1.0  0.54069  0.89222  0.09013  1.0000
  Fe  Fe502     1.0  0.54893  0.90137  0.12462  1.0000
  S   S991      1.0  0.56272  0.88851  0.13387  1.0000
  S   S992      1.0  0.52608  0.91986  0.10591  1.0000
  S   S993      1.0  0.53889  0.91949  0.12689  1.0000
  Fe  Fe503     1.0  0.51323  0.85944  0.03575  1.0000
  C   C7266     1.0  0.55743  0.97560  0.23903  1.0000
  Fe  Fe504     1.0  0.53192  0.84143  0.04721  1.0000
  H   H5828     1.0  0.56114  0.86913  0.12545  1.0000
  S   S994      1.0  0.55132  0.83311  0.04483  1.0000
  Fe  Fe505     1.0  0.51320  0.85815  0.06126  1.0000
  S   S995      1.0  0.51084  0.90017  0.19031  1.0000
  H   H5829     1.0  0.52202  0.77466  0.09905  1.0000
  S   S996      1.0  0.52656  0.86115  0.04436  1.0000
  H   H5830     1.0  0.55547  0.87264  0.99420  1.0000
  S   S997      1.0  0.58133  0.74970  0.03539  1.0000
  S   S998      1.0  0.51716  0.92409  0.22869  1.0000
  H   H5831     1.0  0.49799  0.94251  0.23561  1.0000
  H   H5832     1.0  0.55134  0.80155  0.99942  1.0000
  C   C7267     1.0  0.54289  0.83016  0.11134  1.0000
  C   C7268     1.0  0.52265  0.82579  0.00123  1.0000
  H   H5833     1.0  0.59097  0.97518  0.11187  1.0000
  C   C7269     1.0  0.52234  0.85691  0.00529  1.0000
  H   H5834     1.0  0.52623  0.86619  0.11415  1.0000
  H   H5835     1.0  0.55313  0.94630  0.15708  1.0000
  H   H5836     1.0  0.49871  0.93364  0.05023  1.0000
  H   H5837     1.0  0.57197  0.95936  0.09802  1.0000
  C   C7270     1.0  0.54628  0.75401  0.08123  1.0000
  C   C7271     1.0  0.52515  0.84775  0.22232  1.0000
  H   H5838     1.0  0.54239  0.97307  0.12318  1.0000
  C   C7272     1.0  0.53985  0.95376  0.09888  1.0000
  C   C7273     1.0  0.54268  0.96438  0.09208  1.0000
  H   H5839     1.0  0.54707  0.79694  0.12625  1.0000
  H   H5840     1.0  0.51682  0.96458  0.11927  1.0000
  C   C7274     1.0  0.52397  0.96456  0.11163  1.0000
  C   C7275     1.0  0.53050  0.95387  0.10868  1.0000
  H   H5841     1.0  0.54997  0.96431  0.08453  1.0000
  H   H5842     1.0  0.52656  0.82769  0.01668  1.0000
  H   H5843     1.0  0.62375  0.97419  0.21975  1.0000
  H   H5844     1.0  0.52830  0.94572  0.11398  1.0000
  C   C7276     1.0  0.58330  0.85499  0.23660  1.0000
  S   S999      1.0  0.50588  0.91784  0.13755  1.0000
  H   H5845     1.0  0.50524  0.88352  0.99605  1.0000
  H   H5846     1.0  0.54254  0.96532  0.16217  1.0000
  H   H5847     1.0  0.52693  0.83234  0.12490  1.0000
  C   C7277     1.0  0.49734  0.91589  0.16136  1.0000
  C   C7278     1.0  0.50508  0.79431  0.08103  1.0000
  H   H5848     1.0  0.49742  0.98957  0.16644  1.0000
  H   H5849     1.0  0.52100  0.83920  0.10067  1.0000
  H   H5850     1.0  0.50789  0.85011  0.23376  1.0000
  C   C7279     1.0  0.53123  0.88619  0.08595  1.0000
  C   C7280     1.0  0.53581  0.88029  0.07664  1.0000
  C   C7281     1.0  0.52873  0.87508  0.07320  1.0000
  C   C7282     1.0  0.51702  0.87557  0.07914  1.0000
  C   C7283     1.0  0.51237  0.88175  0.08823  1.0000
  C   C7284     1.0  0.51942  0.88702  0.09165  1.0000
  H   H5851     1.0  0.54492  0.87970  0.07207  1.0000
  H   H5852     1.0  0.53233  0.87069  0.06595  1.0000
  C   C7285     1.0  0.58715  0.87432  0.23239  1.0000
  H   H5853     1.0  0.51579  0.89157  0.09880  1.0000
  C   C7286     1.0  0.56767  0.79436  0.04384  1.0000
  C   C7287     1.0  0.55730  0.79980  0.03976  1.0000
  C   C7288     1.0  0.55206  0.81177  0.03991  1.0000
  C   C7289     1.0  0.55736  0.81828  0.04394  1.0000
  C   C7290     1.0  0.56789  0.81287  0.04760  1.0000
  C   C7291     1.0  0.57292  0.80099  0.04769  1.0000
  H   H5854     1.0  0.55336  0.79477  0.03655  1.0000
  H   H5855     1.0  0.54398  0.81593  0.03693  1.0000
  H   H5856     1.0  0.57209  0.81785  0.05062  1.0000
  H   H5857     1.0  0.58096  0.79691  0.05076  1.0000
  H   H5858     1.0  0.52036  0.81168  0.06145  1.0000
  C   C7292     1.0  0.52141  0.80864  0.04460  1.0000
  C   C7293     1.0  0.53370  0.80000  0.07997  1.0000
  H   H5859     1.0  0.50743  0.95738  0.19232  1.0000
  C   C7294     1.0  0.54794  0.85261  0.11097  1.0000
  Fe  Fe506     1.0  0.50330  0.91948  0.22304  1.0000
  H   H5860     1.0  0.53050  0.95119  0.13383  1.0000
  H   H5861     1.0  0.61563  0.89286  0.23732  1.0000
  H   H5862     1.0  0.63558  0.93652  0.22771  1.0000
  H   H5863     1.0  0.52805  0.83880  0.22688  1.0000
  C   C7295     1.0  0.58402  0.85613  0.22465  1.0000
  H   H5864     1.0  0.56244  0.94998  0.23786  1.0000
  C   C7296     1.0  0.56297  0.98653  0.21915  1.0000
  C   C7297     1.0  0.64644  0.97034  0.22395  1.0000
  C   C7298     1.0  0.51096  0.97242  0.19541  1.0000
  C   C7299     1.0  0.61108  0.93827  0.16389  1.0000
  C   C7300     1.0  0.60048  0.94646  0.16620  1.0000
  C   C7301     1.0  0.59904  0.95794  0.15930  1.0000
  C   C7302     1.0  0.60806  0.96111  0.14988  1.0000
  C   C7303     1.0  0.61851  0.95278  0.14731  1.0000
  C   C7304     1.0  0.62007  0.94143  0.15439  1.0000
  H   H5865     1.0  0.59344  0.94402  0.17341  1.0000
  H   H5866     1.0  0.59092  0.96434  0.16117  1.0000
  H   H5867     1.0  0.62550  0.95519  0.14002  1.0000
  H   H5868     1.0  0.62825  0.93508  0.15252  1.0000
  C   C7305     1.0  0.54357  0.93851  0.19705  1.0000
  C   C7306     1.0  0.53169  0.94154  0.19671  1.0000
  C   C7307     1.0  0.52333  0.93766  0.20662  1.0000
  C   C7308     1.0  0.52692  0.93068  0.21680  1.0000
  C   C7309     1.0  0.53869  0.92830  0.21731  1.0000
  C   C7310     1.0  0.54701  0.93224  0.20750  1.0000
  H   H5869     1.0  0.52913  0.94635  0.18858  1.0000
  H   H5870     1.0  0.51417  0.93990  0.20635  1.0000
  H   H5871     1.0  0.54144  0.92286  0.22509  1.0000
  H   H5872     1.0  0.55617  0.93004  0.20790  1.0000
  C   C7311     1.0  0.57505  0.88722  0.16663  1.0000
  C   C7312     1.0  0.56834  0.89786  0.16142  1.0000
  C   C7313     1.0  0.56403  0.89849  0.15153  1.0000
  C   C7314     1.0  0.56668  0.88851  0.14678  1.0000
  C   C7315     1.0  0.57328  0.87797  0.15212  1.0000
  C   C7316     1.0  0.57731  0.87730  0.16201  1.0000
  H   H5873     1.0  0.56660  0.90560  0.16490  1.0000
  H   H5874     1.0  0.55897  0.90669  0.14744  1.0000
  H   H5875     1.0  0.57540  0.87026  0.14850  1.0000
  H   H5876     1.0  0.58250  0.86908  0.16592  1.0000
  C   C7317     1.0  0.52346  0.80532  0.05594  1.0000
  H   H5877     1.0  0.62237  0.90706  0.21968  1.0000
  C   C7318     1.0  0.51912  0.90405  0.16668  1.0000
  C   C7319     1.0  0.51373  0.76450  0.06733  1.0000
  H   H5878     1.0  0.58280  0.96319  0.07608  1.0000
  H   H5879     1.0  0.57054  0.76555  0.07158  1.0000
  C   C7320     1.0  0.56134  0.76521  0.07454  1.0000
  C   C7321     1.0  0.51260  0.89482  0.05197  1.0000
  C   C7322     1.0  0.52553  0.80068  0.03726  1.0000
  C   C7323     1.0  0.52890  0.79371  0.06033  1.0000
  C   C7324     1.0  0.55682  0.88552  0.22673  1.0000
  H   H5880     1.0  0.52569  0.91326  0.08117  1.0000
  H   H5881     1.0  0.55125  0.81970  0.06912  1.0000
  P   P243      1.0  0.52965  0.78891  0.07563  1.0000
  H   H5882     1.0  0.52852  0.76395  0.08248  1.0000
  C   C7325     1.0  0.53322  0.78581  0.05280  1.0000
  C   C7326     1.0  0.51947  0.74295  0.99942  1.0000
  C   C7327     1.0  0.54192  0.80615  0.07214  1.0000
  C   C7328     1.0  0.51006  0.77662  0.03159  1.0000
  C   C7329     1.0  0.54500  0.81487  0.07530  1.0000
  C   C7330     1.0  0.52568  0.92231  0.07674  1.0000
  C   C7331     1.0  0.50552  0.85156  0.10687  1.0000
  C   C7332     1.0  0.56436  0.98280  0.23072  1.0000
  H   H5883     1.0  0.52751  0.92948  0.15152  1.0000
  H   H5884     1.0  0.53437  0.99070  0.19870  1.0000
  S   S1000     1.0  0.59020  0.98629  0.17043  1.0000
  C   C7333     1.0  0.52318  0.93195  0.16918  1.0000
  C   C7334     1.0  0.50517  0.77454  0.01448  1.0000
  H   H5885     1.0  0.50998  0.75130  0.04016  1.0000
  H   H5886     1.0  0.58298  0.84902  0.22158  1.0000
  H   H5887     1.0  0.52392  0.80321  0.02849  1.0000
  H   H5888     1.0  0.53767  0.77689  0.05579  1.0000
  H   H5889     1.0  0.51644  0.81735  0.04159  1.0000
  C   C7335     1.0  0.55708  0.96488  0.11120  1.0000
  C   C7336     1.0  0.51616  0.92931  0.07184  1.0000
  C   C7337     1.0  0.52060  0.86185  0.11223  1.0000
  C   C7338     1.0  0.52116  0.76940  0.02871  1.0000
  H   H5890     1.0  0.56826  0.99222  0.21270  1.0000
  S   S1001     1.0  0.50797  0.86837  0.07580  1.0000
  C   C7339     1.0  0.52862  0.80269  0.09109  1.0000
  S   S1002     1.0  0.50900  0.87241  0.01931  1.0000
  H   H5891     1.0  0.54716  0.86630  0.01536  1.0000
  H   H5892     1.0  0.57069  0.98556  0.23339  1.0000
  C   C7340     1.0  0.60558  0.98277  0.22073  1.0000
  C   C7341     1.0  0.50218  0.77936  0.02433  1.0000
  C   C7342     1.0  0.55113  0.86323  0.10477  1.0000
  H   H5893     1.0  0.55849  0.86684  0.23156  1.0000
  C   C7343     1.0  0.53760  0.76444  0.08062  1.0000
  H   H5894     1.0  0.55397  0.98537  0.20677  1.0000
  C   C7344     1.0  0.53612  0.97512  0.09508  1.0000
  H   H5895     1.0  0.51480  0.83282  0.00164  1.0000
  C   C7345     1.0  0.52624  0.81984  0.99208  1.0000
  P   P244      1.0  0.54092  0.84561  0.10446  1.0000
  C   C7346     1.0  0.54758  0.84696  0.08894  1.0000
  C   C7347     1.0  0.52531  0.85205  0.10703  1.0000
  H   H5896     1.0  0.52957  0.81128  0.13417  1.0000
  C   C7348     1.0  0.52683  0.85341  0.99454  1.0000
  C   C7349     1.0  0.50259  0.98159  0.23883  1.0000
  H   H5897     1.0  0.51581  0.74629  0.07590  1.0000
  C   C7350     1.0  0.49851  0.81920  0.02192  1.0000
  C   C7351     1.0  0.54100  0.84789  0.08079  1.0000
  C   C7352     1.0  0.54653  0.84769  0.06907  1.0000
  C   C7353     1.0  0.55862  0.84684  0.06529  1.0000
  C   C7354     1.0  0.56522  0.84625  0.07323  1.0000
  C   C7355     1.0  0.55974  0.84628  0.08500  1.0000
  H   H5898     1.0  0.50817  0.96992  0.20483  1.0000
  C   C7356     1.0  0.55081  0.97370  0.11732  1.0000
  C   C7357     1.0  0.50934  0.98936  0.14949  1.0000
  H   H5899     1.0  0.50329  0.88225  0.09277  1.0000
  C   C7358     1.0  0.51680  0.76858  0.01080  1.0000
  H   H5900     1.0  0.52299  0.76369  0.06329  1.0000
  C   C7359     1.0  0.55814  0.75439  0.07820  1.0000
  H   H5901     1.0  0.52723  0.96178  0.22975  1.0000
  C   C7360     1.0  0.50845  0.86636  0.11483  1.0000
  H   H5902     1.0  0.61468  0.93662  0.07711  1.0000
  H   H5903     1.0  0.53159  0.84881  0.08330  1.0000
  H   H5904     1.0  0.54142  0.84829  0.06286  1.0000
  H   H5905     1.0  0.56282  0.84667  0.05617  1.0000
  H   H5906     1.0  0.57459  0.84570  0.07025  1.0000
  H   H5907     1.0  0.56504  0.84562  0.09106  1.0000
  H   H5908     1.0  0.54969  0.86710  0.09598  1.0000
  C   C7361     1.0  0.56707  0.84499  0.18569  1.0000
  C   C7362     1.0  0.57633  0.84835  0.18758  1.0000
  C   C7363     1.0  0.57415  0.85858  0.19167  1.0000
  C   C7364     1.0  0.56275  0.86552  0.19384  1.0000
  C   C7365     1.0  0.55343  0.86226  0.19185  1.0000
  C   C7366     1.0  0.55567  0.85193  0.18779  1.0000
  P   P245      1.0  0.53875  0.87140  0.19386  1.0000
  C   C7367     1.0  0.53918  0.88558  0.19551  1.0000
  C   C7368     1.0  0.53396  0.87348  0.18044  1.0000
  C   C7369     1.0  0.54211  0.87451  0.16958  1.0000
  C   C7370     1.0  0.53850  0.87638  0.15914  1.0000
  C   C7371     1.0  0.52676  0.87721  0.15941  1.0000
  C   C7372     1.0  0.51862  0.87611  0.17014  1.0000
  C   C7373     1.0  0.52219  0.87423  0.18061  1.0000
  C   C7374     1.0  0.54346  0.89377  0.18570  1.0000
  C   C7375     1.0  0.54370  0.90479  0.18688  1.0000
  C   C7376     1.0  0.53961  0.90774  0.19783  1.0000
  C   C7377     1.0  0.53562  0.89959  0.20771  1.0000
  C   C7378     1.0  0.53553  0.88848  0.20661  1.0000
  C   C7379     1.0  0.52905  0.86452  0.20656  1.0000
  C   C7380     1.0  0.53275  0.85292  0.21254  1.0000
  H   H5909     1.0  0.50127  0.87064  0.22336  1.0000
  C   C7381     1.0  0.50967  0.75470  0.07454  1.0000
  H   H5910     1.0  0.55394  0.78320  0.99400  1.0000
  C   C7382     1.0  0.51769  0.87085  0.21070  1.0000
  H   H5911     1.0  0.56878  0.83716  0.18235  1.0000
  H   H5912     1.0  0.58523  0.84319  0.18563  1.0000
  H   H5913     1.0  0.58139  0.86145  0.19264  1.0000
  H   H5914     1.0  0.56137  0.87361  0.19664  1.0000
  H   H5915     1.0  0.54860  0.84938  0.18605  1.0000
  H   H5916     1.0  0.55121  0.87417  0.16912  1.0000
  H   H5917     1.0  0.54477  0.87750  0.15080  1.0000
  H   H5918     1.0  0.52390  0.87910  0.15128  1.0000
  C   C7383     1.0  0.63275  0.97933  0.23943  1.0000
  H   H5919     1.0  0.51561  0.87383  0.18871  1.0000
  H   H5920     1.0  0.54659  0.89174  0.17710  1.0000
  H   H5921     1.0  0.54701  0.91106  0.17929  1.0000
  H   H5922     1.0  0.53964  0.91634  0.19866  1.0000
  H   H5923     1.0  0.53247  0.90199  0.21619  1.0000
  H   H5924     1.0  0.53246  0.88231  0.21440  1.0000
  H   H5925     1.0  0.54149  0.84783  0.20975  1.0000
  C   C7384     1.0  0.51457  0.86777  0.00590  1.0000
  H   H5926     1.0  0.50728  0.77958  0.03974  1.0000
  C   C7385     1.0  0.50091  0.89970  0.05665  1.0000
  H   H5927     1.0  0.51470  0.87987  0.20646  1.0000
  H   H5928     1.0  0.55545  0.78388  0.07070  1.0000
  H   H5929     1.0  0.49653  0.94561  0.18302  1.0000
  H   H5930     1.0  0.50898  0.78274  0.05908  1.0000
  H   H5931     1.0  0.54729  0.93923  0.14274  1.0000
  C   C7386     1.0  0.51126  0.87509  0.99564  1.0000
  Fe  Fe507     1.0  0.50672  0.83852  0.05457  1.0000
  S   S1003     1.0  0.51774  0.98831  0.10866  1.0000
  C   C7387     1.0  0.57193  0.97617  0.10100  1.0000
  H   H5932     1.0  0.52219  0.79819  0.09732  1.0000
  C   C7388     1.0  0.55441  0.86370  0.99767  1.0000
  H   H5933     1.0  0.50844  0.94041  0.14743  1.0000
  C   C7389     1.0  0.56571  0.98481  0.10745  1.0000
  S   S1004     1.0  0.55653  0.98878  0.18207  1.0000
  H   H5934     1.0  0.54592  0.80422  0.06356  1.0000
  H   H5935     1.0  0.52567  0.90566  0.14807  1.0000
  S   S1005     1.0  0.49927  0.85793  0.05246  1.0000
  C   C7390     1.0  0.59443  0.98244  0.10593  1.0000
  C   C7391     1.0  0.52558  0.94582  0.06603  1.0000
  C   C7392     1.0  0.53502  0.93875  0.07094  1.0000
  C   C7393     1.0  0.50333  0.74988  0.03672  1.0000
  H   H5936     1.0  0.54217  0.94242  0.07089  1.0000
  C   C7394     1.0  0.60870  0.91047  0.15243  1.0000
  C   C7395     1.0  0.60356  0.90144  0.15283  1.0000
  C   C7396     1.0  0.59513  0.90355  0.14630  1.0000
  C   C7397     1.0  0.59163  0.91474  0.13954  1.0000
  C   C7398     1.0  0.59680  0.92388  0.13905  1.0000
  C   C7399     1.0  0.60532  0.92166  0.14560  1.0000
  P   P246      1.0  0.59292  0.93826  0.12985  1.0000
  C   C7400     1.0  0.60650  0.94301  0.12270  1.0000
  C   C7401     1.0  0.58578  0.93673  0.11938  1.0000
  C   C7402     1.0  0.59237  0.93363  0.10875  1.0000
  C   C7403     1.0  0.58695  0.93087  0.10148  1.0000
  C   C7404     1.0  0.57494  0.93120  0.10473  1.0000
  C   C7405     1.0  0.56828  0.93441  0.11521  1.0000
  C   C7406     1.0  0.57365  0.93721  0.12251  1.0000
  C   C7407     1.0  0.61642  0.93515  0.11784  1.0000
  C   C7408     1.0  0.62712  0.93854  0.11276  1.0000
  C   C7409     1.0  0.62803  0.94976  0.11261  1.0000
  C   C7410     1.0  0.61830  0.95755  0.11763  1.0000
  C   C7411     1.0  0.60761  0.95418  0.12274  1.0000
  C   C7412     1.0  0.58300  0.94874  0.13817  1.0000
  C   C7413     1.0  0.58122  0.94637  0.15040  1.0000
  C   C7414     1.0  0.57391  0.95475  0.15672  1.0000
  C   C7415     1.0  0.56884  0.96581  0.15080  1.0000
  C   C7416     1.0  0.57067  0.96829  0.13858  1.0000
  C   C7417     1.0  0.57745  0.95968  0.13231  1.0000
  H   H5937     1.0  0.61514  0.90888  0.15760  1.0000
  H   H5938     1.0  0.60594  0.89284  0.15835  1.0000
  H   H5939     1.0  0.59119  0.89652  0.14657  1.0000
  H   H5940     1.0  0.58495  0.91610  0.13474  1.0000
  H   H5941     1.0  0.60930  0.92859  0.14550  1.0000
  H   H5942     1.0  0.60172  0.93298  0.10617  1.0000
  H   H5943     1.0  0.59208  0.92823  0.09341  1.0000
  H   H5944     1.0  0.57082  0.92882  0.09919  1.0000
  H   H5945     1.0  0.55895  0.93459  0.11770  1.0000
  H   H5946     1.0  0.56841  0.93934  0.13077  1.0000
  H   H5947     1.0  0.61595  0.92629  0.11823  1.0000
  H   H5948     1.0  0.63476  0.93237  0.10917  1.0000
  H   H5949     1.0  0.63636  0.95234  0.10889  1.0000
  H   H5950     1.0  0.61910  0.96609  0.11800  1.0000
  H   H5951     1.0  0.60045  0.96021  0.12709  1.0000
  H   H5952     1.0  0.58570  0.93822  0.15504  1.0000
  H   H5953     1.0  0.57248  0.95277  0.16620  1.0000
  H   H5954     1.0  0.56359  0.97246  0.15572  1.0000
  H   H5955     1.0  0.56700  0.97693  0.13394  1.0000
  H   H5956     1.0  0.57870  0.96167  0.12288  1.0000
  C   C7418     1.0  0.51531  0.78716  0.08458  1.0000
  H   H5957     1.0  0.60302  0.89612  0.22317  1.0000
  H   H5958     1.0  0.52502  0.85127  0.01308  1.0000
  C   C7419     1.0  0.52932  0.82295  0.00968  1.0000
  H   H5959     1.0  0.54221  0.82433  0.08867  1.0000
  C   C7420     1.0  0.58805  0.98821  0.06544  1.0000
  C   C7421     1.0  0.55519  0.98360  0.11552  1.0000
  C   C7422     1.0  0.51426  0.77984  0.09586  1.0000
  C   C7423     1.0  0.50093  0.86129  0.11203  1.0000
  C   C7424     1.0  0.51904  0.90710  0.06037  1.0000
  H   H5960     1.0  0.58669  0.86744  0.20735  1.0000
  C   C7425     1.0  0.56755  0.96613  0.10295  1.0000
  C   C7426     1.0  0.51481  0.98282  0.19032  1.0000
  H   H5961     1.0  0.50243  0.77391  0.11198  1.0000
  C   C7427     1.0  0.59397  0.96511  0.08616  1.0000
  H   H5962     1.0  0.55963  0.82482  0.09970  1.0000
  C   C7428     1.0  0.60452  0.96017  0.09003  1.0000
  S   S1006     1.0  0.51955  0.83850  0.06479  1.0000
  H   H5963     1.0  0.51313  0.75086  0.00120  1.0000
  H   H5964     1.0  0.51463  0.88796  0.04714  1.0000
  H   H5965     1.0  0.50942  0.87721  0.17033  1.0000
  C   C7429     1.0  0.59093  0.95956  0.07911  1.0000
  C   C7430     1.0  0.50987  0.93963  0.15599  1.0000
  H   H5966     1.0  0.49782  0.92175  0.11579  1.0000
  H   H5967     1.0  0.51948  0.76555  0.00274  1.0000
  C   C7431     1.0  0.55269  0.77565  0.07403  1.0000
  H   H5968     1.0  0.50812  0.97229  0.22485  1.0000
  C   C7432     1.0  0.55121  0.89622  0.22995  1.0000
  C   C7433     1.0  0.64204  0.93060  0.23246  1.0000
  C   C7434     1.0  0.51806  0.90763  0.15497  1.0000
  C   C7435     1.0  0.55624  0.84420  0.99499  1.0000
  C   C7436     1.0  0.55483  0.98276  0.21583  1.0000
  H   H5969     1.0  0.59594  0.94511  0.07044  1.0000
  C   C7437     1.0  0.54326  0.80817  0.99979  1.0000
  C   C7438     1.0  0.50327  0.94250  0.17590  1.0000
  C   C7439     1.0  0.50717  0.91352  0.15227  1.0000
  C   C7440     1.0  0.54780  0.97564  0.22414  1.0000
  H   H5970     1.0  0.50412  0.92996  0.09471  1.0000
  H   H5971     1.0  0.55972  0.75344  0.00502  1.0000
  C   C7441     1.0  0.49878  0.91730  0.08900  1.0000
  C   C7442     1.0  0.51007  0.86564  0.22037  1.0000
  H   H5972     1.0  0.54387  0.74563  0.08357  1.0000
  H   H5973     1.0  0.52770  0.81355  0.10277  1.0000
  C   C7443     1.0  0.54073  0.77536  0.07722  1.0000
  C   C7444     1.0  0.58745  0.90471  0.23399  1.0000
  C   C7445     1.0  0.50660  0.74365  0.02783  1.0000
  C   C7446     1.0  0.55438  0.81009  0.11246  1.0000
  H   H5974     1.0  0.54168  0.97278  0.22125  1.0000
  C   C7447     1.0  0.50093  0.94434  0.16479  1.0000
  C   C7448     1.0  0.55194  0.84059  0.00705  1.0000
  C   C7449     1.0  0.54870  0.97237  0.23595  1.0000
  C   C7450     1.0  0.50317  0.77951  0.10328  1.0000
  H   H5975     1.0  0.58760  0.99005  0.21959  1.0000
  H   H5976     1.0  0.56911  0.93038  0.23316  1.0000
  C   C7451     1.0  0.51065  0.96532  0.18835  1.0000
  C   C7452     1.0  0.57582  0.96142  0.18784  1.0000
  C   C7453     1.0  0.56713  0.95843  0.19766  1.0000
  C   C7454     1.0  0.56978  0.95447  0.20874  1.0000
  C   C7455     1.0  0.58110  0.95359  0.21003  1.0000
  C   C7456     1.0  0.58985  0.95667  0.20015  1.0000
  C   C7457     1.0  0.58715  0.96042  0.18906  1.0000
  P   P247      1.0  0.60452  0.95541  0.20169  1.0000
  C   C7458     1.0  0.60453  0.96533  0.21028  1.0000
  C   C7459     1.0  0.60982  0.94011  0.20787  1.0000
  C   C7460     1.0  0.61397  0.93651  0.21826  1.0000
  C   C7461     1.0  0.61840  0.92459  0.22256  1.0000
  C   C7462     1.0  0.61873  0.91625  0.21651  1.0000
  C   C7463     1.0  0.61407  0.91973  0.20650  1.0000
  C   C7464     1.0  0.60947  0.93158  0.20231  1.0000
  C   C7465     1.0  0.61511  0.96543  0.21270  1.0000
  C   C7466     1.0  0.49772  0.75574  0.07976  1.0000
  H   H5977     1.0  0.54507  0.84584  0.02362  1.0000
  C   C7467     1.0  0.59513  0.98292  0.21804  1.0000
  C   C7468     1.0  0.59456  0.97425  0.21287  1.0000
  C   C7469     1.0  0.61378  0.96008  0.18750  1.0000
  C   C7470     1.0  0.61314  0.97214  0.18283  1.0000
  C   C7471     1.0  0.61982  0.97602  0.17172  1.0000
  C   C7472     1.0  0.62726  0.96792  0.16518  1.0000
  C   C7473     1.0  0.62821  0.95592  0.16984  1.0000
  C   C7474     1.0  0.62149  0.95199  0.18092  1.0000
  H   H5978     1.0  0.57370  0.96463  0.17927  1.0000
  H   H5979     1.0  0.55836  0.95917  0.19662  1.0000
  H   H5980     1.0  0.56299  0.95208  0.21624  1.0000
  H   H5981     1.0  0.58305  0.95048  0.21867  1.0000
  H   H5982     1.0  0.59381  0.96253  0.18134  1.0000
  H   H5983     1.0  0.61368  0.94280  0.22314  1.0000
  C   C7475     1.0  0.51442  0.93653  0.17797  1.0000
  C   C7476     1.0  0.50931  0.90624  0.17578  1.0000
  H   H5984     1.0  0.61400  0.91327  0.20194  1.0000
  H   H5985     1.0  0.60587  0.93414  0.19454  1.0000
  H   H5986     1.0  0.62307  0.95904  0.21016  1.0000
  H   H5987     1.0  0.59705  0.98326  0.06491  1.0000
  H   H5988     1.0  0.58651  0.97484  0.21041  1.0000
  H   H5989     1.0  0.60723  0.97865  0.18759  1.0000
  C   C7477     1.0  0.64406  0.95939  0.23007  1.0000
  H   H5990     1.0  0.63213  0.97097  0.15641  1.0000
  H   H5991     1.0  0.63392  0.94964  0.16473  1.0000
  H   H5992     1.0  0.62229  0.94266  0.18407  1.0000
  C   C7478     1.0  0.59942  0.89934  0.23119  1.0000
  H   H5993     1.0  0.49972  0.84783  0.10439  1.0000
  C   C7479     1.0  0.56000  0.93343  0.23731  1.0000
  C   C7480     1.0  0.54958  0.84797  0.12249  1.0000
  H   H5994     1.0  0.60597  0.98956  0.22471  1.0000
  C   C7481     1.0  0.53988  0.81751  0.08633  1.0000
  H   H5995     1.0  0.55316  0.90426  0.22405  1.0000
  H   H5996     1.0  0.64851  0.95182  0.22626  1.0000
  H   H5997     1.0  0.58954  0.88345  0.21433  1.0000
  H   H5998     1.0  0.60713  0.96420  0.09546  1.0000
  H   H5999     1.0  0.61898  0.98535  0.16807  1.0000
  C   C7482     1.0  0.52086  0.93339  0.15824  1.0000
  H   H6000     1.0  0.51470  0.96259  0.17087  1.0000
  H   H6001     1.0  0.54717  0.98288  0.14360  1.0000
  C   C7483     1.0  0.57654  0.75084  0.99293  1.0000
  C   C7484     1.0  0.51466  0.96838  0.17621  1.0000
  C   C7485     1.0  0.53171  0.81142  0.09424  1.0000
  C   C7486     1.0  0.51380  0.85409  0.22621  1.0000
  C   C7487     1.0  0.59837  0.94933  0.07588  1.0000
  P   P248      1.0  0.58463  0.97879  0.08950  1.0000
  C   C7488     1.0  0.49826  0.90835  0.06311  1.0000
  S   S1007     1.0  0.50512  0.90087  0.22242  1.0000
  C   C7489     1.0  0.55614  0.94460  0.23980  1.0000
  H   H6002     1.0  0.55558  0.85038  0.13657  1.0000
  C   C7490     1.0  0.52164  0.89859  0.05375  1.0000
  H   H6003     1.0  0.54701  0.83991  0.12754  1.0000
  P   P249      1.0  0.50367  0.92329  0.07352  1.0000
  S   S1008     1.0  0.60641  0.97541  0.14118  1.0000
  C   C7491     1.0  0.53656  0.81090  0.99128  1.0000
  H   H6004     1.0  0.54481  0.81193  0.01551  1.0000
  H   H6005     1.0  0.53540  0.78344  0.03533  1.0000
  H   H6006     1.0  0.50494  0.87407  0.11860  1.0000
  C   C7492     1.0  0.60891  0.94454  0.07965  1.0000
  C   C7493     1.0  0.50583  0.77525  0.06503  1.0000
  C   C7494     1.0  0.59267  0.98622  0.09442  1.0000
  C   C7495     1.0  0.51763  0.84683  0.10455  1.0000
  C   C7496     1.0  0.58781  0.87547  0.22050  1.0000
  H   H6007     1.0  0.52626  0.90966  0.06174  1.0000
  C   C7497     1.0  0.55439  0.85388  0.12766  1.0000
  C   C7498     1.0  0.52669  0.97520  0.10482  1.0000
  C   C7499     1.0  0.61196  0.94995  0.08674  1.0000
  H   H6008     1.0  0.50892  0.94682  0.06271  1.0000
  C   C7500     1.0  0.60047  0.98819  0.10992  1.0000
  C   C7501     1.0  0.53512  0.92696  0.07617  1.0000
  H   H6009     1.0  0.52548  0.95499  0.06206  1.0000
  C   C7502     1.0  0.55294  0.82203  0.10715  1.0000
  S   S1009     1.0  0.51973  0.83999  0.03720  1.0000
  S   S1010     1.0  0.49681  0.82386  0.06149  1.0000
  H   H6010     1.0  0.53299  0.84509  0.99408  1.0000
  S   S1011     1.0  0.58464  0.74845  0.00351  1.0000
  H   H6011     1.0  0.51463  0.98840  0.19590  1.0000
  H   H6012     1.0  0.55813  0.87744  0.10519  1.0000
  H   H6013     1.0  0.62146  0.92176  0.23066  1.0000
  H   H6014     1.0  0.50264  0.81666  0.02932  1.0000
  C   C7503     1.0  0.54275  0.99167  0.14466  1.0000
  H   H6015     1.0  0.53071  0.89466  0.05026  1.0000
  H   H6016     1.0  0.58866  0.88129  0.23524  1.0000
  H   H6017     1.0  0.56207  0.80385  0.10905  1.0000
  H   H6018     1.0  0.64901  0.91976  0.21967  1.0000
  C   C7504     1.0  0.64071  0.98033  0.22858  1.0000
  H   H6019     1.0  0.53828  0.98330  0.08981  1.0000
  H   H6020     1.0  0.53168  0.92711  0.17094  1.0000
  C   C7505     1.0  0.52486  0.76595  0.01796  1.0000
  H   H6021     1.0  0.65259  0.97113  0.21551  1.0000
  C   C7506     1.0  0.49842  0.91227  0.17312  1.0000
  C   C7507     1.0  0.51044  0.97375  0.23221  1.0000
  C   C7508     1.0  0.53962  0.81414  0.00896  1.0000
  H   H6022     1.0  0.50411  0.80202  0.01805  1.0000
  C   C7509     1.0  0.54984  0.86012  0.00966  1.0000
  H   H6023     1.0  0.51964  0.97009  0.13897  1.0000
  H   H6024     1.0  0.55351  0.95731  0.11251  1.0000
  H   H6025     1.0  0.55511  0.91767  0.23784  1.0000
  H   H6026     1.0  0.54238  0.92148  0.08008  1.0000
  H   H6027     1.0  0.51627  0.93518  0.18647  1.0000
  H   H6028     1.0  0.62012  0.94624  0.08968  1.0000
  C   C7510     1.0  0.58617  0.86643  0.21661  1.0000
  C   C7511     1.0  0.55754  0.86446  0.12141  1.0000
  H   H6029     1.0  0.50551  0.80028  0.07259  1.0000
  C   C7512     1.0  0.53175  0.78940  0.04124  1.0000
  H   H6030     1.0  0.52755  0.89939  0.16869  1.0000
  Fe  Fe508     1.0  0.49942  0.90837  0.20533  1.0000
  C   C7513     1.0  0.53606  0.81427  0.12657  1.0000
  C   C7514     1.0  0.64964  0.92112  0.22788  1.0000
  H   H6031     1.0  0.56488  0.74632  0.07817  1.0000
  H   H6032     1.0  0.53355  0.76057  0.01558  1.0000
  C   C7515     1.0  0.54593  0.80620  0.12214  1.0000
  C   C7516     1.0  0.53457  0.82621  0.12125  1.0000
  C   C7517     1.0  0.54866  0.84856  0.01434  1.0000
  S   S1012     1.0  0.49916  0.92673  0.20534  1.0000
  C   C7518     1.0  0.50731  0.91203  0.06517  1.0000
  P   P250      1.0  0.52247  0.98298  0.15519  1.0000
  C   C7519     1.0  0.51845  0.97888  0.17098  1.0000
  C   C7520     1.0  0.53061  0.96945  0.15057  1.0000
  C   C7521     1.0  0.54001  0.96249  0.15572  1.0000
  C   C7522     1.0  0.54603  0.95167  0.15286  1.0000
  C   C7523     1.0  0.54272  0.94768  0.14484  1.0000
  C   C7524     1.0  0.53324  0.95442  0.13984  1.0000
  C   C7525     1.0  0.52709  0.96521  0.14278  1.0000
  C   C7526     1.0  0.51855  0.98611  0.17813  1.0000
  C   C7527     1.0  0.61559  0.97407  0.21797  1.0000
  C   C7528     1.0  0.55432  0.87510  0.23421  1.0000
  H   H6033     1.0  0.55029  0.99050  0.12017  1.0000
  C   C7529     1.0  0.65798  0.91336  0.23394  1.0000
  C   C7530     1.0  0.57996  0.98773  0.07631  1.0000
  C   C7531     1.0  0.51619  0.94113  0.06643  1.0000
  C   C7532     1.0  0.49652  0.91787  0.10937  1.0000
  C   C7533     1.0  0.50015  0.92245  0.09739  1.0000
  H   H6034     1.0  0.50670  0.87750  0.23833  1.0000
  C   C7534     1.0  0.52127  0.96781  0.23505  1.0000
  Fe  Fe509     1.0  0.59385  0.98897  0.15092  1.0000
  H   H6035     1.0  0.66383  0.90597  0.23043  1.0000
  H   H6036     1.0  0.52542  0.99117  0.22602  1.0000
  H   H6037     1.0  0.55103  0.83164  0.01076  1.0000
  C   C7535     1.0  0.60653  0.89749  0.23919  1.0000
  C   C7536     1.0  0.56426  0.75326  0.99603  1.0000
  H   H6038     1.0  0.60153  0.98542  0.11889  1.0000
  C   C7537     1.0  0.49826  0.99138  0.15707  1.0000
  C   C7538     1.0  0.49923  0.81093  0.01563  1.0000
  C   C7539     1.0  0.53015  0.74381  0.99142  1.0000
  H   H6039     1.0  0.59294  0.96170  0.24035  1.0000
  H   H6040     1.0  0.51874  0.99233  0.13133  1.0000
  C   C7540     1.0  0.58450  0.86429  0.24059  1.0000
  C   C7541     1.0  0.55208  0.92624  0.23997  1.0000
  C   C7542     1.0  0.54301  0.89660  0.24062  1.0000
  H   H6041     1.0  0.79989  0.87994  0.44199  1.0000
  H   H6042     1.0  0.59643  0.94309  0.28313  1.0000
  Fe  Fe510     1.0  0.49756  0.95446  0.36034  1.0000
  H   H6043     1.0  0.53802  0.98213  0.25807  1.0000
  H   H6044     1.0  0.54522  0.98771  0.32824  1.0000
  P   P251      1.0  0.63253  0.94443  0.24907  1.0000
  C   C7543     1.0  0.60296  0.92828  0.49045  1.0000
  C   C7544     1.0  0.95088  0.86841  0.48078  1.0000
  S   S1013     1.0  0.51171  0.93967  0.36657  1.0000
  H   H6045     1.0  0.67393  0.97044  0.48183  1.0000
  H   H6046     1.0  0.66510  0.90899  0.24934  1.0000
  C   C7545     1.0  0.95011  0.74856  0.47592  1.0000
  H   H6047     1.0  0.56725  0.96305  0.26754  1.0000
  Fe  Fe511     1.0  0.50969  0.94968  0.38021  1.0000
  S   S1014     1.0  0.52452  0.95368  0.38498  1.0000
  C   C7546     1.0  0.97807  0.75040  0.46587  1.0000
  H   H6048     1.0  0.50979  0.90402  0.25201  1.0000
  C   C7547     1.0  0.61068  0.99149  0.43698  1.0000
  C   C7548     1.0  0.65111  0.92455  0.24919  1.0000
  C   C7549     1.0  0.97861  0.85291  0.44502  1.0000
  H   H6049     1.0  0.86789  0.88185  0.46724  1.0000
  C   C7550     1.0  0.79719  0.99191  0.41078  1.0000
  S   S1015     1.0  0.99244  0.88647  0.48739  1.0000
  C   C7551     1.0  0.54421  0.94885  0.24445  1.0000
  H   H6050     1.0  0.89313  0.98161  0.47299  1.0000
  Fe  Fe512     1.0  0.50521  0.91211  0.30534  1.0000
  S   S1016     1.0  0.52063  0.92052  0.29998  1.0000
  C   C7552     1.0  0.97848  0.86453  0.43895  1.0000
  H   H6051     1.0  0.53403  0.92480  0.24683  1.0000
  S   S1017     1.0  0.61058  0.97480  0.33955  1.0000
  Fe  Fe513     1.0  0.66116  0.98655  0.41409  1.0000
  Fe  Fe514     1.0  0.58125  0.96705  0.34173  1.0000
  S   S1018     1.0  0.59565  0.95406  0.34955  1.0000
  S   S1019     1.0  0.56518  0.96254  0.34018  1.0000
  Fe  Fe515     1.0  0.59765  0.96896  0.35589  1.0000
  S   S1020     1.0  0.60006  0.96566  0.37461  1.0000
  Fe  Fe516     1.0  0.60759  0.96071  0.33283  1.0000
  S   S1021     1.0  0.62308  0.94831  0.32422  1.0000
  S   S1022     1.0  0.58190  0.98145  0.34952  1.0000
  S   S1023     1.0  0.59309  0.97251  0.32437  1.0000
  C   C7553     1.0  0.81293  0.91364  0.46596  1.0000
  H   H6052     1.0  0.53842  0.90506  0.24267  1.0000
  H   H6053     1.0  0.77760  0.86487  0.48131  1.0000
  Fe  Fe517     1.0  0.67246  0.96109  0.41289  1.0000
  C   C7554     1.0  0.96444  0.90881  0.43273  1.0000
  S   S1024     1.0  0.69067  0.95012  0.40755  1.0000
  H   H6054     1.0  0.86258  0.92206  0.46478  1.0000
  H   H6055     1.0  0.60084  0.92447  0.25389  1.0000
  C   C7555     1.0  0.82391  0.89753  0.45650  1.0000
  H   H6056     1.0  0.81923  0.86980  0.44697  1.0000
  S   S1025     1.0  0.65519  0.95620  0.41589  1.0000
  C   C7556     1.0  0.77699  0.97696  0.42805  1.0000
  C   C7557     1.0  0.80487  0.95778  0.40568  1.0000
  H   H6057     1.0  0.55314  0.92695  0.35575  1.0000
  Fe  Fe518     1.0  0.60305  0.90705  0.30046  1.0000
  S   S1026     1.0  0.58373  0.91328  0.30715  1.0000
  S   S1027     1.0  0.61604  0.90421  0.31145  1.0000
  Fe  Fe519     1.0  0.58219  0.89873  0.30015  1.0000
  S   S1028     1.0  0.56910  0.88748  0.30863  1.0000
  C   C7558     1.0  0.56602  0.90051  0.35379  1.0000
  H   H6058     1.0  0.59020  0.98140  0.28309  1.0000
  S   S1029     1.0  0.60154  0.89154  0.29486  1.0000
  C   C7559     1.0  0.90649  0.90888  0.48108  1.0000
  H   H6059     1.0  0.52369  0.87935  0.36023  1.0000
  Fe  Fe520     1.0  0.74810  0.93560  0.45598  1.0000
  S   S1030     1.0  0.75028  0.91714  0.45448  1.0000
  S   S1031     1.0  0.74347  0.94253  0.47237  1.0000
  Fe  Fe521     1.0  0.75089  0.94500  0.42989  1.0000
  S   S1032     1.0  0.75321  0.92751  0.42587  1.0000
  S   S1033     1.0  0.74952  0.96211  0.41701  1.0000
  Fe  Fe522     1.0  0.73847  0.92515  0.44171  1.0000
  S   S1034     1.0  0.72194  0.91929  0.44377  1.0000
  Fe  Fe523     1.0  0.76489  0.92118  0.43888  1.0000
  S   S1035     1.0  0.78216  0.90805  0.43560  1.0000
  S   S1036     1.0  0.73521  0.94321  0.44448  1.0000
  S   S1037     1.0  0.76371  0.93897  0.44154  1.0000
  H   H6060     1.0  0.82896  0.98400  0.42430  1.0000
  H   H6061     1.0  0.62453  0.83911  0.25407  1.0000
  H   H6062     1.0  0.99474  0.89189  0.41971  1.0000
  H   H6063     1.0  0.89637  0.97344  0.45575  1.0000
  C   C7560     1.0  0.51629  0.88146  0.24855  1.0000
  Fe  Fe524     1.0  0.89877  0.94672  0.48348  1.0000
  S   S1038     1.0  0.90422  0.94922  0.46385  1.0000
  C   C7561     1.0  0.98529  0.77161  0.45779  1.0000
  H   H6064     1.0  0.63461  0.97485  0.27346  1.0000
  H   H6065     1.0  0.72103  0.95592  0.38243  1.0000
  S   S1039     1.0  0.50064  0.96214  0.34107  1.0000
  Fe  Fe525     1.0  0.83388  0.93464  0.43395  1.0000
  S   S1040     1.0  0.82183  0.95254  0.43266  1.0000
  S   S1041     1.0  0.83171  0.91839  0.43014  1.0000
  Fe  Fe526     1.0  0.85368  0.94257  0.43851  1.0000
  S   S1042     1.0  0.84330  0.96105  0.43775  1.0000
  S   S1043     1.0  0.87312  0.93611  0.43779  1.0000
  Fe  Fe527     1.0  0.82811  0.95290  0.44817  1.0000
  S   S1044     1.0  0.81623  0.96133  0.46274  1.0000
  H   H6066     1.0  0.84330  0.99228  0.38729  1.0000
  C   C7562     1.0  0.84376  0.88261  0.43660  1.0000
  S   S1045     1.0  0.83897  0.93440  0.45041  1.0000
  S   S1046     1.0  0.84943  0.94134  0.42223  1.0000
  C   C7563     1.0  0.94789  0.90928  0.44951  1.0000
  C   C7564     1.0  0.99298  0.76133  0.45493  1.0000
  C   C7565     1.0  0.78608  0.96824  0.42348  1.0000
  H   H6067     1.0  0.84291  0.89198  0.43306  1.0000
  H   H6068     1.0  0.50434  0.85724  0.27357  1.0000
  C   C7566     1.0  0.52615  0.90687  0.26920  1.0000
  H   H6069     1.0  0.82271  0.92042  0.47376  1.0000
  C   C7567     1.0  0.51435  0.96837  0.30524  1.0000
  C   C7568     1.0  0.80919  0.95172  0.47427  1.0000
  C   C7569     1.0  0.80909  0.95169  0.48578  1.0000
  C   C7570     1.0  0.54025  0.93026  0.24502  1.0000
  H   H6070     1.0  0.84071  0.98550  0.43649  1.0000
  C   C7571     1.0  0.79681  0.93763  0.48164  1.0000
  C   C7572     1.0  0.80312  0.94462  0.47215  1.0000
  H   H6071     1.0  0.50630  0.93307  0.26702  1.0000
  S   S1047     1.0  0.49660  0.96502  0.37299  1.0000
  H   H6072     1.0  0.79179  0.93241  0.48009  1.0000
  H   H6073     1.0  0.80302  0.94479  0.46324  1.0000
  C   C7573     1.0  0.96591  0.78165  0.43124  1.0000
  C   C7574     1.0  0.78263  0.99006  0.48263  1.0000
  S   S1048     1.0  0.60377  0.91868  0.28249  1.0000
  S   S1049     1.0  0.98434  0.81887  0.42269  1.0000
  C   C7575     1.0  0.77780  0.92283  0.46613  1.0000
  H   H6074     1.0  0.87128  0.87057  0.48666  1.0000
  C   C7576     1.0  0.97009  0.76079  0.46826  1.0000
  H   H6075     1.0  0.87851  0.91291  0.45041  1.0000
  C   C7577     1.0  0.92377  0.96624  0.46234  1.0000
  C   C7578     1.0  0.73738  0.94386  0.38420  1.0000
  C   C7579     1.0  0.60779  0.82002  0.34601  1.0000
  C   C7580     1.0  0.76518  0.97920  0.39331  1.0000
  C   C7581     1.0  0.56122  0.89467  0.25966  1.0000
  C   C7582     1.0  0.61836  0.97449  0.29495  1.0000
  C   C7583     1.0  0.60872  0.84181  0.29732  1.0000
  H   H6076     1.0  0.98831  0.76674  0.41136  1.0000
  C   C7584     1.0  0.89504  0.94601  0.45688  1.0000
  C   C7585     1.0  0.88349  0.94506  0.46251  1.0000
  C   C7586     1.0  0.87637  0.94261  0.45656  1.0000
  C   C7587     1.0  0.88093  0.94080  0.44511  1.0000
  C   C7588     1.0  0.89251  0.94164  0.43960  1.0000
  C   C7589     1.0  0.89946  0.94443  0.44538  1.0000
  H   H6077     1.0  0.88010  0.94623  0.47142  1.0000
  H   H6078     1.0  0.86752  0.94176  0.46090  1.0000
  H   H6079     1.0  0.89613  0.94014  0.43080  1.0000
  H   H6080     1.0  0.90837  0.94514  0.44099  1.0000
  C   C7590     1.0  0.79561  0.91208  0.43319  1.0000
  C   C7591     1.0  0.80597  0.90420  0.42935  1.0000
  C   C7592     1.0  0.81692  0.90646  0.42818  1.0000
  C   C7593     1.0  0.81767  0.91657  0.43095  1.0000
  C   C7594     1.0  0.80736  0.92468  0.43453  1.0000
  C   C7595     1.0  0.79631  0.92251  0.43547  1.0000
  H   H6081     1.0  0.80552  0.89631  0.42723  1.0000
  H   H6082     1.0  0.82483  0.90028  0.42519  1.0000
  H   H6083     1.0  0.80794  0.93249  0.43668  1.0000
  H   H6084     1.0  0.78840  0.92882  0.43804  1.0000
  H   H6085     1.0  0.66987  0.94688  0.48979  1.0000
  H   H6086     1.0  0.61858  0.93388  0.29219  1.0000
  C   C7596     1.0  0.63676  0.98544  0.44933  1.0000
  C   C7597     1.0  0.75841  0.97631  0.47381  1.0000
  H   H6087     1.0  0.64898  0.94876  0.28008  1.0000
  C   C7598     1.0  0.58166  0.84478  0.27554  1.0000
  H   H6088     1.0  0.83336  0.87459  0.47663  1.0000
  H   H6089     1.0  0.84941  0.86132  0.46064  1.0000
  H   H6090     1.0  0.75002  0.96142  0.44080  1.0000
  H   H6091     1.0  0.66000  0.98687  0.24322  1.0000
  H   H6092     1.0  0.84101  0.93144  0.47508  1.0000
  C   C7599     1.0  0.61873  0.84754  0.25508  1.0000
  H   H6093     1.0  0.65172  0.92560  0.25753  1.0000
  H   H6094     1.0  0.60758  0.95847  0.27216  1.0000
  H   H6095     1.0  0.52558  0.90771  0.36860  1.0000
  C   C7600     1.0  0.69909  0.94241  0.41810  1.0000
  C   C7601     1.0  0.71138  0.94017  0.41459  1.0000
  C   C7602     1.0  0.71840  0.93351  0.42259  1.0000
  C   C7603     1.0  0.71317  0.92865  0.43405  1.0000
  C   C7604     1.0  0.70086  0.93088  0.43761  1.0000
  C   C7605     1.0  0.69383  0.93790  0.42968  1.0000
  H   H6096     1.0  0.71547  0.94361  0.40565  1.0000
  H   H6097     1.0  0.72787  0.93183  0.41976  1.0000
  H   H6098     1.0  0.69678  0.92709  0.44645  1.0000
  H   H6099     1.0  0.68437  0.93938  0.43233  1.0000
  C   C7606     1.0  0.71307  0.97447  0.40522  1.0000
  P   P252      1.0  0.84762  0.88698  0.45620  1.0000
  H   H6100     1.0  0.76153  0.85867  0.47768  1.0000
  H   H6101     1.0  0.61971  0.97607  0.36004  1.0000
  C   C7607     1.0  0.64193  0.94664  0.26657  1.0000
  H   H6102     1.0  0.83805  0.95273  0.46704  1.0000
  C   C7608     1.0  0.55435  0.98200  0.29553  1.0000
  C   C7609     1.0  0.80851  0.98523  0.39309  1.0000
  C   C7610     1.0  0.62029  0.93607  0.32141  1.0000
  C   C7611     1.0  0.62934  0.92598  0.32099  1.0000
  C   C7612     1.0  0.62781  0.91625  0.31811  1.0000
  C   C7613     1.0  0.61738  0.91665  0.31519  1.0000
  C   C7614     1.0  0.60829  0.92678  0.31548  1.0000
  C   C7615     1.0  0.60965  0.93641  0.31886  1.0000
  H   H6103     1.0  0.63759  0.92570  0.32291  1.0000
  H   H6104     1.0  0.63485  0.90846  0.31790  1.0000
  H   H6105     1.0  0.60020  0.92716  0.31320  1.0000
  H   H6106     1.0  0.60260  0.94419  0.31919  1.0000
  C   C7616     1.0  0.61260  0.96788  0.37774  1.0000
  C   C7617     1.0  0.62080  0.97332  0.36898  1.0000
  C   C7618     1.0  0.76865  0.88320  0.47945  1.0000
  H   H6107     1.0  0.60748  0.86953  0.31475  1.0000
  C   C7619     1.0  0.62382  0.96644  0.39216  1.0000
  C   C7620     1.0  0.61417  0.96443  0.38934  1.0000
  Fe  Fe528     1.0  0.83796  0.95922  0.42236  1.0000
  H   H6108     1.0  0.98244  0.79719  0.47279  1.0000
  H   H6109     1.0  0.62502  0.96361  0.40108  1.0000
  H   H6110     1.0  0.60789  0.96020  0.39618  1.0000
  C   C7621     1.0  0.53389  0.91115  0.30273  1.0000
  C   C7622     1.0  0.53537  0.89895  0.30532  1.0000
  C   C7623     1.0  0.54611  0.89163  0.30744  1.0000
  C   C7624     1.0  0.55540  0.89652  0.30682  1.0000
  C   C7625     1.0  0.55390  0.90872  0.30424  1.0000
  C   C7626     1.0  0.54316  0.91602  0.30222  1.0000
  H   H6111     1.0  0.52831  0.89517  0.30550  1.0000
  H   H6112     1.0  0.54728  0.88223  0.30927  1.0000
  H   H6113     1.0  0.56099  0.91261  0.30379  1.0000
  H   H6114     1.0  0.54204  0.92545  0.30026  1.0000
  C   C7627     1.0  0.59372  0.96940  0.26374  1.0000
  H   H6115     1.0  0.79739  0.97660  0.47661  1.0000
  H   H6116     1.0  0.86413  0.97356  0.43577  1.0000
  H   H6117     1.0  0.94426  0.93467  0.42874  1.0000
  C   C7628     1.0  0.75086  0.95045  0.39083  1.0000
  C   C7629     1.0  0.70990  0.93062  0.47191  1.0000
  C   C7630     1.0  0.55408  0.96022  0.35279  1.0000
  C   C7631     1.0  0.55463  0.96186  0.36353  1.0000
  C   C7632     1.0  0.54536  0.96015  0.37337  1.0000
  C   C7633     1.0  0.53564  0.95675  0.37247  1.0000
  C   C7634     1.0  0.53507  0.95540  0.36164  1.0000
  C   C7635     1.0  0.54433  0.95694  0.35188  1.0000
  H   H6118     1.0  0.56212  0.96451  0.36423  1.0000
  H   H6119     1.0  0.54568  0.96154  0.38165  1.0000
  H   H6120     1.0  0.52750  0.95320  0.36069  1.0000
  H   H6121     1.0  0.54380  0.95576  0.34357  1.0000
  C   C7636     1.0  0.94451  0.92379  0.48360  1.0000
  C   C7637     1.0  0.98364  0.86871  0.45499  1.0000
  H   H6122     1.0  0.89960  0.98829  0.43719  1.0000
  C   C7638     1.0  0.54624  0.87541  0.24496  1.0000
  C   C7639     1.0  0.59000  0.90717  0.25213  1.0000
  H   H6123     1.0  0.52224  0.96874  0.31875  1.0000
  C   C7640     1.0  0.51483  0.87013  0.26852  1.0000
  H   H6124     1.0  0.56768  0.88476  0.24625  1.0000
  H   H6125     1.0  0.94572  0.88518  0.48548  1.0000
  H   H6126     1.0  0.84783  0.96469  0.47288  1.0000
  C   C7641     1.0  0.93530  0.77850  0.47967  1.0000
  H   H6127     1.0  0.98813  0.77980  0.45488  1.0000
  C   C7642     1.0  0.86712  0.91013  0.43423  1.0000
  C   C7643     1.0  0.59836  0.81450  0.35074  1.0000
  H   H6128     1.0  0.56132  0.82804  0.28781  1.0000
  C   C7644     1.0  0.57244  0.86547  0.34050  1.0000
  H   H6129     1.0  0.62816  0.98705  0.24304  1.0000
  P   P253      1.0  0.53918  0.96357  0.24680  1.0000
  P   P254      1.0  0.77416  0.98941  0.47288  1.0000
  C   C7645     1.0  0.73986  0.92124  0.48617  1.0000
  C   C7646     1.0  0.73661  0.93343  0.48472  1.0000
  H   H6130     1.0  0.99154  0.85401  0.41741  1.0000
  C   C7647     1.0  0.94194  0.74350  0.48522  1.0000
  H   H6131     1.0  0.63255  0.85518  0.25542  1.0000
  H   H6132     1.0  0.74638  0.91747  0.47940  1.0000
  H   H6133     1.0  0.92478  0.96063  0.45642  1.0000
  H   H6134     1.0  0.61234  0.96270  0.24159  1.0000
  C   C7648     1.0  0.91931  0.91006  0.45793  1.0000
  C   C7649     1.0  0.60599  0.85212  0.28901  1.0000
  H   H6135     1.0  0.51415  0.88566  0.34329  1.0000
  H   H6136     1.0  0.57925  0.83121  0.29119  1.0000
  C   C7650     1.0  0.56464  0.89850  0.33501  1.0000
  C   C7651     1.0  0.57593  0.83631  0.28349  1.0000
  C   C7652     1.0  0.80032  0.98352  0.40383  1.0000
  C   C7653     1.0  0.52247  0.90020  0.33508  1.0000
  H   H6137     1.0  0.60341  0.84248  0.25449  1.0000
  C   C7654     1.0  0.96321  0.75918  0.43187  1.0000
  C   C7655     1.0  0.55092  0.96928  0.31482  1.0000
  H   H6138     1.0  0.56483  0.95410  0.31820  1.0000
  H   H6139     1.0  0.81378  0.95718  0.48742  1.0000
  H   H6140     1.0  0.49962  0.92377  0.25504  1.0000
  H   H6141     1.0  0.73919  0.98665  0.41123  1.0000
  P   P255      1.0  0.69302  0.95072  0.47648  1.0000
  H   H6142     1.0  0.74371  0.87346  0.47300  1.0000
  H   H6143     1.0  0.58693  0.94264  0.24675  1.0000
  C   C7656     1.0  0.84392  0.86349  0.43417  1.0000
  C   C7657     1.0  0.56188  0.96185  0.31184  1.0000
  H   H6144     1.0  0.78344  0.88802  0.45669  1.0000
  C   C7658     1.0  0.77726  0.90367  0.47898  1.0000
  C   C7659     1.0  0.60351  0.93275  0.25095  1.0000
  C   C7660     1.0  0.62139  0.93815  0.48955  1.0000
  H   H6145     1.0  0.74502  0.96776  0.39423  1.0000
  H   H6146     1.0  0.55187  0.87188  0.26633  1.0000
  C   C7661     1.0  0.51907  0.87904  0.25955  1.0000
  C   C7662     1.0  0.77319  0.96634  0.48525  1.0000
  C   C7663     1.0  0.77036  0.97758  0.38191  1.0000
  C   C7664     1.0  0.77083  0.90918  0.48834  1.0000
  C   C7665     1.0  0.80149  0.94782  0.40524  1.0000
  H   H6147     1.0  0.78028  0.92816  0.45753  1.0000
  C   C7666     1.0  0.84266  0.87558  0.42982  1.0000
  C   C7667     1.0  0.50027  0.95627  0.42698  1.0000
  C   C7668     1.0  0.76804  0.92141  0.48657  1.0000
  H   H6148     1.0  0.52711  0.94457  0.25113  1.0000
  H   H6149     1.0  0.82192  0.86769  0.46697  1.0000
  H   H6150     1.0  0.78501  0.90674  0.46029  1.0000
  C   C7669     1.0  0.60128  0.86012  0.33247  1.0000
  H   H6151     1.0  0.64095  0.98688  0.44012  1.0000
  C   C7670     1.0  0.79181  0.88364  0.45909  1.0000
  C   C7671     1.0  0.66091  0.94578  0.47737  1.0000
  C   C7672     1.0  0.66146  0.94638  0.46558  1.0000
  C   C7673     1.0  0.67163  0.94820  0.45713  1.0000
  C   C7674     1.0  0.68123  0.94950  0.46040  1.0000
  C   C7675     1.0  0.68050  0.94956  0.47211  1.0000
  C   C7676     1.0  0.67038  0.94741  0.48063  1.0000
  Fe  Fe529     1.0  0.98813  0.87400  0.47958  1.0000
  C   C7677     1.0  0.51487  0.98467  0.28853  1.0000
  H   H6152     1.0  0.62251  0.98047  0.48263  1.0000
  H   H6153     1.0  0.50867  0.95708  0.40866  1.0000
  C   C7678     1.0  0.78353  0.95530  0.44288  1.0000
  C   C7679     1.0  0.68869  0.95838  0.48824  1.0000
  C   C7680     1.0  0.78255  0.97406  0.37848  1.0000
  H   H6154     1.0  0.53943  0.98452  0.34977  1.0000
  C   C7681     1.0  0.49837  0.93817  0.33553  1.0000
  C   C7682     1.0  0.86485  0.98852  0.40307  1.0000
  H   H6155     1.0  0.81937  0.96437  0.40629  1.0000
  C   C7683     1.0  0.50795  0.86377  0.26648  1.0000
  H   H6156     1.0  0.49710  0.92225  0.35853  1.0000
  C   C7684     1.0  0.70168  0.95985  0.46519  1.0000
  C   C7685     1.0  0.69632  0.96942  0.45746  1.0000
  C   C7686     1.0  0.70299  0.97688  0.44912  1.0000
  C   C7687     1.0  0.71495  0.97500  0.44868  1.0000
  H   H6157     1.0  0.69890  0.98413  0.44299  1.0000
  C   C7688     1.0  0.61494  0.98549  0.28772  1.0000
  Fe  Fe530     1.0  0.49700  0.93200  0.37892  1.0000
  H   H6158     1.0  0.65404  0.94540  0.46297  1.0000
  H   H6159     1.0  0.67208  0.94850  0.44803  1.0000
  H   H6160     1.0  0.68924  0.95037  0.45381  1.0000
  C   C7689     1.0  0.71090  0.99069  0.37149  1.0000
  H   H6161     1.0  0.55891  0.97275  0.24784  1.0000
  H   H6162     1.0  0.92409  0.91038  0.44892  1.0000
  H   H6163     1.0  0.61829  0.96706  0.42571  1.0000
  C   C7690     1.0  0.88763  0.98922  0.47628  1.0000
  H   H6164     1.0  0.49703  0.94804  0.30689  1.0000
  C   C7691     1.0  0.50219  0.94074  0.32336  1.0000
  H   H6165     1.0  0.98310  0.78844  0.40836  1.0000
  S   S1050     1.0  0.49804  0.91255  0.38296  1.0000
  P   P256      1.0  0.95546  0.76049  0.47714  1.0000
  C   C7692     1.0  0.52105  0.98947  0.29343  1.0000
  H   H6166     1.0  0.68702  0.97116  0.45790  1.0000
  H   H6167     1.0  0.71351  0.99085  0.47709  1.0000
  H   H6168     1.0  0.72011  0.98071  0.44214  1.0000
  H   H6169     1.0  0.60221  0.96015  0.48328  1.0000
  H   H6170     1.0  0.50696  0.95175  0.24546  1.0000
  H   H6171     1.0  0.53192  0.92615  0.39057  1.0000
  C   C7693     1.0  0.59634  0.98849  0.48556  1.0000
  C   C7694     1.0  0.61584  0.86754  0.25681  1.0000
  C   C7695     1.0  0.95470  0.76923  0.42877  1.0000
  Fe  Fe531     1.0  0.60035  0.90383  0.27740  1.0000
  P   P257      1.0  0.79376  0.97088  0.40817  1.0000
  C   C7696     1.0  0.50930  0.87519  0.24661  1.0000
  C   C7697     1.0  0.60388  0.86949  0.25710  1.0000
  H   H6172     1.0  0.79235  0.94810  0.40592  1.0000
  H   H6173     1.0  0.49939  0.98950  0.25355  1.0000
  C   C7698     1.0  0.59914  0.86235  0.29265  1.0000
  C   C7699     1.0  0.49773  0.95169  0.24846  1.0000
  C   C7700     1.0  0.61456  0.98483  0.41573  1.0000
  H   H6174     1.0  0.55676  0.87589  0.34944  1.0000
  C   C7701     1.0  0.66704  0.99092  0.45662  1.0000
  C   C7702     1.0  0.61497  0.87146  0.33879  1.0000
  C   C7703     1.0  0.63190  0.97210  0.38341  1.0000
  H   H6175     1.0  0.80861  0.98789  0.43024  1.0000
  H   H6176     1.0  0.61937  0.87463  0.25719  1.0000
  C   C7704     1.0  0.56045  0.87079  0.34272  1.0000
  H   H6177     1.0  0.77416  0.98534  0.42246  1.0000
  C   C7705     1.0  0.81664  0.95699  0.40543  1.0000
  H   H6178     1.0  0.59838  0.87816  0.25755  1.0000
  H   H6179     1.0  0.53857  0.95245  0.31055  1.0000
  H   H6180     1.0  0.98093  0.84032  0.46109  1.0000
  H   H6181     1.0  0.69340  0.96616  0.43612  1.0000
  H   H6182     1.0  0.56938  0.88722  0.28568  1.0000
  H   H6183     1.0  0.58142  0.87002  0.27760  1.0000
  H   H6184     1.0  0.68775  0.98941  0.36176  1.0000
  C   C7706     1.0  0.56141  0.84125  0.27177  1.0000
  C   C7707     1.0  0.85051  0.87872  0.47032  1.0000
  C   C7708     1.0  0.87076  0.88606  0.44378  1.0000
  C   C7709     1.0  0.88000  0.89081  0.43602  1.0000
  C   C7710     1.0  0.87817  0.90286  0.43125  1.0000
  C   C7711     1.0  0.51635  0.97756  0.25123  1.0000
  C   C7712     1.0  0.51088  0.92436  0.26561  1.0000
  H   H6185     1.0  0.56344  0.85504  0.25639  1.0000
  H   H6186     1.0  0.71439  0.95585  0.43183  1.0000
  C   C7713     1.0  0.59769  0.97884  0.48082  1.0000
  H   H6187     1.0  0.87219  0.87665  0.44711  1.0000
  H   H6188     1.0  0.88853  0.88514  0.43354  1.0000
  H   H6189     1.0  0.88526  0.90661  0.42517  1.0000
  H   H6190     1.0  0.96343  0.89509  0.44828  1.0000
  C   C7714     1.0  0.58721  0.82044  0.34871  1.0000
  C   C7715     1.0  0.59922  0.86040  0.25655  1.0000
  C   C7716     1.0  0.57565  0.87610  0.26123  1.0000
  H   H6191     1.0  0.58047  0.88930  0.32503  1.0000
  H   H6192     1.0  0.56100  0.92099  0.32511  1.0000
  C   C7717     1.0  0.75865  0.89149  0.47654  1.0000
  C   C7718     1.0  0.97463  0.77165  0.43414  1.0000
  C   C7719     1.0  0.62905  0.97273  0.46733  1.0000
  C   C7720     1.0  0.53416  0.87903  0.27484  1.0000
  C   C7721     1.0  0.52640  0.87993  0.28573  1.0000
  C   C7722     1.0  0.53012  0.87423  0.29616  1.0000
  C   C7723     1.0  0.54168  0.86780  0.29582  1.0000
  C   C7724     1.0  0.54949  0.86697  0.28503  1.0000
  C   C7725     1.0  0.54573  0.87253  0.27457  1.0000
  C   C7726     1.0  0.61469  0.93321  0.25147  1.0000
  C   C7727     1.0  0.57640  0.89241  0.33307  1.0000
  H   H6193     1.0  0.53740  0.89026  0.36158  1.0000
  H   H6194     1.0  0.87245  0.98158  0.48298  1.0000
  H   H6195     1.0  0.55966  0.90001  0.32841  1.0000
  C   C7728     1.0  0.51281  0.90778  0.25735  1.0000
  P   P258      1.0  0.54459  0.91176  0.34703  1.0000
  H   H6196     1.0  0.74013  0.98403  0.37089  1.0000
  C   C7729     1.0  0.95349  0.74475  0.46531  1.0000
  C   C7730     1.0  0.86113  0.87768  0.47332  1.0000
  C   C7731     1.0  0.62512  0.93743  0.28505  1.0000
  C   C7732     1.0  0.93931  0.78917  0.45580  1.0000
  H   H6197     1.0  0.51740  0.88496  0.28616  1.0000
  H   H6198     1.0  0.52403  0.87486  0.30451  1.0000
  H   H6199     1.0  0.54457  0.86355  0.30392  1.0000
  Fe  Fe532     1.0  0.58420  0.92369  0.28872  1.0000
  C   C7733     1.0  0.57002  0.85810  0.32497  1.0000
  C   C7734     1.0  0.88898  0.97885  0.45205  1.0000
  C   C7735     1.0  0.76066  0.86781  0.47754  1.0000
  S   S1051     1.0  0.61033  0.89847  0.26018  1.0000
  C   C7736     1.0  0.72940  0.95469  0.38453  1.0000
  H   H6200     1.0  0.59212  0.88593  0.33975  1.0000
  H   H6201     1.0  0.52351  0.92240  0.27570  1.0000
  H   H6202     1.0  0.53348  0.90228  0.27332  1.0000
  C   C7737     1.0  0.98115  0.87232  0.44382  1.0000
  C   C7738     1.0  0.77157  0.92823  0.47547  1.0000
  H   H6203     1.0  0.58992  0.98578  0.38987  1.0000
  H   H6204     1.0  0.49858  0.98808  0.38100  1.0000
  C   C7739     1.0  0.74524  0.97304  0.42512  1.0000
  H   H6205     1.0  0.62448  0.96772  0.25415  1.0000
  C   C7740     1.0  0.95592  0.91897  0.48535  1.0000
  C   C7741     1.0  0.54373  0.95281  0.28064  1.0000
  C   C7742     1.0  0.54381  0.96329  0.28319  1.0000
  C   C7743     1.0  0.54167  0.97385  0.27504  1.0000
  C   C7744     1.0  0.53101  0.91267  0.36989  1.0000
  C   C7745     1.0  0.56823  0.88509  0.25485  1.0000
  C   C7746     1.0  0.62326  0.85659  0.25580  1.0000
  C   C7747     1.0  0.95805  0.90400  0.47486  1.0000
  H   H6206     1.0  0.59636  0.98022  0.47206  1.0000
  H   H6207     1.0  0.60932  0.85224  0.27975  1.0000
  H   H6208     1.0  0.54559  0.94459  0.28689  1.0000
  H   H6209     1.0  0.54578  0.96319  0.29135  1.0000
  C   C7748     1.0  0.90703  0.91350  0.46030  1.0000
  H   H6210     1.0  0.55245  0.86270  0.32209  1.0000
  C   C7749     1.0  0.95894  0.90354  0.44391  1.0000
  C   C7750     1.0  0.61369  0.92575  0.48253  1.0000
  C   C7751     1.0  0.74293  0.96129  0.39108  1.0000
  C   C7752     1.0  0.97327  0.76038  0.43453  1.0000
  C   C7753     1.0  0.52444  0.96985  0.24444  1.0000
  H   H6211     1.0  0.64694  0.98025  0.48645  1.0000
  H   H6212     1.0  0.74201  0.89449  0.47198  1.0000
  H   H6213     1.0  0.76991  0.96234  0.45639  1.0000
  S   S1052     1.0  0.60136  0.98054  0.25675  1.0000
  C   C7754     1.0  0.71593  0.91896  0.47491  1.0000
  C   C7755     1.0  0.54060  0.88616  0.24831  1.0000
  C   C7756     1.0  0.86716  0.97630  0.40662  1.0000
  C   C7757     1.0  0.58233  0.97073  0.26244  1.0000
  H   H6214     1.0  0.69760  0.98775  0.40152  1.0000
  H   H6215     1.0  0.61459  0.97297  0.44457  1.0000
  C   C7758     1.0  0.63881  0.98186  0.26801  1.0000
  C   C7759     1.0  0.94554  0.88697  0.46730  1.0000
  C   C7760     1.0  0.84734  0.86546  0.45215  1.0000
  C   C7761     1.0  0.97388  0.77137  0.46438  1.0000
  C   C7762     1.0  0.79323  0.88262  0.47041  1.0000
  H   H6216     1.0  0.99543  0.74269  0.45702  1.0000
  C   C7763     1.0  0.98941  0.75070  0.45908  1.0000
  H   H6217     1.0  0.62023  0.87591  0.34117  1.0000
  H   H6218     1.0  0.57828  0.97852  0.25685  1.0000
  C   C7764     1.0  0.63306  0.94302  0.26412  1.0000
  H   H6219     1.0  0.50473  0.93421  0.34096  1.0000
  H   H6220     1.0  0.72269  0.91499  0.46830  1.0000
  C   C7765     1.0  0.54716  0.97953  0.30675  1.0000
  H   H6221     1.0  0.61677  0.98214  0.40747  1.0000
  C   C7766     1.0  0.92529  0.90648  0.46712  1.0000
  C   C7767     1.0  0.50550  0.98342  0.24839  1.0000
  C   C7768     1.0  0.80115  0.87902  0.45071  1.0000
  Fe  Fe533     1.0  0.59477  0.98608  0.33256  1.0000
  C   C7769     1.0  0.76816  0.95655  0.48914  1.0000
  C   C7770     1.0  0.82306  0.91394  0.46901  1.0000
  H   H6222     1.0  0.58627  0.91055  0.25992  1.0000
  C   C7771     1.0  0.81351  0.87218  0.46480  1.0000
  C   C7772     1.0  0.59496  0.86226  0.30462  1.0000
  C   C7773     1.0  0.57635  0.93169  0.34350  1.0000
  C   C7774     1.0  0.58287  0.92337  0.33684  1.0000
  C   C7775     1.0  0.59257  0.91512  0.34032  1.0000
  C   C7776     1.0  0.59567  0.91511  0.35054  1.0000
  C   C7777     1.0  0.58912  0.92341  0.35734  1.0000
  C   C7778     1.0  0.57948  0.93179  0.35368  1.0000
  P   P259      1.0  0.59307  0.92306  0.37071  1.0000
  C   C7779     1.0  0.58088  0.93168  0.37952  1.0000
  C   C7780     1.0  0.59534  0.90799  0.37880  1.0000
  C   C7781     1.0  0.58837  0.90069  0.37853  1.0000
  C   C7782     1.0  0.58999  0.88905  0.38485  1.0000
  C   C7783     1.0  0.59861  0.88459  0.39146  1.0000
  C   C7784     1.0  0.60561  0.89177  0.39176  1.0000
  C   C7785     1.0  0.60398  0.90343  0.38548  1.0000
  C   C7786     1.0  0.58095  0.94314  0.37972  1.0000
  C   C7787     1.0  0.57163  0.94966  0.38669  1.0000
  C   C7788     1.0  0.56203  0.94490  0.39334  1.0000
  C   C7789     1.0  0.56163  0.93370  0.39286  1.0000
  C   C7790     1.0  0.57101  0.92710  0.38600  1.0000
  C   C7791     1.0  0.60638  0.92831  0.36770  1.0000
  C   C7792     1.0  0.61420  0.92881  0.35665  1.0000
  C   C7793     1.0  0.62416  0.93335  0.35431  1.0000
  C   C7794     1.0  0.62641  0.93745  0.36290  1.0000
  C   C7795     1.0  0.61885  0.93675  0.37397  1.0000
  C   C7796     1.0  0.60896  0.93209  0.37641  1.0000
  H   H6223     1.0  0.56898  0.93825  0.34065  1.0000
  H   H6224     1.0  0.58056  0.92350  0.32883  1.0000
  H   H6225     1.0  0.59781  0.90889  0.33494  1.0000
  H   H6226     1.0  0.60329  0.90872  0.35305  1.0000
  H   H6227     1.0  0.57444  0.93853  0.35853  1.0000
  H   H6228     1.0  0.58158  0.90405  0.37352  1.0000
  H   H6229     1.0  0.58450  0.88352  0.38469  1.0000
  H   H6230     1.0  0.59984  0.87559  0.39641  1.0000
  H   H6231     1.0  0.61228  0.88834  0.39691  1.0000
  H   H6232     1.0  0.60949  0.90881  0.38589  1.0000
  H   H6233     1.0  0.58816  0.94716  0.37454  1.0000
  H   H6234     1.0  0.57187  0.95847  0.38678  1.0000
  H   H6235     1.0  0.55474  0.95002  0.39863  1.0000
  H   H6236     1.0  0.55399  0.93019  0.39774  1.0000
  H   H6237     1.0  0.57046  0.91849  0.38573  1.0000
  H   H6238     1.0  0.61247  0.92619  0.34963  1.0000
  H   H6239     1.0  0.62994  0.93406  0.34566  1.0000
  H   H6240     1.0  0.63389  0.94137  0.36093  1.0000
  H   H6241     1.0  0.62046  0.94020  0.38054  1.0000
  H   H6242     1.0  0.60314  0.93181  0.38501  1.0000
  C   C7797     1.0  0.75063  0.87613  0.47489  1.0000
  C   C7798     1.0  0.89080  0.98718  0.44158  1.0000
  H   H6243     1.0  0.57742  0.95854  0.29835  1.0000
  C   C7799     1.0  0.59908  0.95370  0.24328  1.0000
  C   C7800     1.0  0.65558  0.97702  0.46918  1.0000
  C   C7801     1.0  0.86618  0.90792  0.47969  1.0000
  C   C7802     1.0  0.87344  0.89686  0.48310  1.0000
  C   C7803     1.0  0.88255  0.89177  0.47480  1.0000
  C   C7804     1.0  0.88433  0.89752  0.46300  1.0000
  C   C7805     1.0  0.87699  0.90835  0.45951  1.0000
  C   C7806     1.0  0.86792  0.91354  0.46777  1.0000
  C   C7807     1.0  0.87593  0.98912  0.48200  1.0000
  H   H6244     1.0  0.95438  0.77492  0.45373  1.0000
  H   H6245     1.0  0.95918  0.74897  0.45771  1.0000
  C   C7808     1.0  0.86162  0.99021  0.42325  1.0000
  S   S1053     1.0  0.97415  0.84391  0.43880  1.0000
  H   H6246     1.0  0.49934  0.86183  0.25414  1.0000
  C   C7809     1.0  0.84554  0.93646  0.47763  1.0000
  C   C7810     1.0  0.84371  0.94857  0.47314  1.0000
  C   C7811     1.0  0.84930  0.95530  0.47637  1.0000
  H   H6247     1.0  0.51276  0.98903  0.28008  1.0000
  C   C7812     1.0  0.99188  0.76083  0.48436  1.0000
  H   H6248     1.0  0.63655  0.97979  0.36498  1.0000
  H   H6249     1.0  0.95611  0.85294  0.47354  1.0000
  H   H6250     1.0  0.92315  0.90267  0.48598  1.0000
  H   H6251     1.0  0.88838  0.88346  0.47755  1.0000
  H   H6252     1.0  0.89149  0.89370  0.45657  1.0000
  H   H6253     1.0  0.75427  0.94914  0.48855  1.0000
  H   H6254     1.0  0.74550  0.97712  0.45159  1.0000
  H   H6255     1.0  0.52083  0.91348  0.38741  1.0000
  C   C7813     1.0  0.53443  0.92316  0.38243  1.0000
  H   H6256     1.0  0.80711  0.92949  0.40460  1.0000
  H   H6257     1.0  0.96351  0.89642  0.47141  1.0000
  C   C7814     1.0  0.81200  0.87331  0.45353  1.0000
  S   S1054     1.0  0.64290  0.98409  0.41672  1.0000
  H   H6258     1.0  0.80479  0.91989  0.46821  1.0000
  C   C7815     1.0  0.52179  0.98354  0.35075  1.0000
  H   H6259     1.0  0.61643  0.81541  0.34758  1.0000
  C   C7816     1.0  0.64772  0.97965  0.25819  1.0000
  S   S1055     1.0  0.63828  0.96283  0.44795  1.0000
  C   C7817     1.0  0.72015  0.96590  0.45683  1.0000
  H   H6260     1.0  0.54406  0.87427  0.33749  1.0000
  H   H6261     1.0  0.61350  0.83563  0.33562  1.0000
  H   H6262     1.0  0.92962  0.96495  0.48844  1.0000
  C   C7818     1.0  0.60608  0.83149  0.33927  1.0000
  C   C7819     1.0  0.60467  0.84174  0.30931  1.0000
  H   H6263     1.0  0.84847  0.89472  0.48878  1.0000
  H   H6264     1.0  0.55848  0.86212  0.28478  1.0000
  H   H6265     1.0  0.80563  0.90541  0.45705  1.0000
  P   P260      1.0  0.94116  0.90280  0.46422  1.0000
  C   C7820     1.0  0.84368  0.86730  0.48973  1.0000
  H   H6266     1.0  0.68783  0.97197  0.37825  1.0000
  C   C7821     1.0  0.61168  0.96607  0.29783  1.0000
  H   H6267     1.0  0.63396  0.94069  0.29646  1.0000
  C   C7822     1.0  0.66277  0.98091  0.45841  1.0000
  H   H6268     1.0  0.75894  0.94871  0.39374  1.0000
  H   H6269     1.0  0.61486  0.92004  0.47667  1.0000
  C   C7823     1.0  0.82157  0.93660  0.40411  1.0000
  C   C7824     1.0  0.52820  0.91602  0.38065  1.0000
  H   H6270     1.0  0.59724  0.87046  0.28624  1.0000
  H   H6271     1.0  0.57782  0.86644  0.34571  1.0000
  C   C7825     1.0  0.57738  0.85143  0.26555  1.0000
  S   S1056     1.0  0.96069  0.74546  0.43238  1.0000
  H   H6272     1.0  0.84092  0.87954  0.42114  1.0000
  C   C7826     1.0  0.56582  0.83454  0.28160  1.0000
  C   C7827     1.0  0.85970  0.89338  0.44704  1.0000
  C   C7828     1.0  0.52368  0.98381  0.30445  1.0000
  H   H6273     1.0  0.50497  0.98271  0.34896  1.0000
  H   H6274     1.0  0.84150  0.90648  0.46799  1.0000
  H   H6275     1.0  0.68536  0.98257  0.42118  1.0000
  H   H6276     1.0  0.57355  0.85331  0.31801  1.0000
  C   C7829     1.0  0.92960  0.79419  0.46362  1.0000
  H   H6277     1.0  0.96805  0.77948  0.46637  1.0000
  H   H6278     1.0  0.54807  0.93280  0.37471  1.0000
  H   H6279     1.0  0.60703  0.83369  0.31556  1.0000
  C   C7830     1.0  0.61809  0.94399  0.24813  1.0000
  C   C7831     1.0  0.81336  0.90543  0.45974  1.0000
  C   C7832     1.0  0.56166  0.89545  0.27075  1.0000
  H   H6280     1.0  0.78624  0.97070  0.45984  1.0000
  C   C7833     1.0  0.86305  0.87137  0.48439  1.0000
  H   H6281     1.0  0.59628  0.96207  0.29605  1.0000
  C   C7834     1.0  0.54350  0.92695  0.37346  1.0000
  C   C7835     1.0  0.93985  0.91875  0.47745  1.0000
  C   C7836     1.0  0.59776  0.85200  0.31305  1.0000
  C   C7837     1.0  0.64223  0.94584  0.27819  1.0000
  C   C7838     1.0  0.83416  0.89777  0.45946  1.0000
  C   C7839     1.0  0.57736  0.85924  0.33147  1.0000
  C   C7840     1.0  0.51681  0.98606  0.33213  1.0000
  S   S1057     1.0  0.57291  0.94160  0.28421  1.0000
  C   C7841     1.0  0.53331  0.89310  0.35413  1.0000
  C   C7842     1.0  0.52025  0.97325  0.31030  1.0000
  H   H6282     1.0  0.75409  0.93321  0.38751  1.0000
  C   C7843     1.0  0.63034  0.97546  0.37182  1.0000
  C   C7844     1.0  0.52565  0.88683  0.35335  1.0000
  C   C7845     1.0  0.61552  0.97628  0.42604  1.0000
  C   C7846     1.0  0.85792  0.90545  0.44211  1.0000
  P   P261      1.0  0.52910  0.88644  0.26148  1.0000
  S   S1058     1.0  0.50474  0.89331  0.31370  1.0000
  C   C7847     1.0  0.95100  0.86858  0.46081  1.0000
  H   H6283     1.0  0.55635  0.90296  0.27442  1.0000
  H   H6284     1.0  0.86566  0.91944  0.43037  1.0000
  C   C7848     1.0  0.63380  0.94126  0.28744  1.0000
  H   H6285     1.0  0.84317  0.85804  0.42885  1.0000
  C   C7849     1.0  0.54029  0.91625  0.36092  1.0000
  C   C7850     1.0  0.54630  0.92366  0.36271  1.0000
  S   S1059     1.0  0.66818  0.97735  0.39919  1.0000
  C   C7851     1.0  0.74670  0.97033  0.43663  1.0000
  C   C7852     1.0  0.94830  0.92591  0.43290  1.0000
  C   C7853     1.0  0.76818  0.97642  0.47776  1.0000
  H   H6286     1.0  0.58977  0.87028  0.30732  1.0000
  C   C7854     1.0  0.65871  0.91507  0.24459  1.0000
  S   S1060     1.0  0.64409  0.97524  0.38631  1.0000
  Fe  Fe534     1.0  0.98074  0.80209  0.43486  1.0000
  C   C7855     1.0  0.53529  0.90323  0.34559  1.0000
  C   C7856     1.0  0.61445  0.87342  0.32707  1.0000
  H   H6287     1.0  0.55344  0.84003  0.27043  1.0000
  H   H6288     1.0  0.59698  0.85237  0.35105  1.0000
  P   P262      1.0  0.58408  0.86307  0.25583  1.0000
  C   C7857     1.0  0.78442  0.97360  0.39803  1.0000
  C   C7858     1.0  0.72901  0.98846  0.38709  1.0000
  H   H6289     1.0  0.52547  0.93210  0.34419  1.0000
  C   C7859     1.0  0.60108  0.96743  0.48725  1.0000
  C   C7860     1.0  0.59490  0.83753  0.33722  1.0000
  H   H6290     1.0  0.80097  0.97024  0.44132  1.0000
  C   C7861     1.0  0.83366  0.90605  0.46574  1.0000
  C   C7862     1.0  0.53993  0.96343  0.26148  1.0000
  C   C7863     1.0  0.82690  0.98953  0.45116  1.0000
  H   H6291     1.0  0.55151  0.98965  0.28902  1.0000
  H   H6292     1.0  0.52249  0.94941  0.32832  1.0000
  C   C7864     1.0  0.56713  0.84970  0.26380  1.0000
  P   P263      1.0  0.53283  0.98889  0.31043  1.0000
  C   C7865     1.0  0.56903  0.88657  0.27711  1.0000
  H   H6293     1.0  0.51656  0.86812  0.27717  1.0000
  H   H6294     1.0  0.70220  0.96674  0.39059  1.0000
  C   C7866     1.0  0.91576  0.98513  0.46799  1.0000
  C   C7867     1.0  0.53094  0.94326  0.32763  1.0000
  C   C7868     1.0  0.53996  0.94495  0.31768  1.0000
  H   H6295     1.0  0.96338  0.92406  0.41854  1.0000
  C   C7869     1.0  0.52052  0.91830  0.27059  1.0000
  H   H6296     1.0  0.76922  0.93771  0.47401  1.0000
  C   C7870     1.0  0.55080  0.93692  0.31690  1.0000
  C   C7871     1.0  0.53267  0.93343  0.33670  1.0000
  H   H6297     1.0  0.55778  0.93825  0.30915  1.0000
  H   H6298     1.0  0.94695  0.76839  0.42668  1.0000
  H   H6299     1.0  0.84938  0.91124  0.44404  1.0000
  C   C7872     1.0  0.92026  0.98032  0.47818  1.0000
  C   C7873     1.0  0.84594  0.87764  0.44787  1.0000
  C   C7874     1.0  0.84627  0.85843  0.44532  1.0000
  C   C7875     1.0  0.55257  0.92707  0.32600  1.0000
  C   C7876     1.0  0.54342  0.92515  0.33589  1.0000
  H   H6300     1.0  0.58928  0.84626  0.27733  1.0000
  C   C7877     1.0  0.78955  0.97210  0.38648  1.0000
  H   H6301     1.0  0.51146  0.93845  0.31934  1.0000
  C   C7878     1.0  0.55327  0.86984  0.33603  1.0000
  C   C7879     1.0  0.79751  0.97834  0.44440  1.0000
  C   C7880     1.0  0.86430  0.97789  0.42667  1.0000
  H   H6302     1.0  0.71796  0.90348  0.48872  1.0000
  H   H6303     1.0  0.75787  0.90069  0.47574  1.0000
  C   C7881     1.0  0.96268  0.90911  0.48096  1.0000
  H   H6304     1.0  0.51037  0.98638  0.32740  1.0000
  C   C7882     1.0  0.83082  0.99046  0.41632  1.0000
  C   C7883     1.0  0.83634  0.98680  0.40576  1.0000
  C   C7884     1.0  0.55946  0.90296  0.34520  1.0000
  C   C7885     1.0  0.57610  0.96196  0.26846  1.0000
  S   S1061     1.0  0.96629  0.79593  0.43163  1.0000
  S   S1062     1.0  0.49605  0.94078  0.39330  1.0000
  C   C7886     1.0  0.53631  0.98688  0.33262  1.0000
  C   C7887     1.0  0.70123  0.93591  0.48044  1.0000
  H   H6305     1.0  0.97294  0.90429  0.42847  1.0000
  H   H6306     1.0  0.61931  0.87936  0.32040  1.0000
  C   C7888     1.0  0.52024  0.89038  0.34382  1.0000
  C   C7889     1.0  0.53001  0.90656  0.33589  1.0000
  H   H6307     1.0  0.53156  0.91410  0.32892  1.0000
  C   C7890     1.0  0.71356  0.95833  0.46503  1.0000
  H   H6308     1.0  0.79897  0.96917  0.38371  1.0000
  C   C7891     1.0  0.84174  0.87361  0.47867  1.0000
  H   H6309     1.0  0.54407  0.86733  0.25052  1.0000
  H   H6310     1.0  0.75571  0.98172  0.39605  1.0000
  H   H6311     1.0  0.89115  0.91599  0.47365  1.0000
  C   C7892     1.0  0.69443  0.97789  0.41921  1.0000
  H   H6312     1.0  0.76484  0.98194  0.44347  1.0000
  C   C7893     1.0  0.58296  0.89038  0.34144  1.0000
  H   H6313     1.0  0.56224  0.90348  0.36191  1.0000
  H   H6314     1.0  0.51818  0.90303  0.32775  1.0000
  H   H6315     1.0  0.82397  0.89148  0.45147  1.0000
  C   C7894     1.0  0.95605  0.78036  0.42842  1.0000
  H   H6316     1.0  0.95268  0.86387  0.45392  1.0000
  C   C7895     1.0  0.80982  0.93727  0.40450  1.0000
  S   S1063     1.0  0.66662  0.97062  0.42759  1.0000
  S   S1064     1.0  0.58077  0.90971  0.28242  1.0000
  C   C7896     1.0  0.94651  0.90866  0.47325  1.0000
  C   C7897     1.0  0.75343  0.96651  0.47773  1.0000
  C   C7898     1.0  0.57772  0.89424  0.35189  1.0000
  S   S1065     1.0  0.83966  0.97199  0.40501  1.0000
  C   C7899     1.0  0.70143  0.98080  0.40804  1.0000
  C   C7900     1.0  0.70256  0.97416  0.38320  1.0000
  P   P264      1.0  0.59285  0.85234  0.32848  1.0000
  H   H6317     1.0  0.84741  0.84903  0.44861  1.0000
  C   C7901     1.0  0.92754  0.78881  0.47554  1.0000
  C   C7902     1.0  0.92834  0.96163  0.47240  1.0000
  C   C7903     1.0  0.50706  0.91911  0.25896  1.0000
  C   C7904     1.0  0.50517  0.86632  0.25554  1.0000
  H   H6318     1.0  0.97622  0.86754  0.43046  1.0000
  H   H6319     1.0  0.79641  0.95050  0.42802  1.0000
  H   H6320     1.0  0.61413  0.83391  0.29447  1.0000
  C   C7905     1.0  0.69901  0.96873  0.42768  1.0000
  H   H6321     1.0  0.78607  0.94692  0.44862  1.0000
  C   C7906     1.0  0.94279  0.92067  0.44410  1.0000
  C   C7907     1.0  0.74014  0.99089  0.43736  1.0000
  C   C7908     1.0  0.98350  0.85717  0.46128  1.0000
  C   C7909     1.0  0.73211  0.96351  0.38800  1.0000
  C   C7910     1.0  0.80191  0.98826  0.43822  1.0000
  C   C7911     1.0  0.71080  0.96289  0.42521  1.0000
  H   H6322     1.0  0.94930  0.78801  0.42610  1.0000
  C   C7912     1.0  0.62642  0.98183  0.47336  1.0000
  H   H6323     1.0  0.65029  0.97104  0.25615  1.0000
  C   C7913     1.0  0.98695  0.79230  0.47969  1.0000
  H   H6324     1.0  0.58283  0.89263  0.35837  1.0000
  C   C7914     1.0  0.60181  0.85824  0.34427  1.0000
  C   C7915     1.0  0.79396  0.98281  0.48230  1.0000
  H   H6325     1.0  0.66480  0.97631  0.45139  1.0000
  H   H6326     1.0  0.54544  0.96696  0.32343  1.0000
  C   C7916     1.0  0.61351  0.97961  0.43666  1.0000
  H   H6327     1.0  0.65197  0.96952  0.47041  1.0000
  C   C7917     1.0  0.77214  0.97714  0.40138  1.0000
  H   H6328     1.0  0.57990  0.81615  0.35239  1.0000
  Fe  Fe535     1.0  0.98372  0.82505  0.43859  1.0000
  C   C7918     1.0  0.77448  0.96403  0.44727  1.0000
  C   C7919     1.0  0.69429  0.98699  0.36699  1.0000
  H   H6329     1.0  0.78657  0.97265  0.36968  1.0000
  H   H6330     1.0  0.97143  0.90527  0.48255  1.0000
  C   C7920     1.0  0.56904  0.96444  0.30071  1.0000
  C   C7921     1.0  0.54186  0.95284  0.26980  1.0000
  C   C7922     1.0  0.94699  0.77881  0.45990  1.0000
  H   H6331     1.0  0.62619  0.97234  0.29838  1.0000
  C   C7923     1.0  0.57592  0.87690  0.27244  1.0000
  C   C7924     1.0  0.80109  0.98372  0.48905  1.0000
  H   H6332     1.0  0.64855  0.95014  0.25950  1.0000
  C   C7925     1.0  0.95909  0.91995  0.42718  1.0000
  C   C7926     1.0  0.63440  0.97447  0.45532  1.0000
  H   H6333     1.0  0.61436  0.95763  0.30338  1.0000
  C   C7927     1.0  0.78899  0.97869  0.45484  1.0000
  H   H6334     1.0  0.62858  0.94202  0.48886  1.0000
  C   C7928     1.0  0.60147  0.96859  0.29369  1.0000
  H   H6335     1.0  0.51182  0.96017  0.30980  1.0000
  C   C7929     1.0  0.77150  0.97498  0.43995  1.0000
  C   C7930     1.0  0.92652  0.96865  0.48036  1.0000
  H   H6336     1.0  0.54222  0.94456  0.26791  1.0000
  H   H6337     1.0  0.62714  0.96429  0.47199  1.0000
  C   C7931     1.0  0.80419  0.87687  0.47321  1.0000
  H   H6338     1.0  0.93105  0.92276  0.47603  1.0000
  H   H6339     1.0  0.86889  0.96149  0.42115  1.0000
  C   C7932     1.0  0.59890  0.95929  0.27097  1.0000
  H   H6340     1.0  0.80554  0.87589  0.48187  1.0000
  C   C7933     1.0  0.59523  0.99227  0.38714  1.0000
  H   H6341     1.0  0.95653  0.77871  0.48780  1.0000
  H   H6342     1.0  0.90159  0.90842  0.49008  1.0000
  H   H6343     1.0  0.74584  0.96649  0.47474  1.0000
  H   H6344     1.0  0.50848  0.95320  0.42986  1.0000
  C   C7934     1.0  0.78936  0.95741  0.43109  1.0000
  H   H6345     1.0  0.62057  0.92515  0.25475  1.0000
  C   C7935     1.0  0.78452  0.98911  0.45898  1.0000
  C   C7936     1.0  0.59805  0.97947  0.28644  1.0000
  C   C7937     1.0  0.91876  0.90562  0.47873  1.0000
  C   C7938     1.0  0.95292  0.86239  0.47190  1.0000
  H   H6346     1.0  0.51947  0.98159  0.36025  1.0000
  C   C7939     1.0  0.94720  0.88082  0.45854  1.0000
  H   H6347     1.0  0.57360  0.91240  0.24695  1.0000
  H   H6348     1.0  0.93297  0.95252  0.47422  1.0000
  C   C7940     1.0  0.51157  0.97411  0.29441  1.0000
  C   C7941     1.0  0.76970  0.87134  0.47969  1.0000
  C   C7942     1.0  0.99212  0.78368  0.40834  1.0000
  H   H6349     1.0  0.63115  0.92893  0.47577  1.0000
  C   C7943     1.0  0.74413  0.97925  0.44276  1.0000
  Fe  Fe536     1.0  0.64888  0.96748  0.42941  1.0000
  H   H6350     1.0  0.51837  0.97925  0.25861  1.0000
  H   H6351     1.0  0.50688  0.97036  0.29056  1.0000
  H   H6352     1.0  0.98529  0.85436  0.46998  1.0000
  C   C7944     1.0  0.52217  0.90143  0.26275  1.0000
  C   C7945     1.0  0.59262  0.95059  0.27709  1.0000
  H   H6353     1.0  0.57087  0.97654  0.28399  1.0000
  C   C7946     1.0  0.91743  0.97788  0.46019  1.0000
  H   H6354     1.0  0.86122  0.95511  0.48653  1.0000
  C   C7947     1.0  0.51365  0.98411  0.34439  1.0000
  H   H6355     1.0  0.72934  0.96454  0.45677  1.0000
  H   H6356     1.0  0.80986  0.97819  0.48862  1.0000
  H   H6357     1.0  0.93464  0.92558  0.44859  1.0000
  C   C7948     1.0  0.63057  0.96837  0.24567  1.0000
  H   H6358     1.0  0.54192  0.98199  0.27684  1.0000
  H   H6359     1.0  0.94578  0.88547  0.44990  1.0000
  H   H6360     1.0  0.78091  0.96602  0.48816  1.0000
  C   C7949     1.0  0.58119  0.95194  0.27588  1.0000
  H   H6361     1.0  0.87639  0.97055  0.46561  1.0000
  C   C7950     1.0  0.50040  0.95847  0.41504  1.0000
  C   C7951     1.0  0.83768  0.99038  0.44334  1.0000
  C   C7952     1.0  0.82498  0.94649  0.40450  1.0000
  H   H6362     1.0  0.83405  0.94593  0.40444  1.0000
  C   C7953     1.0  0.58283  0.90853  0.24450  1.0000
  C   C7954     1.0  0.74808  0.94172  0.38741  1.0000
  C   C7955     1.0  0.78053  0.91062  0.46780  1.0000
  H   H6363     1.0  0.98585  0.76926  0.48293  1.0000
  H   H6364     1.0  0.94099  0.79332  0.44655  1.0000
  H   H6365     1.0  0.55555  0.90160  0.25471  1.0000
  C   C7956     1.0  0.60177  0.90140  0.24974  1.0000
  C   C7957     1.0  0.62479  0.93824  0.27346  1.0000
  H   H6366     1.0  0.57676  0.83631  0.34051  1.0000
  C   C7958     1.0  0.60863  0.86389  0.34740  1.0000
  C   C7959     1.0  0.53950  0.97393  0.26436  1.0000
  C   C7960     1.0  0.56531  0.97454  0.29259  1.0000
  C   C7961     1.0  0.94716  0.88065  0.47852  1.0000
  C   C7962     1.0  0.55802  0.86336  0.32729  1.0000
  H   H6367     1.0  0.92369  0.80224  0.46039  1.0000
  H   H6368     1.0  0.61786  0.93545  0.27185  1.0000
  H   H6369     1.0  0.82797  0.92834  0.40389  1.0000
  C   C7963     1.0  0.65318  0.98858  0.25089  1.0000
  C   C7964     1.0  0.75823  0.95668  0.48548  1.0000
  H   H6370     1.0  0.98242  0.77264  0.43596  1.0000
  C   C7965     1.0  0.60764  0.86781  0.32390  1.0000
  H   H6371     1.0  0.76779  0.97802  0.41024  1.0000
  C   C7966     1.0  0.98113  0.84920  0.45622  1.0000
  C   C7967     1.0  0.94522  0.77357  0.47188  1.0000
  S   S1066     1.0  0.97840  0.80898  0.45091  1.0000
  Fe  Fe537     1.0  0.65042  0.97313  0.40299  1.0000
  H   H6372     1.0  0.97996  0.75266  0.43684  1.0000
  P   P265      1.0  0.78073  0.88785  0.48133  1.0000
  H   H6373     1.0  0.79132  0.99081  0.41927  1.0000
  H   H6374     1.0  0.59968  0.80562  0.35599  1.0000
  C   C7968     1.0  0.86813  0.98390  0.45270  1.0000
  H   H6375     1.0  0.60903  0.86239  0.35650  1.0000
  H   H6376     1.0  0.90246  0.91677  0.45317  1.0000
  C   C7969     1.0  0.74965  0.88797  0.47434  1.0000
  C   C7970     1.0  0.90063  0.91303  0.47186  1.0000
  C   C7971     1.0  0.58547  0.83190  0.34196  1.0000
  C   C7972     1.0  0.52826  0.98721  0.32617  1.0000
  H   H6377     1.0  0.75454  0.98384  0.46776  1.0000
  H   H6378     1.0  0.91356  0.98103  0.45261  1.0000
  H   H6379     1.0  0.82726  0.99019  0.48743  1.0000
  H   H6380     1.0  0.95941  0.92263  0.49045  1.0000
  C   C7973     1.0  0.71783  0.96573  0.41401  1.0000
  H   H6381     1.0  0.71197  0.93543  0.46291  1.0000
  C   C7974     1.0  0.87767  0.97724  0.45763  1.0000
  C   C7975     1.0  0.74062  0.98460  0.41998  1.0000
  C   C7976     1.0  0.85881  0.93774  0.48849  1.0000
  H   H6382     1.0  0.82177  0.98395  0.45035  1.0000
  C   C7977     1.0  0.86989  0.99222  0.44209  1.0000
  H   H6383     1.0  0.91870  0.98533  0.48473  1.0000
  P   P266      1.0  0.72132  0.97689  0.39022  1.0000
  C   C7978     1.0  0.99506  0.77146  0.41006  1.0000
  H   H6384     1.0  0.51942  0.88830  0.24148  1.0000
  C   C7979     1.0  0.61019  0.95422  0.24397  1.0000
  C   C7980     1.0  0.86705  0.97098  0.41839  1.0000
  H   H6385     1.0  0.85951  0.98216  0.45692  1.0000
  H   H6386     1.0  0.91996  0.79264  0.48159  1.0000
  H   H6387     1.0  0.93357  0.77440  0.48892  1.0000
  H   H6388     1.0  0.86886  0.97094  0.40029  1.0000
  H   H6389     1.0  0.49791  0.95463  0.28244  1.0000
  H   H6390     1.0  0.59584  0.99184  0.40468  1.0000
  C   C7981     1.0  0.65270  0.98308  0.47818  1.0000
  H   H6391     1.0  0.98109  0.88124  0.43900  1.0000
  H   H6392     1.0  0.81143  0.97878  0.38770  1.0000
  H   H6393     1.0  0.76489  0.97885  0.37582  1.0000
  C   C7982     1.0  0.71104  0.98076  0.38079  1.0000
  C   C7983     1.0  0.53305  0.98511  0.34485  1.0000
  C   C7984     1.0  0.85321  0.93091  0.48528  1.0000
  H   H6394     1.0  0.93921  0.93127  0.48725  1.0000
  H   H6395     1.0  0.73509  0.93700  0.38182  1.0000
  H   H6396     1.0  0.71775  0.95135  0.47129  1.0000
  C   C7985     1.0  0.59569  0.94299  0.24689  1.0000
  H   H6397     1.0  0.65311  0.94412  0.48393  1.0000
  S   S1067     1.0  0.98698  0.87897  0.46058  1.0000
  H   H6398     1.0  0.72682  0.96079  0.41223  1.0000
  C   C7986     1.0  0.60676  0.84946  0.25538  1.0000
  C   C7987     1.0  0.73799  0.98978  0.37693  1.0000
  H   H6399     1.0  0.95240  0.86361  0.48937  1.0000
  C   C7988     1.0  0.60487  0.98782  0.28327  1.0000
  C   C7989     1.0  0.62288  0.93072  0.48206  1.0000
  C   C7990     1.0  0.53631  0.94154  0.24728  1.0000
  C   C7991     1.0  0.69432  0.97717  0.37626  1.0000
  C   C7992     1.0  0.64274  0.93240  0.24313  1.0000
  H   H6400     1.0  0.58197  0.84683  0.24262  1.0000
  C   C7993     1.0  0.67909  0.96802  0.48838  1.0000
  C   C7994     1.0  0.71319  0.91246  0.48636  1.0000
  C   C7995     1.0  0.85684  0.94989  0.48404  1.0000
  H   H6401     1.0  0.59580  0.92453  0.49073  1.0000
  P   P267      1.0  0.85564  0.91516  0.49077  1.0000
  C   C7996     1.0  0.63598  0.95836  0.24094  1.0000
  H   H6402     1.0  0.63488  0.88992  0.63380  1.0000
  H   H6403     1.0  0.56986  0.90853  0.64317  1.0000
  C   C7997     1.0  0.64690  0.88935  0.57822  1.0000
  C   C7998     1.0  0.67638  0.97483  0.49673  1.0000
  C   C7999     1.0  0.54352  0.94887  0.72368  1.0000
  Fe  Fe538     1.0  0.90275  0.92842  0.50551  1.0000
  C   C8000     1.0  0.95606  0.76032  0.49185  1.0000
  C   C8001     1.0  0.95664  0.75018  0.51201  1.0000
  C   C8002     1.0  0.78367  0.88203  0.49587  1.0000
  H   H6404     1.0  0.55267  0.97131  0.54263  1.0000
  Fe  Fe539     1.0  0.79141  0.92738  0.52296  1.0000
  S   S1068     1.0  0.53973  0.91193  0.71746  1.0000
  C   C8003     1.0  0.56786  0.97116  0.66903  1.0000
  C   C8004     1.0  0.65307  0.97324  0.57256  1.0000
  H   H6405     1.0  0.59294  0.93787  0.50378  1.0000
  C   C8005     1.0  0.91746  0.81898  0.56160  1.0000
  C   C8006     1.0  0.62964  0.92302  0.65344  1.0000
  C   C8007     1.0  0.90364  0.98101  0.51069  1.0000
  C   C8008     1.0  0.74898  0.91789  0.52234  1.0000
  H   H6406     1.0  0.86980  0.97643  0.54958  1.0000
  P   P268      1.0  0.64683  0.91476  0.59450  1.0000
  H   H6407     1.0  0.81131  0.90285  0.50355  1.0000
  H   H6408     1.0  0.66661  0.94532  0.56918  1.0000
  H   H6409     1.0  0.60671  0.95440  0.61964  1.0000
  H   H6410     1.0  0.99245  0.82314  0.49651  1.0000
  C   C8009     1.0  0.72843  0.88513  0.56972  1.0000
  S   S1069     1.0  0.59287  0.88393  0.71940  1.0000
  S   S1070     1.0  0.59445  0.95492  0.59346  1.0000
  H   H6411     1.0  0.73853  0.93269  0.56985  1.0000
  S   S1071     1.0  0.57370  0.89952  0.66664  1.0000
  C   C8010     1.0  0.60182  0.98773  0.61121  1.0000
  C   C8011     1.0  0.69309  0.96270  0.50462  1.0000
  H   H6412     1.0  0.61724  0.97971  0.69203  1.0000
  C   C8012     1.0  0.65977  0.99173  0.54889  1.0000
  S   S1072     1.0  0.56765  0.89268  0.70140  1.0000
  C   C8013     1.0  0.67234  0.95513  0.57784  1.0000
  C   C8014     1.0  0.61893  0.98104  0.57580  1.0000
  H   H6413     1.0  0.51011  0.92955  0.60848  1.0000
  C   C8015     1.0  0.95028  0.90049  0.51032  1.0000
  H   H6414     1.0  0.98876  0.75132  0.51584  1.0000
  H   H6415     1.0  0.59291  0.91050  0.66316  1.0000
  C   C8016     1.0  0.50792  0.92406  0.70947  1.0000
  H   H6416     1.0  0.95222  0.83874  0.55333  1.0000
  C   C8017     1.0  0.89393  0.98851  0.50635  1.0000
  C   C8018     1.0  0.53200  0.87208  0.73938  1.0000
  H   H6417     1.0  0.77389  0.86838  0.50093  1.0000
  C   C8019     1.0  0.77812  0.87117  0.55677  1.0000
  C   C8020     1.0  0.77690  0.85456  0.55033  1.0000
  H   H6418     1.0  0.93378  0.82242  0.56158  1.0000
  C   C8021     1.0  0.85553  0.93026  0.52705  1.0000
  S   S1073     1.0  0.72028  0.93018  0.53740  1.0000
  H   H6419     1.0  0.62333  0.91042  0.66868  1.0000
  C   C8022     1.0  0.93942  0.86994  0.53041  1.0000
  C   C8023     1.0  0.84108  0.94041  0.51535  1.0000
  H   H6420     1.0  0.97990  0.75359  0.49935  1.0000
  Fe  Fe540     1.0  0.55756  0.91011  0.70539  1.0000
  C   C8024     1.0  0.98337  0.74583  0.52238  1.0000
  C   C8025     1.0  0.59895  0.93549  0.52638  1.0000
  C   C8026     1.0  0.57695  0.91185  0.64380  1.0000
  H   H6421     1.0  0.73551  0.90180  0.58537  1.0000
  H   H6422     1.0  0.61001  0.96780  0.53147  1.0000
  C   C8027     1.0  0.53448  0.99019  0.59666  1.0000
  H   H6423     1.0  0.92096  0.87036  0.53463  1.0000
  S   S1074     1.0  0.97829  0.77926  0.51466  1.0000
  C   C8028     1.0  0.73882  0.88442  0.56105  1.0000
  H   H6424     1.0  0.67998  0.94828  0.57951  1.0000
  H   H6425     1.0  0.84643  0.93542  0.55425  1.0000
  C   C8029     1.0  0.82312  0.96034  0.54057  1.0000
  H   H6426     1.0  0.50110  0.95509  0.70023  1.0000
  H   H6427     1.0  0.68585  0.98028  0.56300  1.0000
  C   C8030     1.0  0.95530  0.82310  0.54661  1.0000
  C   C8031     1.0  0.52838  0.91555  0.70999  1.0000
  C   C8032     1.0  0.51712  0.92096  0.71528  1.0000
  Fe  Fe541     1.0  0.78761  0.93929  0.54309  1.0000
  H   H6428     1.0  0.87838  0.91460  0.49457  1.0000
  H   H6429     1.0  0.88736  0.90664  0.51184  1.0000
  H   H6430     1.0  0.53674  0.93855  0.68639  1.0000
  H   H6431     1.0  0.54846  0.91037  0.65050  1.0000
  H   H6432     1.0  0.63803  0.91715  0.65100  1.0000
  C   C8033     1.0  0.60244  0.96734  0.53870  1.0000
  C   C8034     1.0  0.50122  0.97817  0.56599  1.0000
  C   C8035     1.0  0.61605  0.94195  0.64957  1.0000
  H   H6433     1.0  0.64986  0.96123  0.56422  1.0000
  H   H6434     1.0  0.88890  0.98511  0.50258  1.0000
  Fe  Fe542     1.0  0.58222  0.89653  0.70670  1.0000
  H   H6435     1.0  0.66592  0.98641  0.55424  1.0000
  S   S1075     1.0  0.56275  0.92053  0.68719  1.0000
  C   C8036     1.0  0.67030  0.96579  0.58108  1.0000
  H   H6436     1.0  0.97340  0.79706  0.55618  1.0000
  H   H6437     1.0  0.53314  0.93029  0.67132  1.0000
  C   C8037     1.0  0.49746  0.98816  0.55779  1.0000
  C   C8038     1.0  0.65524  0.96252  0.56926  1.0000
  C   C8039     1.0  0.76962  0.90942  0.52170  1.0000
  H   H6438     1.0  0.51547  0.96759  0.57397  1.0000
  C   C8040     1.0  0.58066  0.90872  0.65438  1.0000
  S   S1076     1.0  0.59002  0.90507  0.68832  1.0000
  C   C8041     1.0  0.62936  0.98042  0.56704  1.0000
  H   H6439     1.0  0.74200  0.92535  0.52011  1.0000
  S   S1077     1.0  0.69583  0.93927  0.55580  1.0000
  H   H6440     1.0  0.67637  0.96720  0.58529  1.0000
  C   C8042     1.0  0.59279  0.97692  0.53920  1.0000
  C   C8043     1.0  0.51352  0.97872  0.68316  1.0000
  C   C8044     1.0  0.51749  0.97305  0.63909  1.0000
  C   C8045     1.0  0.72813  0.93844  0.49344  1.0000
  S   S1078     1.0  0.85969  0.95041  0.51077  1.0000
  Fe  Fe543     1.0  0.57416  0.90328  0.68356  1.0000
  H   H6441     1.0  0.80300  0.94465  0.50399  1.0000
  C   C8046     1.0  0.55119  0.95800  0.57023  1.0000
  P   P269      1.0  0.64169  0.98548  0.56786  1.0000
  C   C8047     1.0  0.66233  0.92337  0.60135  1.0000
  C   C8048     1.0  0.53041  0.91309  0.69892  1.0000
  C   C8049     1.0  0.52107  0.91597  0.69322  1.0000
  C   C8050     1.0  0.55423  0.93953  0.64829  1.0000
  H   H6442     1.0  0.76406  0.85774  0.54028  1.0000
  H   H6443     1.0  0.53913  0.90889  0.69480  1.0000
  H   H6444     1.0  0.52260  0.91400  0.68470  1.0000
  C   C8051     1.0  0.99079  0.83122  0.52759  1.0000
  H   H6445     1.0  0.55472  0.96331  0.57347  1.0000
  C   C8052     1.0  0.83749  0.92349  0.53086  1.0000
  C   C8053     1.0  0.57076  0.95004  0.67589  1.0000
  H   H6446     1.0  0.62842  0.96121  0.49310  1.0000
  C   C8054     1.0  0.60247  0.88168  0.73782  1.0000
  C   C8055     1.0  0.59061  0.95299  0.64198  1.0000
  C   C8056     1.0  0.79699  0.99189  0.49618  1.0000
  C   C8057     1.0  0.84076  0.90065  0.49256  1.0000
  C   C8058     1.0  0.85187  0.97640  0.53248  1.0000
  H   H6447     1.0  0.52052  0.93702  0.63777  1.0000
  H   H6448     1.0  0.67482  0.92888  0.60696  1.0000
  H   H6449     1.0  0.63607  0.90619  0.58037  1.0000
  C   C8059     1.0  0.74119  0.95842  0.54251  1.0000
  C   C8060     1.0  0.82073  0.94925  0.54580  1.0000
  P   P270      1.0  0.74203  0.97110  0.53054  1.0000
  C   C8061     1.0  0.73431  0.98430  0.53595  1.0000
  C   C8062     1.0  0.75743  0.97041  0.52380  1.0000
  C   C8063     1.0  0.76305  0.97902  0.52371  1.0000
  C   C8064     1.0  0.77487  0.97833  0.51817  1.0000
  C   C8065     1.0  0.98754  0.80863  0.53067  1.0000
  C   C8066     1.0  0.77598  0.95990  0.51367  1.0000
  C   C8067     1.0  0.76407  0.96073  0.51888  1.0000
  C   C8068     1.0  0.72594  0.98373  0.54664  1.0000
  C   C8069     1.0  0.96064  0.81648  0.50223  1.0000
  C   C8070     1.0  0.54139  0.98801  0.64190  1.0000
  C   C8071     1.0  0.57996  0.97685  0.63757  1.0000
  C   C8072     1.0  0.51061  0.97838  0.66439  1.0000
  C   C8073     1.0  0.73588  0.97016  0.51907  1.0000
  H   H6450     1.0  0.62191  0.90675  0.64224  1.0000
  H   H6451     1.0  0.76611  0.88737  0.55182  1.0000
  C   C8074     1.0  0.66371  0.88246  0.58718  1.0000
  H   H6452     1.0  0.83257  0.99017  0.57411  1.0000
  C   C8075     1.0  0.73700  0.95916  0.51681  1.0000
  C   C8076     1.0  0.53427  0.94705  0.70046  1.0000
  H   H6453     1.0  0.93810  0.87936  0.52921  1.0000
  H   H6454     1.0  0.66780  0.91492  0.57547  1.0000
  H   H6455     1.0  0.72365  0.95786  0.54234  1.0000
  C   C8077     1.0  0.83386  0.98138  0.51866  1.0000
  H   H6456     1.0  0.75860  0.98613  0.52813  1.0000
  C   C8078     1.0  0.85180  0.93941  0.51807  1.0000
  H   H6457     1.0  0.97662  0.80896  0.56791  1.0000
  H   H6458     1.0  0.52638  0.94061  0.58779  1.0000
  H   H6459     1.0  0.76016  0.95366  0.51929  1.0000
  H   H6460     1.0  0.72359  0.97556  0.55158  1.0000
  C   C8079     1.0  0.51303  0.98457  0.63345  1.0000
  C   C8080     1.0  0.77938  0.87240  0.50343  1.0000
  C   C8081     1.0  0.98046  0.78939  0.49122  1.0000
  C   C8082     1.0  0.50332  0.96636  0.63353  1.0000
  C   C8083     1.0  0.62109  0.94237  0.57370  1.0000
  C   C8084     1.0  0.58301  0.97626  0.54853  1.0000
  Fe  Fe544     1.0  0.57826  0.92174  0.69294  1.0000
  C   C8085     1.0  0.97043  0.81285  0.56225  1.0000
  H   H6461     1.0  0.74078  0.95116  0.52237  1.0000
  C   C8086     1.0  0.83380  0.96267  0.54036  1.0000
  C   C8087     1.0  0.96450  0.82460  0.56134  1.0000
  C   C8088     1.0  0.52212  0.96036  0.60931  1.0000
  C   C8089     1.0  0.53024  0.88424  0.73547  1.0000
  C   C8090     1.0  0.96115  0.81121  0.54779  1.0000
  H   H6462     1.0  0.60595  0.92868  0.52297  1.0000
  H   H6463     1.0  0.51590  0.95505  0.64342  1.0000
  C   C8091     1.0  0.53042  0.94356  0.69245  1.0000
  H   H6464     1.0  0.83208  0.92678  0.50110  1.0000
  H   H6465     1.0  0.97813  0.81608  0.51688  1.0000
  H   H6466     1.0  0.55821  0.96061  0.66563  1.0000
  C   C8092     1.0  0.58558  0.99188  0.60169  1.0000
  C   C8093     1.0  0.73372  0.98078  0.61057  1.0000
  H   H6467     1.0  0.53888  0.93852  0.55856  1.0000
  C   C8094     1.0  0.62487  0.94420  0.52076  1.0000
  C   C8095     1.0  0.73861  0.88476  0.54948  1.0000
  H   H6468     1.0  0.72531  0.94788  0.49211  1.0000
  S   S1079     1.0  0.65320  0.98151  0.51968  1.0000
  C   C8096     1.0  0.61568  0.95545  0.61731  1.0000
  S   S1080     1.0  0.98926  0.86751  0.51262  1.0000
  P   P271      1.0  0.94524  0.82966  0.53682  1.0000
  H   H6469     1.0  0.65561  0.92455  0.60920  1.0000
  H   H6470     1.0  0.53949  0.96892  0.66557  1.0000
  H   H6471     1.0  0.81245  0.94755  0.54581  1.0000
  C   C8097     1.0  0.61712  0.93359  0.58287  1.0000
  C   C8098     1.0  0.67323  0.92581  0.60013  1.0000
  H   H6472     1.0  0.74688  0.88388  0.56343  1.0000
  H   H6473     1.0  0.73383  0.94980  0.50601  1.0000
  H   H6474     1.0  0.64797  0.95877  0.60826  1.0000
  H   H6475     1.0  0.53748  0.98922  0.65076  1.0000
  C   C8099     1.0  0.75538  0.89727  0.53117  1.0000
  C   C8100     1.0  0.74635  0.90705  0.52849  1.0000
  S   S1081     1.0  0.97904  0.84000  0.50946  1.0000
  S   S1082     1.0  0.62486  0.98367  0.50718  1.0000
  C   C8101     1.0  0.76705  0.89853  0.52755  1.0000
  C   C8102     1.0  0.52519  0.94620  0.59375  1.0000
  H   H6476     1.0  0.75844  0.95661  0.54542  1.0000
  C   C8103     1.0  0.76395  0.87363  0.54513  1.0000
  C   C8104     1.0  0.63286  0.94302  0.57100  1.0000
  C   C8105     1.0  0.50382  0.98693  0.62784  1.0000
  C   C8106     1.0  0.95452  0.83233  0.51257  1.0000
  H   H6477     1.0  0.61790  0.98433  0.58347  1.0000
  H   H6478     1.0  0.63789  0.93853  0.53124  1.0000
  H   H6479     1.0  0.69070  0.92581  0.58927  1.0000
  C   C8107     1.0  0.86075  0.89970  0.52404  1.0000
  H   H6480     1.0  0.77911  0.98499  0.51823  1.0000
  C   C8108     1.0  0.62701  0.93435  0.64657  1.0000
  C   C8109     1.0  0.79559  0.98723  0.53079  1.0000
  C   C8110     1.0  0.64051  0.90066  0.61680  1.0000
  C   C8111     1.0  0.66922  0.91790  0.58246  1.0000
  H   H6481     1.0  0.83821  0.94735  0.50830  1.0000
  C   C8112     1.0  0.75064  0.88271  0.51586  1.0000
  C   C8113     1.0  0.78203  0.85932  0.55631  1.0000
  C   C8114     1.0  0.64074  0.93474  0.57731  1.0000
  H   H6482     1.0  0.51546  0.94364  0.68626  1.0000
  H   H6483     1.0  0.63988  0.96328  0.53164  1.0000
  H   H6484     1.0  0.67770  0.95247  0.54401  1.0000
  H   H6485     1.0  0.60800  0.93303  0.58491  1.0000
  C   C8115     1.0  0.68011  0.92026  0.58133  1.0000
  C   C8116     1.0  0.68217  0.92411  0.59019  1.0000
  C   C8117     1.0  0.63579  0.94343  0.52290  1.0000
  H   H6486     1.0  0.59276  0.92353  0.54226  1.0000
  C   C8118     1.0  0.50980  0.92153  0.69848  1.0000
  C   C8119     1.0  0.63430  0.89876  0.62851  1.0000
  H   H6487     1.0  0.56645  0.98138  0.52664  1.0000
  S   S1083     1.0  0.96526  0.89728  0.51072  1.0000
  H   H6488     1.0  0.95681  0.76082  0.52345  1.0000
  H   H6489     1.0  0.66603  0.89395  0.59649  1.0000
  C   C8120     1.0  0.87331  0.91067  0.50283  1.0000
  Fe  Fe545     1.0  0.71007  0.92114  0.53152  1.0000
  H   H6490     1.0  0.99207  0.83995  0.52636  1.0000
  C   C8121     1.0  0.58226  0.91945  0.63407  1.0000
  H   H6491     1.0  0.64588  0.89317  0.61324  1.0000
  C   C8122     1.0  0.59552  0.92016  0.64525  1.0000
  C   C8123     1.0  0.76910  0.87824  0.55128  1.0000
  S   S1084     1.0  0.82858  0.91347  0.53888  1.0000
  C   C8124     1.0  0.51408  0.95340  0.59713  1.0000
  C   C8125     1.0  0.53109  0.94743  0.65979  1.0000
  H   H6492     1.0  0.68132  0.97751  0.51127  1.0000
  C   C8126     1.0  0.53531  0.92425  0.64312  1.0000
  S   S1085     1.0  0.57718  0.93598  0.60195  1.0000
  H   H6493     1.0  0.62074  0.97043  0.54795  1.0000
  S   S1086     1.0  0.78894  0.92861  0.50489  1.0000
  H   H6494     1.0  0.62031  0.92695  0.63006  1.0000
  H   H6495     1.0  0.65929  0.87281  0.57727  1.0000
  H   H6496     1.0  0.55575  0.92967  0.56828  1.0000
  H   H6497     1.0  0.57923  0.92197  0.62601  1.0000
  C   C8127     1.0  0.83156  0.91866  0.49949  1.0000
  H   H6498     1.0  0.57441  0.95958  0.53961  1.0000
  H   H6499     1.0  0.63592  0.94982  0.56386  1.0000
  C   C8128     1.0  0.66076  0.97484  0.57840  1.0000
  C   C8129     1.0  0.73095  0.95402  0.54663  1.0000
  H   H6500     1.0  0.74068  0.86491  0.50561  1.0000
  S   S1087     1.0  0.90826  0.96585  0.51071  1.0000
  C   C8130     1.0  0.61905  0.98329  0.65735  1.0000
  C   C8131     1.0  0.56490  0.96064  0.66982  1.0000
  C   C8132     1.0  0.66479  0.95348  0.57199  1.0000
  C   C8133     1.0  0.73304  0.95836  0.50744  1.0000
  S   S1088     1.0  0.58647  0.93703  0.68954  1.0000
  H   H6501     1.0  0.73216  0.98042  0.58005  1.0000
  C   C8134     1.0  0.59148  0.93251  0.53730  1.0000
  H   H6502     1.0  0.65967  0.98323  0.58048  1.0000
  C   C8135     1.0  0.78884  0.87307  0.51822  1.0000
  C   C8136     1.0  0.53904  0.97950  0.63763  1.0000
  H   H6503     1.0  0.72949  0.98895  0.51337  1.0000
  H   H6504     1.0  0.65239  0.94859  0.51609  1.0000
  C   C8137     1.0  0.98468  0.82904  0.52053  1.0000
  C   C8138     1.0  0.86170  0.91018  0.50373  1.0000
  P   P272      1.0  0.60676  0.94387  0.71984  1.0000
  C   C8139     1.0  0.61672  0.95325  0.71123  1.0000
  C   C8140     1.0  0.72666  0.97950  0.50244  1.0000
  H   H6505     1.0  0.55976  0.98100  0.68979  1.0000
  C   C8141     1.0  0.49988  0.94421  0.66360  1.0000
  C   C8142     1.0  0.52066  0.98233  0.56074  1.0000
  C   C8143     1.0  0.60141  0.93578  0.49791  1.0000
  P   P273      1.0  0.53537  0.97870  0.56319  1.0000
  C   C8144     1.0  0.61275  0.96402  0.70387  1.0000
  H   H6506     1.0  0.59668  0.97984  0.63671  1.0000
  C   C8145     1.0  0.63219  0.96797  0.69844  1.0000
  C   C8146     1.0  0.63625  0.95725  0.70565  1.0000
  C   C8147     1.0  0.62855  0.94992  0.71203  1.0000
  C   C8148     1.0  0.59197  0.95247  0.72030  1.0000
  C   C8149     1.0  0.58693  0.95421  0.71075  1.0000
  S   S1089     1.0  0.88752  0.96045  0.49339  1.0000
  H   H6507     1.0  0.70918  0.88751  0.55323  1.0000
  C   C8150     1.0  0.84163  0.91131  0.49418  1.0000
  C   C8151     1.0  0.50600  0.98055  0.67567  1.0000
  S   S1090     1.0  0.50203  0.95297  0.59201  1.0000
  H   H6508     1.0  0.51275  0.90793  0.66625  1.0000
  C   C8152     1.0  0.94561  0.89281  0.50726  1.0000
  H   H6509     1.0  0.92998  0.88938  0.50513  1.0000
  H   H6510     1.0  0.56661  0.88773  0.72565  1.0000
  H   H6511     1.0  0.98595  0.80003  0.53196  1.0000
  H   H6512     1.0  0.69158  0.93310  0.49855  1.0000
  C   C8153     1.0  0.72289  0.98378  0.61819  1.0000
  C   C8154     1.0  0.68338  0.97218  0.50485  1.0000
  H   H6513     1.0  0.63672  0.95901  0.62866  1.0000
  H   H6514     1.0  0.61291  0.95473  0.73525  1.0000
  H   H6515     1.0  0.51554  0.92306  0.72375  1.0000
  H   H6516     1.0  0.63812  0.97371  0.69360  1.0000
  H   H6517     1.0  0.64533  0.95467  0.70640  1.0000
  H   H6518     1.0  0.55584  0.98464  0.60991  1.0000
  H   H6519     1.0  0.59145  0.94964  0.70370  1.0000
  H   H6520     1.0  0.61502  0.94860  0.56865  1.0000
  C   C8155     1.0  0.73495  0.91123  0.56764  1.0000
  C   C8156     1.0  0.53915  0.91383  0.65083  1.0000
  H   H6521     1.0  0.79060  0.96809  0.50913  1.0000
  H   H6522     1.0  0.73848  0.85443  0.52651  1.0000
  H   H6523     1.0  0.77986  0.84534  0.55008  1.0000
  C   C8157     1.0  0.51503  0.92267  0.65155  1.0000
  P   P274      1.0  0.60831  0.95100  0.50668  1.0000
  H   H6524     1.0  0.75726  0.89635  0.58161  1.0000
  H   H6525     1.0  0.50783  0.96181  0.71392  1.0000
  H   H6526     1.0  0.86376  0.92949  0.52926  1.0000
  C   C8158     1.0  0.61151  0.91311  0.70243  1.0000
  H   H6527     1.0  0.97098  0.79205  0.49312  1.0000
  S   S1091     1.0  0.57174  0.91334  0.71154  1.0000
  H   H6528     1.0  0.77651  0.97804  0.55596  1.0000
  C   C8159     1.0  0.73590  0.98721  0.59901  1.0000
  C   C8160     1.0  0.62139  0.91922  0.66339  1.0000
  C   C8161     1.0  0.51275  0.97527  0.56746  1.0000
  C   C8162     1.0  0.58992  0.91295  0.65509  1.0000
  C   C8163     1.0  0.55066  0.98123  0.69410  1.0000
  S   S1092     1.0  0.57157  0.95788  0.61532  1.0000
  C   C8164     1.0  0.78726  0.98770  0.54135  1.0000
  C   C8165     1.0  0.78284  0.97775  0.54771  1.0000
  S   S1093     1.0  0.56773  0.96335  0.58864  1.0000
  H   H6529     1.0  0.61803  0.95414  0.59947  1.0000
  C   C8166     1.0  0.89171  0.99140  0.55794  1.0000
  C   C8167     1.0  0.63234  0.92156  0.61480  1.0000
  C   C8168     1.0  0.52452  0.98760  0.59539  1.0000
  C   C8169     1.0  0.53014  0.97220  0.66830  1.0000
  C   C8170     1.0  0.75285  0.98133  0.55459  1.0000
  C   C8171     1.0  0.96860  0.80612  0.55562  1.0000
  C   C8172     1.0  0.62705  0.90823  0.63331  1.0000
  H   H6530     1.0  0.63126  0.93044  0.60958  1.0000
  C   C8173     1.0  0.53021  0.99114  0.69588  1.0000
  C   C8174     1.0  0.74064  0.90462  0.57670  1.0000
  H   H6531     1.0  0.70597  0.98761  0.52097  1.0000
  H   H6532     1.0  0.75358  0.89085  0.51273  1.0000
  H   H6533     1.0  0.60130  0.97827  0.58128  1.0000
  C   C8175     1.0  0.86054  0.97368  0.52262  1.0000
  C   C8176     1.0  0.62994  0.97643  0.55706  1.0000
  C   C8177     1.0  0.60936  0.97767  0.57458  1.0000
  H   H6534     1.0  0.63778  0.97606  0.55008  1.0000
  C   C8178     1.0  0.59234  0.95643  0.55688  1.0000
  S   S1094     1.0  0.78027  0.95537  0.55090  1.0000
  H   H6535     1.0  0.70242  0.91262  0.50375  1.0000
  P   P275      1.0  0.83664  0.97712  0.53332  1.0000
  C   C8179     1.0  0.60874  0.93183  0.71295  1.0000
  C   C8180     1.0  0.56255  0.88302  0.73404  1.0000
  H   H6536     1.0  0.60953  0.94955  0.54708  1.0000
  H   H6537     1.0  0.54222  0.97220  0.62240  1.0000
  H   H6538     1.0  0.50765  0.89603  0.72049  1.0000
  C   C8181     1.0  0.78657  0.96744  0.54339  1.0000
  H   H6539     1.0  0.63178  0.94167  0.71766  1.0000
  H   H6540     1.0  0.81365  0.97862  0.55060  1.0000
  H   H6541     1.0  0.74344  0.86230  0.54067  1.0000
  C   C8182     1.0  0.63895  0.95786  0.61080  1.0000
  C   C8183     1.0  0.94284  0.84550  0.53397  1.0000
  C   C8184     1.0  0.83401  0.93245  0.52166  1.0000
  S   S1095     1.0  0.71941  0.91501  0.57076  1.0000
  H   H6542     1.0  0.60375  0.97417  0.51159  1.0000
  H   H6543     1.0  0.64988  0.93519  0.57483  1.0000
  C   C8185     1.0  0.57635  0.96232  0.70988  1.0000
  C   C8186     1.0  0.59159  0.92359  0.63477  1.0000
  C   C8187     1.0  0.81664  0.98656  0.54907  1.0000
  H   H6544     1.0  0.74048  0.97348  0.61364  1.0000
  H   H6545     1.0  0.60242  0.97156  0.56356  1.0000
  C   C8188     1.0  0.60215  0.95701  0.54749  1.0000
  C   C8189     1.0  0.75296  0.90157  0.57458  1.0000
  H   H6546     1.0  0.53395  0.90022  0.66545  1.0000
  H   H6547     1.0  0.57070  0.97140  0.73527  1.0000
  H   H6548     1.0  0.58733  0.96500  0.52049  1.0000
  C   C8190     1.0  0.84830  0.92239  0.53354  1.0000
  H   H6549     1.0  0.62157  0.91877  0.59650  1.0000
  C   C8191     1.0  0.66031  0.91922  0.59258  1.0000
  C   C8192     1.0  0.51894  0.91246  0.65960  1.0000
  C   C8193     1.0  0.97005  0.74276  0.54142  1.0000
  C   C8194     1.0  0.53096  0.90807  0.65922  1.0000
  H   H6550     1.0  0.68700  0.91901  0.57359  1.0000
  C   C8195     1.0  0.61577  0.96675  0.64713  1.0000
  C   C8196     1.0  0.61058  0.92679  0.66654  1.0000
  C   C8197     1.0  0.52330  0.92882  0.64370  1.0000
  C   C8198     1.0  0.62028  0.97325  0.55580  1.0000
  C   C8199     1.0  0.60998  0.97389  0.56455  1.0000
  S   S1096     1.0  0.80221  0.93708  0.52725  1.0000
  C   C8200     1.0  0.69037  0.98183  0.55388  1.0000
  S   S1097     1.0  0.49823  0.92547  0.69113  1.0000
  H   H6551     1.0  0.81669  0.96714  0.53659  1.0000
  C   C8201     1.0  0.82743  0.98811  0.54145  1.0000
  C   C8202     1.0  0.53570  0.97193  0.70829  1.0000
  C   C8203     1.0  0.62045  0.97134  0.69754  1.0000
  C   C8204     1.0  0.82909  0.94031  0.55086  1.0000
  H   H6552     1.0  0.77194  0.94883  0.49503  1.0000
  C   C8205     1.0  0.58282  0.96608  0.55737  1.0000
  S   S1098     1.0  0.54351  0.95075  0.61474  1.0000
  P   P276      1.0  0.75207  0.88307  0.53834  1.0000
  C   C8206     1.0  0.63679  0.92588  0.58653  1.0000
  C   C8207     1.0  0.63943  0.91208  0.60981  1.0000
  S   S1099     1.0  0.59194  0.94372  0.56804  1.0000
  H   H6553     1.0  0.52110  0.96605  0.61508  1.0000
  C   C8208     1.0  0.69538  0.97240  0.54814  1.0000
  C   C8209     1.0  0.57876  0.95660  0.64161  1.0000
  H   H6554     1.0  0.83666  0.96360  0.51690  1.0000
  H   H6555     1.0  0.82735  0.93162  0.55464  1.0000
  C   C8210     1.0  0.62487  0.92548  0.58938  1.0000
  C   C8211     1.0  0.85527  0.97738  0.54222  1.0000
  H   H6556     1.0  0.84873  0.97911  0.55004  1.0000
  C   C8212     1.0  0.84221  0.95358  0.54540  1.0000
  C   C8213     1.0  0.93149  0.82534  0.54388  1.0000
  P   P277      1.0  0.61261  0.95660  0.64068  1.0000
  C   C8214     1.0  0.71776  0.88616  0.56694  1.0000
  C   C8215     1.0  0.83983  0.94247  0.55065  1.0000
  C   C8216     1.0  0.50567  0.92888  0.62706  1.0000
  H   H6557     1.0  0.55390  0.92349  0.66144  1.0000
  C   C8217     1.0  0.53462  0.94579  0.59852  1.0000
  S   S1100     1.0  0.79548  0.92266  0.55445  1.0000
  H   H6558     1.0  0.97714  0.75813  0.53377  1.0000
  C   C8218     1.0  0.70175  0.98590  0.53018  1.0000
  C   C8219     1.0  0.87576  0.97300  0.53219  1.0000
  H   H6559     1.0  0.60419  0.92388  0.67428  1.0000
  H   H6560     1.0  0.54162  0.92893  0.63679  1.0000
  C   C8220     1.0  0.55636  0.94604  0.57134  1.0000
  C   C8221     1.0  0.64377  0.89966  0.58243  1.0000
  C   C8222     1.0  0.79504  0.96701  0.53295  1.0000
  H   H6561     1.0  0.69479  0.96360  0.55288  1.0000
  C   C8223     1.0  0.59323  0.88788  0.73225  1.0000
  C   C8224     1.0  0.86718  0.97574  0.54205  1.0000
  H   H6562     1.0  0.60370  0.96693  0.70304  1.0000
  H   H6563     1.0  0.85072  0.95488  0.54508  1.0000
  C   C8225     1.0  0.81981  0.90510  0.50097  1.0000
  C   C8226     1.0  0.59718  0.96126  0.64049  1.0000
  H   H6564     1.0  0.64161  0.88807  0.57306  1.0000
  C   C8227     1.0  0.53503  0.98307  0.57638  1.0000
  C   C8228     1.0  0.79949  0.97689  0.52661  1.0000
  C   C8229     1.0  0.65060  0.90144  0.58908  1.0000
  H   H6565     1.0  0.73729  0.90629  0.53110  1.0000
  H   H6566     1.0  0.57377  0.95012  0.64295  1.0000
  H   H6567     1.0  0.57516  0.96562  0.56442  1.0000
  C   C8230     1.0  0.52615  0.95328  0.70860  1.0000
  C   C8231     1.0  0.87243  0.97193  0.52254  1.0000
  C   C8232     1.0  0.66061  0.89275  0.59141  1.0000
  H   H6568     1.0  0.88502  0.97158  0.53203  1.0000
  C   C8233     1.0  0.71747  0.88652  0.55546  1.0000
  H   H6569     1.0  0.56843  0.94199  0.67644  1.0000
  C   C8234     1.0  0.50314  0.92965  0.61633  1.0000
  H   H6570     1.0  0.57289  0.96389  0.70220  1.0000
  H   H6571     1.0  0.49704  0.98954  0.72786  1.0000
  C   C8235     1.0  0.62617  0.91962  0.62647  1.0000
  C   C8236     1.0  0.65686  0.88076  0.58058  1.0000
  H   H6572     1.0  0.57898  0.97904  0.67393  1.0000
  Fe  Fe546     1.0  0.58348  0.94866  0.58553  1.0000
  H   H6573     1.0  0.51471  0.92784  0.62716  1.0000
  H   H6574     1.0  0.63348  0.93708  0.63888  1.0000
  C   C8237     1.0  0.58109  0.95283  0.53577  1.0000
  H   H6575     1.0  0.72212  0.94133  0.55955  1.0000
  Fe  Fe547     1.0  0.56230  0.95132  0.60575  1.0000
  C   C8238     1.0  0.60794  0.93812  0.65973  1.0000
  H   H6576     1.0  0.67147  0.87583  0.58897  1.0000
  H   H6577     1.0  0.56234  0.97496  0.71792  1.0000
  C   C8239     1.0  0.73000  0.94477  0.55645  1.0000
  C   C8240     1.0  0.51420  0.95640  0.70826  1.0000
  C   C8241     1.0  0.75971  0.90547  0.56350  1.0000
  H   H6578     1.0  0.96139  0.84541  0.52953  1.0000
  S   S1101     1.0  0.55994  0.98455  0.66224  1.0000
  C   C8242     1.0  0.53299  0.95272  0.60654  1.0000
  H   H6579     1.0  0.54297  0.93976  0.59641  1.0000
  C   C8243     1.0  0.95251  0.85075  0.53063  1.0000
  C   C8244     1.0  0.53731  0.95600  0.56050  1.0000
  H   H6580     1.0  0.79804  0.95916  0.52959  1.0000
  C   C8245     1.0  0.75045  0.95341  0.54837  1.0000
  S   S1102     1.0  0.59846  0.93301  0.62269  1.0000
  C   C8246     1.0  0.55188  0.93899  0.56721  1.0000
  C   C8247     1.0  0.55174  0.98564  0.61881  1.0000
  C   C8248     1.0  0.85545  0.90463  0.51443  1.0000
  C   C8249     1.0  0.73817  0.98403  0.57236  1.0000
  S   S1103     1.0  0.77602  0.93116  0.53781  1.0000
  C   C8250     1.0  0.74173  0.91481  0.55645  1.0000
  C   C8251     1.0  0.73069  0.98034  0.51179  1.0000
  S   S1104     1.0  0.77516  0.90120  0.56104  1.0000
  Fe  Fe548     1.0  0.58685  0.94350  0.61020  1.0000
  C   C8252     1.0  0.54899  0.93223  0.65823  1.0000
  C   C8253     1.0  0.60036  0.92491  0.71670  1.0000
  H   H6581     1.0  0.60277  0.92324  0.64585  1.0000
  C   C8254     1.0  0.53732  0.93608  0.66382  1.0000
  C   C8255     1.0  0.51256  0.96396  0.63916  1.0000
  H   H6582     1.0  0.72451  0.96785  0.49315  1.0000
  C   C8256     1.0  0.72779  0.88610  0.54670  1.0000
  C   C8257     1.0  0.73925  0.93990  0.56226  1.0000
  C   C8258     1.0  0.64398  0.94906  0.51436  1.0000
  C   C8259     1.0  0.74951  0.94414  0.55816  1.0000
  Fe  Fe549     1.0  0.71064  0.92328  0.55547  1.0000
  S   S1105     1.0  0.66761  0.93230  0.55247  1.0000
  H   H6583     1.0  0.72859  0.88530  0.57853  1.0000
  H   H6584     1.0  0.53010  0.95970  0.55607  1.0000
  C   C8260     1.0  0.54238  0.94398  0.56175  1.0000
  S   S1106     1.0  0.69537  0.93695  0.52925  1.0000
  H   H6585     1.0  0.75679  0.94021  0.56251  1.0000
  H   H6586     1.0  0.73755  0.91994  0.54941  1.0000
  C   C8261     1.0  0.75407  0.91210  0.55442  1.0000
  H   H6587     1.0  0.78105  0.95228  0.51015  1.0000
  C   C8262     1.0  0.59769  0.94723  0.52016  1.0000
  C   C8263     1.0  0.58859  0.95587  0.52490  1.0000
  H   H6588     1.0  0.73734  0.90462  0.49757  1.0000
  H   H6589     1.0  0.59463  0.94374  0.64331  1.0000
  C   C8264     1.0  0.66232  0.94659  0.54489  1.0000
  Fe  Fe550     1.0  0.78494  0.91431  0.54808  1.0000
  H   H6590     1.0  0.64580  0.94366  0.54461  1.0000
  C   C8265     1.0  0.54805  0.95091  0.64428  1.0000
  C   C8266     1.0  0.66946  0.95466  0.54138  1.0000
  H   H6591     1.0  0.60911  0.87477  0.73422  1.0000
  C   C8267     1.0  0.51266  0.96069  0.60471  1.0000
  Fe  Fe551     1.0  0.57827  0.96865  0.59781  1.0000
  H   H6592     1.0  0.74480  0.96768  0.56657  1.0000
  C   C8268     1.0  0.65141  0.94984  0.54176  1.0000
  C   C8269     1.0  0.98626  0.78292  0.50022  1.0000
  S   S1107     1.0  0.70109  0.91335  0.54968  1.0000
  H   H6593     1.0  0.70969  0.88704  0.57361  1.0000
  H   H6594     1.0  0.52218  0.95040  0.66443  1.0000
  H   H6595     1.0  0.85817  0.97263  0.51511  1.0000
  H   H6596     1.0  0.96482  0.81325  0.49425  1.0000
  Fe  Fe552     1.0  0.68725  0.93011  0.54804  1.0000
  H   H6597     1.0  0.56313  0.93637  0.64373  1.0000
  S   S1108     1.0  0.79951  0.90976  0.53284  1.0000
  C   C8270     1.0  0.59178  0.97324  0.63817  1.0000
  H   H6598     1.0  0.54360  0.94498  0.70017  1.0000
  C   C8271     1.0  0.52276  0.97423  0.66064  1.0000
  H   H6599     1.0  0.95698  0.77887  0.50789  1.0000
  H   H6600     1.0  0.85582  0.86136  0.50119  1.0000
  C   C8272     1.0  0.95080  0.86293  0.52882  1.0000
  C   C8273     1.0  0.92815  0.82227  0.55617  1.0000
  H   H6601     1.0  0.75921  0.91500  0.54579  1.0000
  C   C8274     1.0  0.70100  0.97449  0.53623  1.0000
  C   C8275     1.0  0.64808  0.96088  0.53444  1.0000
  C   C8276     1.0  0.66618  0.96558  0.53416  1.0000
  H   H6602     1.0  0.67196  0.97161  0.53131  1.0000
  H   H6603     1.0  0.91496  0.81658  0.57108  1.0000
  C   C8277     1.0  0.65572  0.96856  0.53032  1.0000
  H   H6604     1.0  0.95831  0.86693  0.52621  1.0000
  H   H6605     1.0  0.59951  0.94386  0.66243  1.0000
  H   H6606     1.0  0.91772  0.97993  0.51863  1.0000
  H   H6607     1.0  0.80604  0.97645  0.51851  1.0000
  Fe  Fe553     1.0  0.70467  0.94521  0.53711  1.0000
  H   H6608     1.0  0.61052  0.95748  0.66511  1.0000
  C   C8278     1.0  0.62210  0.95530  0.60581  1.0000
  H   H6609     1.0  0.59859  0.97558  0.60313  1.0000
  H   H6610     1.0  0.85103  0.91551  0.54070  1.0000
  H   H6611     1.0  0.96025  0.80582  0.54257  1.0000
  C   C8279     1.0  0.63355  0.99040  0.59021  1.0000
  C   C8280     1.0  0.51848  0.94646  0.69236  1.0000
  H   H6612     1.0  0.56378  0.94224  0.57552  1.0000
  C   C8281     1.0  0.57965  0.94994  0.68110  1.0000
  S   S1109     1.0  0.70725  0.96327  0.52845  1.0000
  C   C8282     1.0  0.54749  0.97158  0.70259  1.0000
  H   H6613     1.0  0.82593  0.93321  0.51931  1.0000
  C   C8283     1.0  0.55256  0.98032  0.54227  1.0000
  Fe  Fe554     1.0  0.80932  0.91978  0.53821  1.0000
  P   P278      1.0  0.52906  0.97034  0.64661  1.0000
  H   H6614     1.0  0.78197  0.87494  0.56147  1.0000
  C   C8284     1.0  0.62080  0.95696  0.62565  1.0000
  H   H6615     1.0  0.54017  0.93342  0.72102  1.0000
  C   C8285     1.0  0.58262  0.94120  0.54203  1.0000
  H   H6616     1.0  0.75851  0.97563  0.54883  1.0000
  C   C8286     1.0  0.95685  0.82967  0.55369  1.0000
  C   C8287     1.0  0.63373  0.95647  0.60255  1.0000
  H   H6617     1.0  0.63869  0.95628  0.59364  1.0000
  C   C8288     1.0  0.92975  0.86483  0.53355  1.0000
  H   H6618     1.0  0.79395  0.89463  0.49398  1.0000
  C   C8289     1.0  0.74206  0.86221  0.52350  1.0000
  C   C8290     1.0  0.53648  0.95504  0.65012  1.0000
  C   C8291     1.0  0.93143  0.85265  0.53533  1.0000
  C   C8292     1.0  0.63253  0.95805  0.62232  1.0000
  H   H6619     1.0  0.95400  0.84141  0.51227  1.0000
  H   H6620     1.0  0.57254  0.86613  0.73082  1.0000
  P   P279      1.0  0.53137  0.95896  0.71788  1.0000
  C   C8293     1.0  0.83453  0.97277  0.51274  1.0000
  H   H6621     1.0  0.92627  0.82769  0.52762  1.0000
  H   H6622     1.0  0.90745  0.82179  0.53730  1.0000
  C   C8294     1.0  0.95653  0.74997  0.50061  1.0000
  C   C8295     1.0  0.58300  0.96036  0.67983  1.0000
  H   H6623     1.0  0.72123  0.97880  0.62715  1.0000
  C   C8296     1.0  0.61065  0.94069  0.49759  1.0000
  H   H6624     1.0  0.89962  0.98567  0.56050  1.0000
  S   S1110     1.0  0.89178  0.94043  0.51764  1.0000
  H   H6625     1.0  0.55242  0.95646  0.63676  1.0000
  H   H6626     1.0  0.56419  0.97131  0.63925  1.0000
  H   H6627     1.0  0.87617  0.89703  0.53069  1.0000
  C   C8297     1.0  0.57341  0.96853  0.63942  1.0000
  C   C8298     1.0  0.78133  0.96879  0.51310  1.0000
  H   H6628     1.0  0.81309  0.92117  0.50719  1.0000
  H   H6629     1.0  0.90174  0.81621  0.55903  1.0000
  C   C8299     1.0  0.60324  0.96561  0.49845  1.0000
  C   C8300     1.0  0.79684  0.93749  0.49317  1.0000
  C   C8301     1.0  0.98293  0.81780  0.52223  1.0000
  C   C8302     1.0  0.57696  0.97097  0.67401  1.0000
  H   H6630     1.0  0.51697  0.98189  0.58475  1.0000
  H   H6631     1.0  0.71667  0.93531  0.51051  1.0000
  H   H6632     1.0  0.61250  0.90587  0.69843  1.0000
  H   H6633     1.0  0.85572  0.89574  0.53235  1.0000
  H   H6634     1.0  0.50427  0.96655  0.60706  1.0000
  H   H6635     1.0  0.57715  0.93899  0.55070  1.0000
  H   H6636     1.0  0.55255  0.99110  0.58889  1.0000
  C   C8303     1.0  0.72316  0.93132  0.50379  1.0000
  S   S1111     1.0  0.59233  0.98963  0.52803  1.0000
  C   C8304     1.0  0.95663  0.77086  0.50589  1.0000
  H   H6637     1.0  0.58999  0.96031  0.68370  1.0000
  H   H6638     1.0  0.72722  0.88695  0.53776  1.0000
  C   C8305     1.0  0.74521  0.97681  0.56469  1.0000
  C   C8306     1.0  0.94291  0.91099  0.51312  1.0000
  H   H6639     1.0  0.54076  0.86662  0.73751  1.0000
  Fe  Fe555     1.0  0.63580  0.99009  0.51506  1.0000
  C   C8307     1.0  0.83233  0.97591  0.50146  1.0000
  H   H6640     1.0  0.96593  0.82983  0.56648  1.0000
  C   C8308     1.0  0.51037  0.95283  0.70030  1.0000
  C   C8309     1.0  0.91324  0.82191  0.54257  1.0000
  C   C8310     1.0  0.80301  0.94453  0.49520  1.0000
  C   C8311     1.0  0.76059  0.91912  0.51910  1.0000
  C   C8312     1.0  0.54154  0.96308  0.56496  1.0000
  C   C8313     1.0  0.95661  0.76064  0.51466  1.0000
  H   H6641     1.0  0.60958  0.98182  0.61384  1.0000
  H   H6642     1.0  0.55412  0.96365  0.70435  1.0000
  S   S1112     1.0  0.71992  0.91019  0.51810  1.0000
  H   H6643     1.0  0.87911  0.96955  0.51504  1.0000
  H   H6644     1.0  0.61350  0.97198  0.67392  1.0000
  C   C8314     1.0  0.82927  0.98774  0.49604  1.0000
  H   H6645     1.0  0.61869  0.93989  0.52762  1.0000
  H   H6646     1.0  0.92380  0.84891  0.53784  1.0000
  H   H6647     1.0  0.76263  0.92758  0.51460  1.0000
  H   H6648     1.0  0.53759  0.88819  0.73046  1.0000
  C   C8315     1.0  0.92393  0.82521  0.53711  1.0000
  C   C8316     1.0  0.63036  0.95621  0.50145  1.0000
  C   C8317     1.0  0.82074  0.91552  0.50291  1.0000
  C   C8318     1.0  0.62210  0.95049  0.50993  1.0000
  H   H6649     1.0  0.95115  0.88465  0.50525  1.0000
  C   C8319     1.0  0.95657  0.80887  0.51260  1.0000
  C   C8320     1.0  0.91020  0.98561  0.51532  1.0000
  C   C8321     1.0  0.93098  0.91387  0.51269  1.0000
  H   H6650     1.0  0.49963  0.95632  0.67372  1.0000
  H   H6651     1.0  0.57556  0.98366  0.54898  1.0000
  C   C8322     1.0  0.69840  0.92927  0.49188  1.0000
  H   H6652     1.0  0.79823  0.88683  0.51372  1.0000
  H   H6653     1.0  0.94646  0.91698  0.51549  1.0000
  C   C8323     1.0  0.54475  0.98922  0.58786  1.0000
  C   C8324     1.0  0.52557  0.97446  0.67948  1.0000
  H   H6654     1.0  0.92537  0.92201  0.51481  1.0000
  C   C8325     1.0  0.64122  0.95553  0.50368  1.0000
  H   H6655     1.0  0.57728  0.90143  0.73315  1.0000
  S   S1113     1.0  0.97241  0.87137  0.49400  1.0000
  C   C8326     1.0  0.57048  0.96853  0.71870  1.0000
  H   H6656     1.0  0.79068  0.86973  0.52691  1.0000
  C   C8327     1.0  0.87221  0.90050  0.52313  1.0000
  C   C8328     1.0  0.54556  0.93682  0.72436  1.0000
  S   S1114     1.0  0.57763  0.98793  0.59401  1.0000
  C   C8329     1.0  0.60187  0.91549  0.71157  1.0000
  Fe  Fe556     1.0  0.87937  0.94585  0.50559  1.0000
  H   H6657     1.0  0.84644  0.90419  0.51553  1.0000
  C   C8330     1.0  0.72644  0.91910  0.50530  1.0000
  H   H6658     1.0  0.50710  0.93776  0.66683  1.0000
  C   C8331     1.0  0.61932  0.97696  0.64005  1.0000
  H   H6659     1.0  0.63297  0.98131  0.59335  1.0000
  H   H6660     1.0  0.51788  0.98189  0.70868  1.0000
  H   H6661     1.0  0.49948  0.92866  0.71344  1.0000
  C   C8332     1.0  0.95155  0.81297  0.52298  1.0000
  C   C8333     1.0  0.52478  0.98401  0.58534  1.0000
  H   H6662     1.0  0.77423  0.89119  0.52934  1.0000
  H   H6663     1.0  0.96282  0.83410  0.49421  1.0000
  H   H6664     1.0  0.51007  0.98046  0.69185  1.0000
  H   H6665     1.0  0.78897  0.85383  0.56067  1.0000
  C   C8334     1.0  0.61544  0.97320  0.66446  1.0000
  C   C8335     1.0  0.59562  0.98420  0.60514  1.0000
  C   C8336     1.0  0.57526  0.96660  0.72843  1.0000
  C   C8337     1.0  0.60195  0.97536  0.50306  1.0000
  C   C8338     1.0  0.61376  0.96498  0.65939  1.0000
  H   H6666     1.0  0.51077  0.94961  0.73250  1.0000
  S   S1115     1.0  0.91124  0.90915  0.50994  1.0000
  H   H6667     1.0  0.76782  0.90408  0.49698  1.0000
  C   C8339     1.0  0.55407  0.92891  0.73011  1.0000
  H   H6668     1.0  0.69859  0.96072  0.51082  1.0000
  H   H6669     1.0  0.62027  0.97888  0.63064  1.0000
  C   C8340     1.0  0.55007  0.95287  0.72896  1.0000
  H   H6670     1.0  0.55314  0.98483  0.57114  1.0000
  C   C8341     1.0  0.54411  0.97853  0.62596  1.0000
  H   H6671     1.0  0.54837  0.96209  0.72891  1.0000
  C   C8342     1.0  0.74328  0.86810  0.51175  1.0000
  C   C8343     1.0  0.87849  0.90598  0.51252  1.0000
  H   H6672     1.0  0.95759  0.79972  0.51266  1.0000
  C   C8344     1.0  0.74499  0.86663  0.53147  1.0000
  H   H6673     1.0  0.74442  0.98490  0.59328  1.0000
  H   H6674     1.0  0.94837  0.80695  0.53087  1.0000
  C   C8345     1.0  0.52707  0.98177  0.70486  1.0000
  C   C8346     1.0  0.74947  0.87683  0.52770  1.0000
  C   C8347     1.0  0.91001  0.81878  0.55480  1.0000
  C   C8348     1.0  0.62099  0.98516  0.64515  1.0000
  C   C8349     1.0  0.76787  0.86167  0.54479  1.0000
  H   H6675     1.0  0.66891  0.98224  0.49687  1.0000
  H   H6676     1.0  0.51661  0.98816  0.60230  1.0000
  H   H6677     1.0  0.57580  0.98610  0.63584  1.0000
  C   C8350     1.0  0.95083  0.82466  0.52314  1.0000
  Fe  Fe557     1.0  0.99111  0.77365  0.52636  1.0000
  C   C8351     1.0  0.85434  0.86618  0.49259  1.0000
  H   H6678     1.0  0.62489  0.93472  0.70045  1.0000
  H   H6679     1.0  0.53144  0.97277  0.68525  1.0000
  C   C8352     1.0  0.56031  0.98601  0.53313  1.0000
  H   H6680     1.0  0.58538  0.98718  0.70711  1.0000
  H   H6681     1.0  0.59268  0.92674  0.72363  1.0000
  Fe  Fe558     1.0  0.90068  0.95422  0.50465  1.0000
  C   C8353     1.0  0.92629  0.90607  0.50985  1.0000
  Fe  Fe559     1.0  0.97767  0.88248  0.50261  1.0000
  H   H6682     1.0  0.77862  0.91034  0.51927  1.0000
  C   C8354     1.0  0.74748  0.87838  0.50798  1.0000
  H   H6683     1.0  0.52903  0.97526  0.73236  1.0000
  H   H6684     1.0  0.64748  0.96010  0.49718  1.0000
  Fe  Fe560     1.0  0.98516  0.85671  0.50273  1.0000
  C   C8355     1.0  0.97684  0.74973  0.53261  1.0000
  C   C8356     1.0  0.49663  0.92937  0.63724  1.0000
  C   C8357     1.0  0.93360  0.89550  0.50722  1.0000
  C   C8358     1.0  0.72782  0.96851  0.50026  1.0000
  C   C8359     1.0  0.58601  0.95864  0.72924  1.0000
  H   H6685     1.0  0.72239  0.98739  0.49707  1.0000
  C   C8360     1.0  0.95948  0.82823  0.50219  1.0000
  H   H6686     1.0  0.55234  0.89873  0.73955  1.0000
  C   C8361     1.0  0.78199  0.86794  0.51454  1.0000
  H   H6687     1.0  0.50461  0.97988  0.65876  1.0000
  C   C8362     1.0  0.95641  0.77071  0.49451  1.0000
  H   H6688     1.0  0.49936  0.90410  0.65203  1.0000
  C   C8363     1.0  0.79312  0.88269  0.51077  1.0000
  C   C8364     1.0  0.54504  0.98566  0.57777  1.0000
  S   S1116     1.0  0.98578  0.77393  0.54551  1.0000
  C   C8365     1.0  0.54497  0.98617  0.55098  1.0000
  H   H6689     1.0  0.86453  0.93384  0.49457  1.0000
  H   H6690     1.0  0.88080  0.98823  0.57531  1.0000
  H   H6691     1.0  0.59550  0.91005  0.71461  1.0000
  H   H6692     1.0  0.62715  0.91834  0.69126  1.0000
  H   H6693     1.0  0.83289  0.96912  0.49703  1.0000
  C   C8366     1.0  0.99383  0.81063  0.53762  1.0000
  C   C8367     1.0  0.61842  0.92942  0.70371  1.0000
  H   H6694     1.0  0.55508  0.91958  0.73116  1.0000
  H   H6695     1.0  0.77860  0.86054  0.52032  1.0000
  S   S1117     1.0  0.88943  0.93276  0.49454  1.0000
  C   C8368     1.0  0.79060  0.88712  0.49963  1.0000
  H   H6696     1.0  0.58969  0.95751  0.73671  1.0000
  C   C8369     1.0  0.61975  0.92011  0.69845  1.0000
  C   C8370     1.0  0.73482  0.91405  0.49647  1.0000
  C   C8371     1.0  0.52065  0.96252  0.73077  1.0000
  H   H6697     1.0  0.51658  0.99176  0.63349  1.0000
  C   C8372     1.0  0.59836  0.98673  0.49672  1.0000
  H   H6698     1.0  0.93849  0.74682  0.49318  1.0000
  H   H6699     1.0  0.61986  0.98988  0.66133  1.0000
  C   C8373     1.0  0.99525  0.82200  0.53627  1.0000
  C   C8374     1.0  0.70441  0.91761  0.49483  1.0000
  C   C8375     1.0  0.60964  0.93840  0.73442  1.0000
  H   H6700     1.0  0.70352  0.94877  0.49606  1.0000
  P   P280      1.0  0.49957  0.92804  0.65143  1.0000
  H   H6701     1.0  0.50118  0.89972  0.70225  1.0000
  C   C8376     1.0  0.54202  0.99093  0.69059  1.0000
  H   H6702     1.0  0.74791  0.88322  0.49904  1.0000
  C   C8377     1.0  0.82982  0.89763  0.49584  1.0000
  H   H6703     1.0  0.96530  0.74563  0.54948  1.0000
  H   H6704     1.0  0.87230  0.89231  0.49222  1.0000
  H   H6705     1.0  0.56729  0.92680  0.73961  1.0000
  H   H6706     1.0  0.60645  0.92106  0.73702  1.0000
  H   H6707     1.0  0.56360  0.94803  0.73884  1.0000
  S   S1118     1.0  0.91284  0.94159  0.49366  1.0000
  C   C8378     1.0  0.51684  0.99235  0.55247  1.0000
  C   C8379     1.0  0.69579  0.95585  0.49631  1.0000
  C   C8380     1.0  0.52210  0.97054  0.73631  1.0000
  C   C8381     1.0  0.49895  0.97784  0.62790  1.0000
  H   H6708     1.0  0.49981  0.95930  0.63314  1.0000
  C   C8382     1.0  0.56592  0.87081  0.73702  1.0000
  C   C8383     1.0  0.61259  0.94574  0.73971  1.0000
  C   C8384     1.0  0.60888  0.92694  0.74065  1.0000
  H   H6709     1.0  0.49661  0.98371  0.67852  1.0000
  C   C8385     1.0  0.51184  0.95621  0.73628  1.0000
  C   C8386     1.0  0.55869  0.94495  0.73459  1.0000
  C   C8387     1.0  0.56077  0.93297  0.73507  1.0000
  C   C8388     1.0  0.51896  0.89136  0.73767  1.0000
  H   H6710     1.0  0.82908  0.88951  0.49446  1.0000
  H   H6711     1.0  0.76292  0.92565  0.49372  1.0000
  H   H6712     1.0  0.83688  0.86337  0.49613  1.0000
  C   C8389     1.0  0.98850  0.75188  0.49366  1.0000
  H   H6713     1.0  0.54559  0.98061  0.73741  1.0000
  H   H6714     1.0  0.51777  0.90075  0.73426  1.0000
  C   C8390     1.0  0.58464  0.89679  0.73712  1.0000
  C   C8391     1.0  0.49834  0.89796  0.72089  1.0000
  H   H6715     1.0  0.52154  0.92746  0.74069  1.0000
  Fe  Fe561     1.0  0.57229  0.79036  0.93330  1.0000
  S   S1119     1.0  0.55447  0.78630  0.93997  1.0000
  S   S1120     1.0  0.57567  0.80737  0.93402  1.0000
  Fe  Fe562     1.0  0.58349  0.76711  0.92578  1.0000
  S   S1121     1.0  0.56668  0.76099  0.93172  1.0000
  S   S1122     1.0  0.60051  0.75709  0.91644  1.0000
  Fe  Fe563     1.0  0.55867  0.77935  0.92365  1.0000
  S   S1123     1.0  0.54573  0.78225  0.91265  1.0000
  Fe  Fe564     1.0  0.56393  0.76823  0.94754  1.0000
  S   S1124     1.0  0.55549  0.75855  0.96509  1.0000
  S   S1125     1.0  0.57568  0.78502  0.91625  1.0000
  S   S1126     1.0  0.58155  0.77286  0.94240  1.0000
  C   C8392     1.0  0.58236  0.75098  0.98120  1.0000
  C   C8393     1.0  0.55007  0.88554  0.94915  1.0000
  S   S1127     1.0  0.52549  0.93363  0.86359  1.0000
  C   C8394     1.0  0.60331  0.88443  0.74796  1.0000
  H   H6716     1.0  0.50124  0.87160  0.88503  1.0000
  H   H6717     1.0  0.52714  0.76187  0.89163  1.0000
  Fe  Fe565     1.0  0.53584  0.94756  0.85552  1.0000
  Fe  Fe566     1.0  0.55872  0.91531  0.79080  1.0000
  H   H6718     1.0  0.57187  0.80633  0.89175  1.0000
  Fe  Fe567     1.0  0.52934  0.86314  0.92885  1.0000
  C   C8395     1.0  0.52185  0.78600  0.91800  1.0000
  S   S1128     1.0  0.53818  0.85181  0.91550  1.0000
  Fe  Fe568     1.0  0.52466  0.86627  0.95402  1.0000
  H   H6719     1.0  0.51784  0.90803  0.80396  1.0000
  S   S1129     1.0  0.52935  0.85560  0.97117  1.0000
  P   P281      1.0  0.54118  0.89128  0.76450  1.0000
  Fe  Fe569     1.0  0.52648  0.88708  0.93351  1.0000
  S   S1130     1.0  0.53401  0.90305  0.92479  1.0000
  H   H6720     1.0  0.60860  0.76868  0.88844  1.0000
  S   S1131     1.0  0.53894  0.86972  0.93793  1.0000
  H   H6721     1.0  0.56440  0.93113  0.88023  1.0000
  C   C8396     1.0  0.51190  0.93135  0.90116  1.0000
  H   H6722     1.0  0.53576  0.96056  0.77223  1.0000
  H   H6723     1.0  0.59750  0.75186  0.86817  1.0000
  C   C8397     1.0  0.55475  0.80559  0.89066  1.0000
  S   S1132     1.0  0.58721  0.92187  0.81010  1.0000
  C   C8398     1.0  0.55509  0.91963  0.87793  1.0000
  H   H6724     1.0  0.57240  0.77730  0.88687  1.0000
  C   C8399     1.0  0.58124  0.77243  0.88410  1.0000
  C   C8400     1.0  0.60175  0.76769  0.88495  1.0000
  C   C8401     1.0  0.56575  0.93148  0.82323  1.0000
  C   C8402     1.0  0.60433  0.75981  0.87767  1.0000
  H   H6725     1.0  0.58831  0.77993  0.89394  1.0000
  P   P282      1.0  0.57236  0.76246  0.87122  1.0000
  H   H6726     1.0  0.52203  0.90692  0.85415  1.0000
  C   C8403     1.0  0.52842  0.77710  0.97575  1.0000
  H   H6727     1.0  0.61322  0.75472  0.87544  1.0000
  C   C8404     1.0  0.50871  0.97153  0.79007  1.0000
  H   H6728     1.0  0.55726  0.79633  0.89061  1.0000
  H   H6729     1.0  0.57254  0.96681  0.78501  1.0000
  C   C8405     1.0  0.58376  0.76454  0.87675  1.0000
  C   C8406     1.0  0.56363  0.75590  0.97569  1.0000
  C   C8407     1.0  0.55709  0.78251  0.86142  1.0000
  C   C8408     1.0  0.58547  0.89955  0.74736  1.0000
  H   H6730     1.0  0.53636  0.86593  0.86410  1.0000
  H   H6731     1.0  0.52487  0.91190  0.88367  1.0000
  C   C8409     1.0  0.53091  0.91163  0.75038  1.0000
  H   H6732     1.0  0.55409  0.77011  0.89060  1.0000
  P   P283      1.0  0.52979  0.97803  0.78665  1.0000
  C   C8410     1.0  0.56391  0.93833  0.84078  1.0000
  C   C8411     1.0  0.57615  0.93546  0.83909  1.0000
  C   C8412     1.0  0.58317  0.93050  0.82960  1.0000
  C   C8413     1.0  0.57801  0.92850  0.82163  1.0000
  C   C8414     1.0  0.51871  0.89589  0.77838  1.0000
  C   C8415     1.0  0.55871  0.93644  0.83278  1.0000
  H   H6733     1.0  0.58022  0.93699  0.84519  1.0000
  H   H6734     1.0  0.59263  0.92820  0.82844  1.0000
  C   C8416     1.0  0.57860  0.76056  0.85634  1.0000
  C   C8417     1.0  0.59537  0.75820  0.87361  1.0000
  S   S1133     1.0  0.56126  0.93191  0.79327  1.0000
  H   H6735     1.0  0.61504  0.74559  0.89822  1.0000
  C   C8418     1.0  0.54954  0.88327  0.75324  1.0000
  C   C8419     1.0  0.50072  0.91933  0.75953  1.0000
  Fe  Fe570     1.0  0.57890  0.92104  0.79609  1.0000
  H   H6736     1.0  0.60654  0.76064  0.93865  1.0000
  C   C8420     1.0  0.54097  0.75487  0.91137  1.0000
  H   H6737     1.0  0.53766  0.76332  0.90617  1.0000
  H   H6738     1.0  0.54530  0.78119  0.97185  1.0000
  H   H6739     1.0  0.50917  0.90921  0.92550  1.0000
  C   C8421     1.0  0.52407  0.93011  0.89871  1.0000
  C   C8422     1.0  0.53080  0.92152  0.90611  1.0000
  C   C8423     1.0  0.52545  0.91384  0.91568  1.0000
  C   C8424     1.0  0.50369  0.90679  0.86081  1.0000
  H   H6740     1.0  0.52545  0.89312  0.84131  1.0000
  H   H6741     1.0  0.52823  0.93598  0.89129  1.0000
  H   H6742     1.0  0.54016  0.92076  0.90444  1.0000
  H   H6743     1.0  0.50054  0.88238  0.90173  1.0000
  H   H6744     1.0  0.54526  0.83804  0.89361  1.0000
  H   H6745     1.0  0.49859  0.74993  0.90720  1.0000
  C   C8425     1.0  0.57590  0.75364  0.97256  1.0000
  C   C8426     1.0  0.58555  0.76814  0.84852  1.0000
  C   C8427     1.0  0.49962  0.80532  0.96502  1.0000
  C   C8428     1.0  0.51196  0.83726  0.92615  1.0000
  C   C8429     1.0  0.49839  0.96049  0.82272  1.0000
  H   H6746     1.0  0.58042  0.75365  0.96353  1.0000
  H   H6747     1.0  0.53131  0.79940  0.87340  1.0000
  S   S1134     1.0  0.55540  0.94407  0.85308  1.0000
  H   H6748     1.0  0.58961  0.94836  0.76556  1.0000
  C   C8430     1.0  0.56568  0.81976  0.92821  1.0000
  C   C8431     1.0  0.55714  0.81851  0.92328  1.0000
  C   C8432     1.0  0.54887  0.82843  0.91919  1.0000
  C   C8433     1.0  0.54906  0.83961  0.92005  1.0000
  C   C8434     1.0  0.55767  0.84088  0.92486  1.0000
  C   C8435     1.0  0.56609  0.83098  0.92874  1.0000
  H   H6749     1.0  0.55674  0.80990  0.92283  1.0000
  H   H6750     1.0  0.54197  0.82732  0.91593  1.0000
  H   H6751     1.0  0.55787  0.84948  0.92555  1.0000
  H   H6752     1.0  0.57283  0.83200  0.93230  1.0000
  C   C8436     1.0  0.52021  0.96787  0.79191  1.0000
  C   C8437     1.0  0.59024  0.77399  0.88814  1.0000
  C   C8438     1.0  0.53206  0.78199  0.92234  1.0000
  C   C8439     1.0  0.53126  0.77830  0.93447  1.0000
  C   C8440     1.0  0.56727  0.74955  0.88015  1.0000
  H   H6753     1.0  0.53909  0.77452  0.93788  1.0000
  C   C8441     1.0  0.51935  0.91571  0.79719  1.0000
  H   H6754     1.0  0.54788  0.90756  0.87379  1.0000
  C   C8442     1.0  0.61127  0.92283  0.75186  1.0000
  S   S1135     1.0  0.56597  0.95208  0.76196  1.0000
  H   H6755     1.0  0.52773  0.89156  0.97229  1.0000
  S   S1136     1.0  0.57578  0.90415  0.79498  1.0000
  C   C8443     1.0  0.50968  0.86582  0.88270  1.0000
  H   H6756     1.0  0.54259  0.96166  0.75109  1.0000
  H   H6757     1.0  0.54997  0.86625  0.76506  1.0000
  C   C8444     1.0  0.49874  0.92801  0.82726  1.0000
  H   H6758     1.0  0.56330  0.96833  0.84429  1.0000
  H   H6759     1.0  0.54478  0.79745  0.85406  1.0000
  C   C8445     1.0  0.56298  0.81122  0.89135  1.0000
  H   H6760     1.0  0.50852  0.75707  0.95568  1.0000
  C   C8446     1.0  0.51088  0.78708  0.92579  1.0000
  C   C8447     1.0  0.55306  0.87097  0.75626  1.0000
  C   C8448     1.0  0.57626  0.79275  0.96539  1.0000
  C   C8449     1.0  0.53614  0.78346  0.97623  1.0000
  H   H6761     1.0  0.58919  0.77903  0.97329  1.0000
  H   H6762     1.0  0.52232  0.78860  0.90868  1.0000
  C   C8450     1.0  0.56447  0.79876  0.96685  1.0000
  C   C8451     1.0  0.56013  0.78611  0.98606  1.0000
  C   C8452     1.0  0.58624  0.95761  0.76261  1.0000
  C   C8453     1.0  0.61018  0.75253  0.94421  1.0000
  C   C8454     1.0  0.53435  0.97902  0.77099  1.0000
  H   H6763     1.0  0.55246  0.88838  0.93968  1.0000
  Fe  Fe571     1.0  0.51560  0.94263  0.84933  1.0000
  H   H6764     1.0  0.50908  0.88533  0.84053  1.0000
  H   H6765     1.0  0.59580  0.77267  0.83098  1.0000
  H   H6766     1.0  0.60502  0.87447  0.97500  1.0000
  H   H6767     1.0  0.62051  0.76046  0.95011  1.0000
  C   C8455     1.0  0.55442  0.88925  0.74206  1.0000
  H   H6768     1.0  0.61056  0.87957  0.75210  1.0000
  C   C8456     1.0  0.50445  0.81444  0.96494  1.0000
  C   C8457     1.0  0.58362  0.85902  0.98344  1.0000
  C   C8458     1.0  0.53874  0.81361  0.96588  1.0000
  C   C8459     1.0  0.53687  0.80989  0.95673  1.0000
  C   C8460     1.0  0.53416  0.81803  0.94671  1.0000
  C   C8461     1.0  0.53339  0.82989  0.94571  1.0000
  C   C8462     1.0  0.53611  0.83352  0.95433  1.0000
  C   C8463     1.0  0.53879  0.82544  0.96439  1.0000
  H   H6769     1.0  0.58243  0.79513  0.95723  1.0000
  C   C8464     1.0  0.53188  0.79318  0.98154  1.0000
  Fe  Fe572     1.0  0.51435  0.96712  0.85227  1.0000
  H   H6770     1.0  0.56181  0.80581  0.95975  1.0000
  C   C8465     1.0  0.50651  0.92390  0.91093  1.0000
  C   C8466     1.0  0.54264  0.91431  0.76208  1.0000
  H   H6771     1.0  0.57076  0.87894  0.79693  1.0000
  H   H6772     1.0  0.57885  0.90639  0.75107  1.0000
  C   C8467     1.0  0.52438  0.95605  0.79703  1.0000
  H   H6773     1.0  0.53430  0.89063  0.88710  1.0000
  H   H6774     1.0  0.56644  0.88828  0.76153  1.0000
  C   C8468     1.0  0.57074  0.97372  0.75650  1.0000
  H   H6775     1.0  0.53337  0.95275  0.79803  1.0000
  C   C8469     1.0  0.55216  0.77599  0.88256  1.0000
  H   H6776     1.0  0.53734  0.80076  0.95731  1.0000
  H   H6777     1.0  0.53257  0.81515  0.93974  1.0000
  H   H6778     1.0  0.53090  0.83623  0.93813  1.0000
  H   H6779     1.0  0.53617  0.84263  0.95322  1.0000
  C   C8470     1.0  0.50389  0.88497  0.78163  1.0000
  C   C8471     1.0  0.50350  0.81798  0.87494  1.0000
  C   C8472     1.0  0.50731  0.89425  0.78341  1.0000
  H   H6780     1.0  0.50305  0.78999  0.92246  1.0000
  C   C8473     1.0  0.58132  0.98065  0.80179  1.0000
  S   S1137     1.0  0.50325  0.94215  0.89214  1.0000
  H   H6781     1.0  0.50301  0.79208  0.99028  1.0000
  P   P284      1.0  0.56419  0.86037  0.97489  1.0000
  C   C8474     1.0  0.56863  0.84809  0.96777  1.0000
  H   H6782     1.0  0.49886  0.87284  0.92083  1.0000
  C   C8475     1.0  0.58082  0.87444  0.96624  1.0000
  H   H6783     1.0  0.59364  0.88513  0.95970  1.0000
  H   H6784     1.0  0.61607  0.92694  0.76571  1.0000
  C   C8476     1.0  0.51990  0.79607  0.98682  1.0000
  C   C8477     1.0  0.51600  0.81861  0.91531  1.0000
  C   C8478     1.0  0.57902  0.83955  0.96908  1.0000
  C   C8479     1.0  0.58213  0.82979  0.96397  1.0000
  C   C8480     1.0  0.57491  0.82849  0.95753  1.0000
  C   C8481     1.0  0.56457  0.83692  0.95623  1.0000
  C   C8482     1.0  0.56140  0.84665  0.96134  1.0000
  C   C8483     1.0  0.55431  0.87236  0.96734  1.0000
  C   C8484     1.0  0.49941  0.93170  0.83692  1.0000
  C   C8485     1.0  0.54412  0.91007  0.82943  1.0000
  C   C8486     1.0  0.51648  0.78021  0.98082  1.0000
  C   C8487     1.0  0.55135  0.96285  0.80998  1.0000
  C   C8488     1.0  0.55740  0.87607  0.95507  1.0000
  H   H6785     1.0  0.58726  0.77503  0.85140  1.0000
  C   C8489     1.0  0.51492  0.90324  0.85410  1.0000
  H   H6786     1.0  0.50430  0.85053  0.89446  1.0000
  H   H6787     1.0  0.57603  0.87932  0.95951  1.0000
  C   C8490     1.0  0.51150  0.85394  0.88821  1.0000
  H   H6788     1.0  0.50921  0.87023  0.77334  1.0000
  C   C8491     1.0  0.51566  0.87151  0.98487  1.0000
  C   C8492     1.0  0.51248  0.75432  0.93813  1.0000
  C   C8493     1.0  0.50020  0.90095  0.89563  1.0000
  H   H6789     1.0  0.49844  0.81515  0.87063  1.0000
  H   H6790     1.0  0.58466  0.84031  0.97414  1.0000
  H   H6791     1.0  0.59012  0.82321  0.96502  1.0000
  H   H6792     1.0  0.57729  0.82096  0.95352  1.0000
  H   H6793     1.0  0.55897  0.83592  0.95125  1.0000
  H   H6794     1.0  0.55327  0.85297  0.96030  1.0000
  H   H6795     1.0  0.51895  0.78055  0.87913  1.0000
  H   H6796     1.0  0.53913  0.91381  0.82264  1.0000
  S   S1138     1.0  0.54208  0.90898  0.79984  1.0000
  C   C8494     1.0  0.55979  0.77469  0.87172  1.0000
  H   H6797     1.0  0.56548  0.87162  0.95006  1.0000
  C   C8495     1.0  0.50596  0.96610  0.75247  1.0000
  C   C8496     1.0  0.58005  0.78368  0.97439  1.0000
  C   C8497     1.0  0.54692  0.97414  0.83877  1.0000
  C   C8498     1.0  0.53625  0.98959  0.76326  1.0000
  C   C8499     1.0  0.53830  0.90683  0.75835  1.0000
  H   H6798     1.0  0.56579  0.82721  0.89325  1.0000
  H   H6799     1.0  0.52478  0.94331  0.77303  1.0000
  C   C8500     1.0  0.59485  0.89334  0.75279  1.0000
  C   C8501     1.0  0.53048  0.91832  0.79369  1.0000
  C   C8502     1.0  0.53956  0.92644  0.75796  1.0000
  C   C8503     1.0  0.55299  0.88210  0.79497  1.0000
  H   H6800     1.0  0.50534  0.98043  0.78580  1.0000
  H   H6801     1.0  0.52467  0.98514  0.85819  1.0000
  C   C8504     1.0  0.56255  0.88651  0.77085  1.0000
  C   C8505     1.0  0.56496  0.92414  0.87607  1.0000
  H   H6802     1.0  0.54812  0.91083  0.76839  1.0000
  S   S1139     1.0  0.52700  0.95561  0.84047  1.0000
  Fe  Fe573     1.0  0.57014  0.93461  0.77417  1.0000
  H   H6803     1.0  0.53617  0.78579  0.89155  1.0000
  S   S1140     1.0  0.59649  0.89614  0.76569  1.0000
  C   C8506     1.0  0.51108  0.87413  0.74761  1.0000
  C   C8507     1.0  0.56509  0.88111  0.79083  1.0000
  C   C8508     1.0  0.52948  0.86257  0.87094  1.0000
  H   H6804     1.0  0.50611  0.91935  0.76524  1.0000
  C   C8509     1.0  0.56384  0.96715  0.79069  1.0000
  C   C8510     1.0  0.57650  0.75171  0.85238  1.0000
  C   C8511     1.0  0.53376  0.74685  0.91692  1.0000
  C   C8512     1.0  0.51023  0.92299  0.79181  1.0000
  H   H6805     1.0  0.53628  0.88631  0.79051  1.0000
  H   H6806     1.0  0.50267  0.82907  0.97221  1.0000
  H   H6807     1.0  0.57923  0.88259  0.77556  1.0000
  H   H6808     1.0  0.55038  0.95922  0.81931  1.0000
  H   H6809     1.0  0.52880  0.94063  0.74801  1.0000
  C   C8513     1.0  0.58136  0.75044  0.84080  1.0000
  H   H6810     1.0  0.54924  0.88088  0.80430  1.0000
  C   C8514     1.0  0.59336  0.96556  0.76066  1.0000
  H   H6811     1.0  0.55798  0.75847  0.90893  1.0000
  H   H6812     1.0  0.50049  0.79371  0.88740  1.0000
  C   C8515     1.0  0.56986  0.88327  0.77878  1.0000
  H   H6813     1.0  0.56273  0.78167  0.85292  1.0000
  H   H6814     1.0  0.55066  0.75490  0.87477  1.0000
  C   C8516     1.0  0.52330  0.93553  0.77967  1.0000
  C   C8517     1.0  0.59039  0.76684  0.83695  1.0000
  H   H6815     1.0  0.57026  0.95805  0.80639  1.0000
  C   C8518     1.0  0.52024  0.77966  0.94226  1.0000
  C   C8519     1.0  0.55728  0.86379  0.87319  1.0000
  C   C8520     1.0  0.55577  0.86328  0.88512  1.0000
  C   C8521     1.0  0.55767  0.87240  0.88869  1.0000
  C   C8522     1.0  0.56104  0.88206  0.88034  1.0000
  C   C8523     1.0  0.56211  0.88291  0.86831  1.0000
  C   C8524     1.0  0.56035  0.87359  0.86482  1.0000
  P   P285      1.0  0.56668  0.89529  0.85738  1.0000
  C   C8525     1.0  0.56604  0.90670  0.86455  1.0000
  C   C8526     1.0  0.58152  0.89066  0.84942  1.0000
  C   C8527     1.0  0.58930  0.88089  0.85449  1.0000
  C   C8528     1.0  0.60085  0.87754  0.84826  1.0000
  C   C8529     1.0  0.60470  0.88396  0.83699  1.0000
  C   C8530     1.0  0.59701  0.89376  0.83197  1.0000
  C   C8531     1.0  0.58548  0.89712  0.83816  1.0000
  C   C8532     1.0  0.57591  0.91135  0.86266  1.0000
  C   C8533     1.0  0.57536  0.91998  0.86846  1.0000
  C   C8534     1.0  0.53929  0.79260  0.87287  1.0000
  Fe  Fe574     1.0  0.58316  0.90923  0.77558  1.0000
  C   C8535     1.0  0.55563  0.91091  0.87227  1.0000
  C   C8536     1.0  0.55738  0.90085  0.84682  1.0000
  C   C8537     1.0  0.55957  0.82301  0.89212  1.0000
  H   H6816     1.0  0.52107  0.98142  0.88421  1.0000
  S   S1141     1.0  0.56583  0.91905  0.77129  1.0000
  C   C8538     1.0  0.54793  0.82915  0.89222  1.0000
  C   C8539     1.0  0.55886  0.89473  0.83805  1.0000
  H   H6817     1.0  0.55615  0.85654  0.87044  1.0000
  H   H6818     1.0  0.55328  0.85577  0.89166  1.0000
  H   H6819     1.0  0.55661  0.87190  0.89797  1.0000
  H   H6820     1.0  0.56287  0.88875  0.88339  1.0000
  H   H6821     1.0  0.56154  0.87376  0.85564  1.0000
  H   H6822     1.0  0.58651  0.87592  0.86326  1.0000
  H   H6823     1.0  0.60686  0.87001  0.85219  1.0000
  H   H6824     1.0  0.61365  0.88142  0.83216  1.0000
  H   H6825     1.0  0.59995  0.89886  0.82327  1.0000
  H   H6826     1.0  0.57970  0.90484  0.83415  1.0000
  H   H6827     1.0  0.58399  0.90851  0.85659  1.0000
  H   H6828     1.0  0.57424  0.99090  0.75193  1.0000
  S   S1142     1.0  0.52411  0.96008  0.86675  1.0000
  H   H6829     1.0  0.60359  0.97770  0.77770  1.0000
  H   H6830     1.0  0.60211  0.96244  0.76230  1.0000
  H   H6831     1.0  0.54315  0.93220  0.76064  1.0000
  C   C8540     1.0  0.50728  0.90916  0.89040  1.0000
  H   H6832     1.0  0.58289  0.92374  0.86676  1.0000
  C   C8541     1.0  0.53965  0.82359  0.89139  1.0000
  H   H6833     1.0  0.56549  0.88668  0.83754  1.0000
  C   C8542     1.0  0.54686  0.79146  0.86202  1.0000
  C   C8543     1.0  0.54310  0.81171  0.89079  1.0000
  C   C8544     1.0  0.54197  0.78489  0.88312  1.0000
  C   C8545     1.0  0.56256  0.96231  0.80271  1.0000
  C   C8546     1.0  0.53944  0.89119  0.95536  1.0000
  H   H6834     1.0  0.54695  0.92312  0.88351  1.0000
  H   H6835     1.0  0.53669  0.80703  0.89100  1.0000
  H   H6836     1.0  0.52118  0.90325  0.77968  1.0000
  C   C8547     1.0  0.53152  0.93120  0.75073  1.0000
  C   C8548     1.0  0.57495  0.96169  0.76038  1.0000
  H   H6837     1.0  0.51929  0.84672  0.90928  1.0000
  H   H6838     1.0  0.54928  0.93869  0.83399  1.0000
  C   C8549     1.0  0.52740  0.92379  0.74670  1.0000
  H   H6839     1.0  0.58097  0.85171  0.99016  1.0000
  H   H6840     1.0  0.59308  0.96567  0.79536  1.0000
  H   H6841     1.0  0.56167  0.92979  0.81725  1.0000
  C   C8550     1.0  0.55853  0.97438  0.83790  1.0000
  S   S1143     1.0  0.58807  0.92507  0.77711  1.0000
  C   C8551     1.0  0.52681  0.88831  0.77148  1.0000
  H   H6842     1.0  0.54087  0.93056  0.78258  1.0000
  S   S1144     1.0  0.51605  0.85815  0.94525  1.0000
  H   H6843     1.0  0.49991  0.94577  0.80151  1.0000
  H   H6844     1.0  0.56200  0.97695  0.75493  1.0000
  C   C8552     1.0  0.52332  0.87904  0.76968  1.0000
  H   H6845     1.0  0.51372  0.98023  0.82151  1.0000
  C   C8553     1.0  0.59967  0.74470  0.91222  1.0000
  C   C8554     1.0  0.51863  0.82933  0.90855  1.0000
  C   C8555     1.0  0.54563  0.88531  0.78707  1.0000
  H   H6846     1.0  0.51965  0.77731  0.95163  1.0000
  C   C8556     1.0  0.55245  0.75221  0.91300  1.0000
  C   C8557     1.0  0.58831  0.75798  0.83310  1.0000
  C   C8558     1.0  0.55037  0.88751  0.77494  1.0000
  C   C8559     1.0  0.53238  0.92834  0.78510  1.0000
  C   C8560     1.0  0.50631  0.97675  0.82203  1.0000
  C   C8561     1.0  0.55622  0.74819  0.88003  1.0000
  H   H6847     1.0  0.52010  0.93917  0.80496  1.0000
  S   S1145     1.0  0.59819  0.98746  0.75346  1.0000
  H   H6848     1.0  0.52925  0.87325  0.76418  1.0000
  C   C8562     1.0  0.54141  0.96783  0.80517  1.0000
  H   H6849     1.0  0.55361  0.89482  0.82245  1.0000
  H   H6850     1.0  0.51669  0.95937  0.82054  1.0000
  H   H6851     1.0  0.49709  0.92495  0.91294  1.0000
  H   H6852     1.0  0.59210  0.75695  0.82414  1.0000
  H   H6853     1.0  0.52100  0.82233  0.98554  1.0000
  H   H6854     1.0  0.51079  0.96504  0.89044  1.0000
  C   C8563     1.0  0.51694  0.94822  0.80079  1.0000
  H   H6855     1.0  0.57661  0.97521  0.80915  1.0000
  C   C8564     1.0  0.52348  0.86062  0.98433  1.0000
  H   H6856     1.0  0.54272  0.96806  0.84589  1.0000
  P   P286      1.0  0.52441  0.83111  0.89291  1.0000
  S   S1146     1.0  0.51297  0.88424  0.95045  1.0000
  H   H6857     1.0  0.52202  0.87595  0.89619  1.0000
  C   C8565     1.0  0.55391  0.97222  0.78590  1.0000
  H   H6858     1.0  0.50414  0.79949  0.95906  1.0000
  C   C8566     1.0  0.51230  0.93277  0.78291  1.0000
  C   C8567     1.0  0.55632  0.79552  0.97725  1.0000
  H   H6859     1.0  0.52978  0.82513  0.87010  1.0000
  S   S1147     1.0  0.51787  0.88070  0.92327  1.0000
  H   H6860     1.0  0.51304  0.87716  0.97702  1.0000
  H   H6861     1.0  0.51763  0.81125  0.91128  1.0000
  C   C8568     1.0  0.51693  0.83851  0.91414  1.0000
  C   C8569     1.0  0.61813  0.75239  0.95060  1.0000
  C   C8570     1.0  0.51087  0.81745  0.92730  1.0000
  C   C8571     1.0  0.57201  0.78050  0.98478  1.0000
  C   C8572     1.0  0.55223  0.89933  0.82942  1.0000
  C   C8573     1.0  0.52481  0.89349  0.88923  1.0000
  H   H6862     1.0  0.53691  0.92485  0.83762  1.0000
  C   C8574     1.0  0.52117  0.82353  0.87473  1.0000
  C   C8575     1.0  0.52158  0.99206  0.79016  1.0000
  H   H6863     1.0  0.51868  0.75995  0.93481  1.0000
  C   C8576     1.0  0.54933  0.91174  0.84659  1.0000
  H   H6864     1.0  0.49978  0.95152  0.82216  1.0000
  H   H6865     1.0  0.51825  0.81873  0.86018  1.0000
  C   C8577     1.0  0.56393  0.98237  0.82883  1.0000
  Fe  Fe575     1.0  0.51283  0.94692  0.87338  1.0000
  H   H6866     1.0  0.52875  0.98983  0.80526  1.0000
  S   S1148     1.0  0.50738  0.98634  0.84513  1.0000
  H   H6867     1.0  0.54839  0.91712  0.85264  1.0000
  H   H6868     1.0  0.50352  0.91847  0.88899  1.0000
  P   P287      1.0  0.54107  0.80325  0.97932  1.0000
  C   C8578     1.0  0.59726  0.87182  0.97494  1.0000
  C   C8579     1.0  0.53138  0.85068  0.87658  1.0000
  C   C8580     1.0  0.59660  0.98191  0.78401  1.0000
  C   C8581     1.0  0.50442  0.95818  0.74697  1.0000
  C   C8582     1.0  0.51331  0.91500  0.91802  1.0000
  C   C8583     1.0  0.51932  0.76773  0.89540  1.0000
  H   H6869     1.0  0.51627  0.80350  0.99092  1.0000
  C   C8584     1.0  0.50146  0.96357  0.79345  1.0000
  H   H6870     1.0  0.59182  0.74931  0.97874  1.0000
  C   C8585     1.0  0.52251  0.84640  0.88561  1.0000
  C   C8586     1.0  0.54261  0.97233  0.79304  1.0000
  C   C8587     1.0  0.54276  0.91627  0.83796  1.0000
  H   H6871     1.0  0.53281  0.96796  0.81089  1.0000
  C   C8588     1.0  0.53663  0.96897  0.76645  1.0000
  C   C8589     1.0  0.54054  0.96957  0.75438  1.0000
  C   C8590     1.0  0.50927  0.88637  0.74367  1.0000
  C   C8591     1.0  0.50683  0.75259  0.94998  1.0000
  H   H6872     1.0  0.54079  0.82851  0.97099  1.0000
  C   C8592     1.0  0.50429  0.78567  0.89289  1.0000
  C   C8593     1.0  0.59064  0.97516  0.79393  1.0000
  C   C8594     1.0  0.58914  0.97758  0.75657  1.0000
  H   H6873     1.0  0.51259  0.81569  0.95888  1.0000
  C   C8595     1.0  0.51035  0.74861  0.93065  1.0000
  C   C8596     1.0  0.51485  0.97222  0.74718  1.0000
  H   H6874     1.0  0.52775  0.90597  0.74712  1.0000
  C   C8597     1.0  0.59086  0.87782  0.96632  1.0000
  H   H6875     1.0  0.53166  0.76997  0.97117  1.0000
  S   S1149     1.0  0.50200  0.95487  0.85972  1.0000
  H   H6876     1.0  0.51729  0.87943  0.86999  1.0000
  S   S1150     1.0  0.50127  0.94182  0.77576  1.0000
  H   H6877     1.0  0.49774  0.86004  0.90898  1.0000
  C   C8598     1.0  0.51466  0.81996  0.86909  1.0000
  H   H6878     1.0  0.50104  0.82554  0.90048  1.0000
  H   H6879     1.0  0.50169  0.92097  0.79438  1.0000
  C   C8599     1.0  0.51005  0.78440  0.93786  1.0000
  H   H6880     1.0  0.61740  0.94723  0.75487  1.0000
  H   H6881     1.0  0.50843  0.80932  0.93241  1.0000
  H   H6882     1.0  0.56403  0.85531  0.75056  1.0000
  Fe  Fe576     1.0  0.50537  0.87628  0.94050  1.0000
  C   C8600     1.0  0.49856  0.78253  0.90459  1.0000
  H   H6883     1.0  0.50325  0.86981  0.85853  1.0000
  C   C8601     1.0  0.61439  0.93011  0.75695  1.0000
  C   C8602     1.0  0.52243  0.86702  0.74550  1.0000
  P   P288      1.0  0.51865  0.75017  0.91571  1.0000
  H   H6884     1.0  0.54833  0.75758  0.98985  1.0000
  S   S1151     1.0  0.51331  0.93133  0.83868  1.0000
  H   H6885     1.0  0.53970  0.84488  0.87383  1.0000
  C   C8603     1.0  0.51228  0.78963  0.98642  1.0000
  C   C8604     1.0  0.49874  0.82202  0.97258  1.0000
  C   C8605     1.0  0.51951  0.90545  0.88727  1.0000
  H   H6886     1.0  0.61054  0.91401  0.75666  1.0000
  C   C8606     1.0  0.49615  0.89472  0.85307  1.0000
  C   C8607     1.0  0.53612  0.88738  0.96750  1.0000
  C   C8608     1.0  0.51870  0.87018  0.87416  1.0000
  C   C8609     1.0  0.51365  0.76458  0.90721  1.0000
  C   C8610     1.0  0.56113  0.86476  0.74813  1.0000
  C   C8611     1.0  0.51191  0.87735  0.77481  1.0000
  C   C8612     1.0  0.51788  0.88523  0.89431  1.0000
  H   H6887     1.0  0.59859  0.85778  0.99020  1.0000
  C   C8613     1.0  0.54226  0.98018  0.74673  1.0000
  H   H6888     1.0  0.55509  0.97587  0.77660  1.0000
  C   C8614     1.0  0.61509  0.94155  0.75087  1.0000
  C   C8615     1.0  0.50863  0.82686  0.93265  1.0000
  C   C8616     1.0  0.57772  0.98165  0.75475  1.0000
  H   H6889     1.0  0.51623  0.97810  0.75163  1.0000
  H   H6890     1.0  0.49743  0.95358  0.75105  1.0000
  H   H6891     1.0  0.52378  0.85758  0.74842  1.0000
  C   C8617     1.0  0.51682  0.89547  0.84684  1.0000
  H   H6892     1.0  0.53367  0.89838  0.95070  1.0000
  H   H6893     1.0  0.57978  0.74354  0.83782  1.0000
  C   C8618     1.0  0.55782  0.75563  0.98743  1.0000
  S   S1152     1.0  0.49635  0.78746  0.94738  1.0000
  H   H6894     1.0  0.50036  0.96728  0.76094  1.0000
  C   C8619     1.0  0.50554  0.95194  0.79886  1.0000
  H   H6895     1.0  0.51038  0.84451  0.93034  1.0000
  C   C8620     1.0  0.51650  0.82526  0.88623  1.0000
  H   H6896     1.0  0.51045  0.77535  0.98044  1.0000
  C   C8621     1.0  0.51467  0.77827  0.88828  1.0000
  H   H6897     1.0  0.54046  0.87505  0.98282  1.0000
  C   C8622     1.0  0.54070  0.98184  0.83056  1.0000
  H   H6898     1.0  0.53165  0.98172  0.83135  1.0000
  C   C8623     1.0  0.59365  0.86242  0.98349  1.0000
  C   C8624     1.0  0.50513  0.82363  0.89188  1.0000
  C   C8625     1.0  0.57708  0.86502  0.97483  1.0000
  C   C8626     1.0  0.50799  0.96504  0.82164  1.0000
  H   H6899     1.0  0.50422  0.82618  0.94179  1.0000
  H   H6900     1.0  0.50818  0.90136  0.75835  1.0000
  H   H6901     1.0  0.57290  0.98257  0.82833  1.0000
  H   H6902     1.0  0.57122  0.74571  0.85819  1.0000
  C   C8627     1.0  0.54348  0.87799  0.97348  1.0000
  H   H6903     1.0  0.50673  0.92450  0.82142  1.0000
  C   C8628     1.0  0.49875  0.81979  0.88634  1.0000
  C   C8629     1.0  0.51175  0.98325  0.88453  1.0000
  C   C8630     1.0  0.50599  0.97401  0.88794  1.0000
  C   C8631     1.0  0.55782  0.98999  0.82042  1.0000
  C   C8632     1.0  0.50565  0.88894  0.89751  1.0000
  C   C8633     1.0  0.50750  0.89116  0.84638  1.0000
  H   H6904     1.0  0.53209  0.75234  0.98722  1.0000
  C   C8634     1.0  0.50572  0.74267  0.90486  1.0000
  H   H6905     1.0  0.50109  0.90037  0.78845  1.0000
  H   H6906     1.0  0.50216  0.91322  0.86602  1.0000
  C   C8635     1.0  0.49911  0.74505  0.95445  1.0000
  H   H6907     1.0  0.50032  0.84166  0.98589  1.0000
  C   C8636     1.0  0.54607  0.98983  0.82148  1.0000
  H   H6908     1.0  0.50341  0.84974  0.87034  1.0000
  H   H6909     1.0  0.50379  0.87002  0.75214  1.0000
  C   C8637     1.0  0.50315  0.77200  0.91172  1.0000
  C   C8638     1.0  0.54018  0.99015  0.75120  1.0000
  H   H6910     1.0  0.49834  0.76965  0.92068  1.0000
  C   C8639     1.0  0.50189  0.90922  0.75558  1.0000
  H   H6911     1.0  0.50313  0.86145  0.97569  1.0000
  H   H6912     1.0  0.55852  0.83792  0.98948  1.0000
  C   C8640     1.0  0.55748  0.85582  0.99020  1.0000
