data_image0
_chemical_formula_structural       FeS2FeS2FeSFeS2FeS2FeS2FeSFeS3FeS2PFeSHSC3HSHC2H3CPH2C6H4CPCH2C6H4C6H4C5HC7HCHCH2C2HC2HFeH4CH2C3HPHC5H2CHC4HC2HC2HC8HC2H3C2H3C12H2CH4CH3C4HCH2C2H2CHCHC2H3CHC2H2CHCH2C2HCHC4HCH2C7H5CH2CH2C3H3CH11CHCH2CHC2PHC4HCH2C3H3CHCHC2HC3H7C8HCHSH2C3H2C2HCHCHCH2C8HC8H2CS2FeS2FeCFeCSHFeS2C4S2CHSFeSCFeSHCSHCHSHCHCSC5HCFeCSCHC6H3CH2S2HC6H4C2H8FeC3HSHCHCHC2H3CHC2H2C4H2C4HSCFeH4C2H2CH3CHC2H3CHC4SH4C4H4CSC2PH2CSC2HC2HFeCHC3H2CHCHCH2C4FeHCHFeHCFeHC3HC3HC4HSHCHFeC2PSCSCH3C2FeC2H4CHCH3C4H2CH2CH3PCFeS2H2FeSHCSHFeS2FeSCFeHFeS3HCHCH2FeS2FeS2FeHFeCS2C2S2FeS2FeS2FeSFeS3FeS2FeS2FeSFeS3CH2C7H4CH2C4H2C6H4C6H4CHCH2C6H6CHC7H4C6H4CH4C6PC2HC15H5CHC2H6CHCH3CH2CPCHCH2CH2CH2C2H2CH2CSCH2C3H3C2HC3HCH2CHC4PCH2C6HC2H3CSH3CHCHCHC8HC2HCHCPH2C3HCHC2H2CHC2HCH6CHCH6CH2C2PC4H3C6HC4HCHC2H4CH6SC2HCHCH2C5H3CHCSCHC3H2FeCHCSH2C6PC18H21C5HPC6HCH2CH2CPC2HCH2CH2C3HCH2C2H2C3HC3HCHCPC2H6CHSC2H3C2H2C2HPC9SHC2HCHC5H2C4H2C3H2C4HC2HC2HC3SHCHCHFeCHC4HC3H2CHCHC3H2CHC4HCHCH2C6HCH2CH2CH2CHCHCH2C4PCH3CHC2H2CH2C2H2C2HCH3C3FeC2H2C4H2C3HC2HC4HCHC2H2C6HC2PH2CPC2H2CH4C2HSC3HC3PH2CHCH4CHC3SCPCH2C2HCHSHFeS2FeS2FeSFeS3FeS2FeS2FeSFeS3HFeS2FeS2FeSFeHS2FeS2FeS2FeSFeS3FeS2FeS2FeSFeS4CH2C2HCHC5HCH2C6H4C6H4C6HCH2C6H5C5H4CH2PHC6H4C2HC6H4C2HCH3C6H4C6H4C3H2CH2CHC6H5C6PC9H11CHCHC6H6C5PC14H22C2H2C3HCHCHC13SHCH3CH7C3H3C3HC5H6C2HC3HPCHPC10HCPCH7CHC5H2CPC7H6C6PCHC6HC3SC4HPC3H3CHC2H5P2C8HCH6CHPC17H15PC4H2CHC3HCPCH2C6H2C4HCHCHC3H3C6H2CHC2HCH2C4HC2HCHCHCH8C2HCHCH2CHC2H3C2H2C2HC3HCH2C2HC2H2CHC3HC2HC3HC2H2CPHC2HCHPC2HCHC2H2C2H2CHCHCHC2PHC3H2CHC4HCH2C2HCHCH2C2HCHCH3C2H2CH3PCSC2HCHC2H3C2H4C3HC2HC3HC3H2CH3C3H3CHC2HCH2C2HC3H2CHSC4H2CH2CHC4HC2HCHC4H3SHCH3CHCH3C3HC4H2C2HC3HCHC4HC5HCH4CPCHC5H2CHC4HC2HC2H3C9H4SH2CH3CH2CHC2H2SHCHC6H4CH2C2H3CH2C2HCH2C6HC2HC2HC2H2S2C3FeHCHC3H3S2HFeS2FeS2HFeS2FeS2HFeSCSC4HSCH2CFeCSH3PCHC2SFeS2FeS2FeSFeS3FeS2FeS2FeSFeS3H2CHC3S2C2H2C2H2C6H4C6H4CHC5H3C6H4C6H5C3HC2HC2H2C8H4SC2HCHCHC4H3CH2CHFeC6H6CHC2H3FeC2H3CH2C2HCHSFeC6H4CH3FeCHCHPC2H3C2H2PCHCSCPH5CHC3HC3FeCHCHC5H3CHC3H2CH4CSCHSFeC2H3C3SH2CSH3C3H4PC9HCHCH7FeCHCH2C3SPC4HC7H6CH2C3H6SC6PC18H20C2SHC3FeH4CHC2HCHC8H2C2H2C2H5C3HC6PC18H16PH4SHCHCHC4HC8H2CHC3HCH6C4HSH2C6HC2HSC2H3C3HCHC2HSC2SH2C2FeC4HC2SHCSPHC4HC3HC5HC4HC2HC2HC4H3CHFeC3HCH2CH4FeSHC2SHC3H3CPSCHSC8FeC2H3C2H3C2PH2CH2CHCHCHC4HCHC3H2CFeC2H2CH2CH2C6H6SCHCHCH3CH2CHPC3H3C8HCH6CHCH2CHC2HCHCH4CFeS2FeSHFeSFeS3FeS2FeS2FeSFeS3PHSCHC2HSH2C7S2C4HCHSHSC2FeS2FePSFeS3C10SFeC5HC2HFeHC2HC4HC8H4C5H2C2H2CH2C2H2C2H3C8H4C6H4C4HC7H4C6H5CFeC2HC3HC5H3C2H2C2HFeHC2HCHCH4C6PC9HC3H12CH5C2SC3PC3H2CHC11H3CHC3FeH11C4H2CH3CHCHC2HSC2H2C2HC2HCHCHC3H7C6HPCFeHCPCH2CH4CH2SC6PC18H2CH2SH6CH7C6HC6H3CHCH5CH9PHFeC3H2CHC7H2CHCHCHC6PC6HC3H2CFeH2CH9CH5CHCHS2HCHCHCPHC3HC2HCH2C5HCHCPH2CH2CHC2HCH5CH2C2PH2CH4CH2CH3SC2H2C8H2C3HSHSH2C3H2CHCHSHCH4CFeCHSCSC2H2CFeC3HCHCH2CHSCHC2HCHC3HCH4C2HCHC3H3C2HC2H3FeC6HCHCH3CH3C3H3SCHC4HC4H2CHC3HFeS2FeS2FeSFeS3FeS2FeS2FeSFeS3HC7H2CHSH5CH2CHCPCH2CH2C2H2C7H4C6H4C7H3C6H3CHC3HCH2CH3CHC2H3CH2C3H2CHC4H3CPCHPHCH5CHCHCH2C6PC18H20PC3H2CHC7HC2HC2PCHCH2C2HCH4C2HC2HCHCHC6HC11SFeSH3CH3C2H2CH5C2HC8HC3HC4HCHC2H2C2SHPH2CH2CHC3HC2PH2C6HC4HSH3CH2CHC6PC18HC3H7C2H2C2H4C3H4C2HCHC2HCHCHC3H3CHC2HCHC3PCH2C2HCHCHC2FeC3HC2HSH2CSCH4C7HC6HC2H6CHCHCHCH6C2H6C3H2C3H4CSHCHCHCH2CHC2PC4HCHC3FeS2CHC3FeSCSFeS2FeS2FeSFeCS2PC2HCH2CHC5HCH3CSH2CPCHC3HC6H4C6H4CSH2C7H5C6H2FeCHC4H5C2HCHCHSH2C2HC2H2C4HC3H2C4H2CHC3H3C2HSC4HC2H2PHCHC2H3C3HC3HC2H3C2H2SC2H2C3H2C2HC2H2C3HC3HCH2CH2FeH3C2HCH2CH2C4PC2FePHCHC2HC3H4C2H3CH6C2HCH2C2SH2CHSC3H3SCH4C3HCHC2H3CSHC2FeS2FeS2FeSFeHS2FeHFeS2H2FeCS2FeSFeHSH2FeS3FeCS2HC2FeSHSC2FeSHFeSFeSCSH2C3HC2FeSHFeS2CHCH2CH4C6H4C6H4C6H3C7H4C6H4SC2H2CFeHCHC2H2CHC6H2CH2CSHCH3CH2CSH2C2HC2SCHCHC2SC2HC2HC9HC3H10CSC2HC3PC4H2C2HCHC4H5PCH2C2HCH2CHCH4CHC2H2C2H2CHC4H3C5SH4C2H2FeH4CH2CFeSHCHFeHCH2CH2CH2PC6H2SC7PC3HC13H16CH2C3HCSCFeHCH5C2H2C4H3SCSHC2HC2H2CHCPC10SC2SH2CH4PC2HPFeCHCH3CHCH2C3HC4H2C3HFeC4SHC6H4CHCSC2H2CH3C3FeCHSC2H4C2H3CH2C6H2CHC4HC2HSC4H2CSH3C3HSH3CHC5HS2HC2FeHCHCFeS2FeS2FeSFeHS2FeS2FeS2FeSFeS4FeS2FeS2FeHFeS3C2HC2FeS2FeS2FeSFeHS2FeS2FeS2FeCFeS3C6HC6H4C7HC6H4C6H5PCHC2H4C5H3C5HCH3CHC6H4C2H2C2H4C6H4C4H3C4H4C10PC3HC4HC2HC6H5CH2CH3CH7CH2C3H4CHC2HCH2C2HCHC2H3C6HCHCHC2HC2H4CH5CHC2HC3HC4H3CHCHCFeCHCH2CH2C3HC5H2C3HC2H3CHCH2CHC4H2C3PHC2H3CHCH2C7SCH3C2HCH12CSCH2CHC5HC3H2C4HCPCHC4HC8PCSHC3H6CHC5PC18H2CH5CH12PCH2CPCS2HCH2C3H2C4HCH3C2HC2HCH4C2H2C2H2C3H2C2HC3H2CHC3H2CH2CPHC2H3C2H6CHCHCH2C3H3C4H4C3HC3HC5HCH5C3HC2H3CHC3HCH3C3P2C2H2C2HCHC2HC2HC5HC2HCH4CPHCHC2H2C5HSC3HCHC2H2SH2C2H3C2HC4HCFeSFeS2C2H4CH2FeS2FeHSC2FeSCSFeHSCSC6PH5C3Fe2H4C7H4CHCSC2H2C2H2CFeH3SCHCHC2H2C2H5C2H2CH2C8SCH2CHC3HSCHCHC3SH2CH3SFeHCHCH2CSFeSCHCFeC2HC3SC2H2SHPHC4HCFeH2FeS2FeSFeS2HCSH4FeCSFeS2FeSFeSHC6HC2HC6H7SH2C2H2C6H2CHC6H4SC7HC2HCHC3SH4C2HC2HCHC3H3CFePHCFeC5HC4HCSHSCFeC2HC6HC3PC2H2C5FeCH5C3SCH2CFeSHCHCHC3HCSC4HC19H7C2H4CH3CH2SCH2C2H2SHCH3C2H2C2HCH2SCFeH4CHPC3HCHSC3HSCFe2H2C2SCHFeH2C3HSC2HC2HCSPH2CHCHCHCH2SH3C2H2CHC2HCH3CH2CHCPSC2H2PH4CFeH2C5HCH2C3HC3HCH2CHCHCH2C2H5CSC4H3CHC2H3SH3CHCH2CPH2CSHCH2C2SH2CH2FeS2FeSCFeSFeS3FeS2CSCFeSFeS3FeS2CH2PC2HC2HC3HCH2C6H4C6H4CH2CH4C3H3CFeHC2PHCH2CHCHC4H2C2SFeC3HC5H2CSHC2HC2H2CH3CHC3HC4H4CH5C2HC6HCH2CPC4FeCHC2SHC4H4C2H2CHC3HC2H5C7HCHCHC12HCH2CHCFeH9C5H2CH2CSHCHC2HCHC2FeS2FeS2CFeS2FeS2FeSFeS3FeS2FeS2FeSFeS3C5HC2H2C8H4C6H4C2HCH2S2H2SC3HC2HC9H4C2HC6HC3HC5H3CHC3H3C3HCH3C3HCHCHC2HC5HPCH2C3H2CH3CHC4H5C3H4C3H2CH2CHC3HC2H2C2HCHCH2CPHCH2CH2C6H3C2HCH2CHCHCH2CH2CHC2HC2HC2H9CHC2HC3HC2H2C7PC13HCH19C2HCFeC2HCH2C4H3C3HCH2C6PHC6H3CHC4HCH6CH3C2HCH2SH2C7PH3C4HC10H5CH2SCH9C7PC18H7SH2C2PC3SH8C2H2C3H2C3HCHC2PCH3C2H5FeH2CH2FeC2SCHCHCHC2SC2HC2FeS2FeSHFeSFeS3FeS2FeS2FeSFe2S2FeCSC3FeSCSHFeS2H2CFeSHCSPFeS2FeS2FeSFeS3CSCS2HFeH2CH5CH3SHC2H2C2H3CHC6H7C3H2CHC2HCHC2H2C7H7C3HC6HC2H3SHCHC3HC6H2C8H4C6H4C6H4CHC3HC2HCPSCHSH2CHCHCH3C3H2C2HC2FeHCH2CHC5H6C4HC3H2CH2C2H3CHFeH3CHC2HCHC2HCH4CH3C2H3C3HCH2CPHCHCH3CHSH2C2HC2HC2H2CHC3HC5HPC13H2C3H2CHCH3C2H2C2HCH2CH2CH2SHC2HC3H2C2HC2HC2H2CHC3H5C2HC3PC17HC2H8CFeH4CHCHCPH3CHC2FeC3HCHFeSCHCHC3HC10PHPHCH3C4H3C3SC5H3C9H7SH2SHCHC9H3C3H2C2HC2H6CH3C2H2C2PC2FeCFeH2C9SCH5CHC2HPH5CH2CHSH3SHCHCPHSHSC2HSC4H2CHCHCHCH6CHC2HC3H3CH3CHC2H3C2H3C2H4C3FeSCFeS2FeSHS2FeS2FeSFeS2PFeSCFeS2FeS2FeS2FeSFeCS2FeS2FeS2FeSFeS3FeS2CHC2H2CSHFeS2H4C2HS2C2HFeC2H3CH3C2HC2HC2H2CH2C2HCH2C7H6C2HC2HC2H2SC8H4C3HC2H2CHSC6H4C2H4C3HC2HC3H7C9H4C6H4SHCH4CH4C2HCSCHCH4C2SC3SH4C3PH3C3H2C2HC2H2C2H2P2C6HPHC3HCH3C4HC7H4C2HCH3C6HPC13PCHPCH2CH6CH5CHC2HCHCFeC3HCHCHCHCHSFeCH2C2PC14HCH11CHPHCH2C4HC2HFeCHCSH2CH3CH5CHC3H2CH3FeHC5HCHCHCSC2SHCFeHCH3C3H2C4H2SCH2C2HC2HCSC2H2C4H3CH4C2H2C3HC2HC3HC5HSCHC3H2C4H4C2HCHC2HFeCH3C4H2FeC2HCHSC6HPC3H2CH2C4HC4HCH2CHCH2CH2CHCHC2H2C4HSCHC4H2CFeS2FeS2FeSFeS3FeS2FeS2FeSFeCS2H3SCH2C2HSH5C3HCHSCHSFeSHSC3SH6SCH2CH2C2HC2HPCHCHC2HSCH2C3HC7H4CFeC3PCHC2HCH3C2H2C2HC2HC6H4C6H4C6H4C3H2C3HCHCSCHC6H4C2HSCHC3H2SPC5HPCH3CFeC7PCH2C5HSHFePHCHC4HCH4CHC2HFeC2HCH3CHCHCHCH2CH2C3HC3H3CSH3SH2CHCHC3H2C2HC4H2C5HCHCH3C2PC2H2C15HCH2CHCH5CH6C2HCHC4H3FeHCHC6PC14H3CH6C2H8CHCH2CHC2H3C7HFeH2CHCHCHSHCHC3HSHSC3HC3HC4HC2FeH3CHSHC2PC19HCHCH3C2H10PH2SHCH2C3H3C2HCHC2PC4H2C2HC4H3CHSH4CH2SFeH2CFeH2CHCH2CHC2HFeC3HCH2CSHC2HFeHCH2C2SHC5PHC7FeHSCHCH2CH7CH2CHCH2C2HCFeSCHC2HCFeHC8H2PHCHC5HC3HCSH4C8H2C3H2C2HC2H3C3SCHC2H2C2H2C2H6CH2C3S2H2CPCFeS2FeSFeCHCHC2SFeS2FeSFeS3C3HC2SHC2S2C2H4CHFeSFeS2FeS2FeSFeS3FeS2FeS2FeSFeS3FeCSFeS2C6H5CHC5H2C6H6C5H3CHC6H6C2HC2HC8H4C6H3C3H3CHCH2C2HC6H2SHC6H4C4H3C3HPHCPH2CHCSC3H3C4HCH3C4HCH2CHC2H3CHC4FeH2CH2C2H4C3HC2H3C7PC3H2CHC7H3CH6FeC3H6FeHC2SC3HCHCHC3HC2H2CHCH3CH3C2H2C2HC5HCHC2H3C3H2CSCH2CHCH3C10H2C3FeH2C3FeH6C10H7C8HCFeCH2CH2SH2C6HCHC2HC4SCHCH4CHCHPCHC3HSCH3C2PC3FeSH6SHC4HCSPH2C2PH2CHCH2SHC2HCHCPC11H4CH4CH4C6PC18H21SCH4CHCHCH2CH2C2H4CHC5HC2HCHCH2C3HC2HC2HC4PHCHCH2CHC10HCHC2PC3HC4HCH2CH2CH2C7HC2PC2H3C2HCH5SHC4SCFeC3HC4H2C2HCH2CFeHCHCSHCH2C2HC4H3C2H2CH3CHC5HCFeHC3HSC2H5CHC3H2SCH2CHCHC4HCHC3HC2H2CH2SCHCHC2HC5HCPH3PHC2SHC2H2CSC4FeSHC4H3PC3H2CHC2HCH2CH3CH4SCHCHC6H2PCH2PHCFeC4HC2H4CH2CSC2H2C3HC3SFeSCFeS2FeSFeS3FeS2FeSCHPFeSCSC2H2CFeCH2SH9CHC2SC6HCH2C6H4C6H4C6H5C13HCH3CHCHC4H4C2H5C3H2CPC2HCHC2H2CHC2HCSH3CHC3HC3HC2H2C4H2CHC3H3C3HCHCHCSPCHCHPSH2C3HC2H4C4HC3HC4H3C6HCH3CH3CHCHCH2CPSH2C3HC5SC2HCH3PH2C3HC2HC3PH3C2FeS2FeS2FeSFeS3FeS2FeS2FeSFeS3H2C2SPC6H4C6H4C3HC2HCH2C6H4C2H2C2PCH2C6H4CHCHCH2C7PC21H2CH4CH7CH4SCHC3HCHCHC4HPHC5SH2CHCHCHC6PHC5HC2FeCH3CH4C6H2C7H2C2HC6HCH4CHCH3CH2CHC3H2C6HC7H3C2HCHCH3C6PC7HC9H2CH8CSH5CH3C2H4C2HC5HCH2C4H2C4H6C3HCH3CHC2HC2H2PH8CHC5H5CHCHC4HCH4CHCHC6H2CHCHC12H10C5H5CH2C3HCH2CHC3HCHC3H2CHC2HC2PH3CHC2HS2HC3PHCH3C3H3C3SH2SC4H6C2HC7H4CH2CFeS3CFeCS2HC2FeSCPHC2HCFeCSFeHCHSCH3C4HCFeHC8H3CHPC8PH3CHC4FeH3C2SCH2SC2FeHCSC7HCFeC2SCHCFeC3H2CHC2SHC2SHSHC3HCSH3SPH3FeCPCSHCHC3HCH3C6H3CHC3SCHFeHCH7CH5C2HC3HFeHCSCHFeHCHC2H2CHC2H2SHCHCH2CHC4H2SH2CH3SCHCSC2H4SCHC2FeH2CHCFeCFeS2FeSFeHS2FeS2FeS2FeSFeS3FeHSCHC2HSCHC9H2C6H4CHCH2C6H4C6H5CH3C2HC3H3CHCSHC3H2SCH2C3HCHC4PHCH2C5HPCHCH2C5H2C2H2C4H3CHCHCHCHC3H11C3H5CH2SHPH3CH3C2HC3H2CH2CH2SC4PC21H16C4PC2HCHCH3CHC3HCHCH5C2H2C4H2C3H2C2SPH3CH2C2HC2H2C4SC4H4CHC3H3C3H2C2FeSCFeS2FeSFeS3FeS2FeS2FeSFeS3FeS2FeS2FeSFeS3CSFeS2FeS2FeSFeS3FeS2FeS2FeSFeS3CH2CH2C2HC2HCSC2SH4C7H4C3H2CH3C7H4FeH3CH2C6H4C6H4C6H4C6H4C6H4C6H4C3H2CH2CHC6H4CHC2HC2H2C5HCHC5HC2H2C2H4CH3C2PC2PC2HCH4C6H7CH2C2H4C4PC3H5CPCHC7HC2H3CH4CH5C6PC12H15C6PC16HCH16C3HC2H3CH2C2HPCH2C4HCSHC3HC2HCH3C2PH3CHC7HCH2CHCH2CHCHC2HC3HCPC3H3C9H7CH2C3HCH3C6H2CHCHCHCHC12HCH5SC4HCH5CHC3H5CHCHC3HCHCHCH2C4HC2H3C3HC6HCHC2HC2H4CH2CHC3H2CHC6HC4H2CHC3HCHC2H2CH3C5HC4H2PCHCSC6H3C5HC2HC2H2CH2CH2C2H4PHCH2CH2CHCHC4HC5HCPH2C7HCHC4HCHC6HCH2CH2C3HCPHC3HCHC6H3C3H3C5HC4H3C4HCH3C2SC6H2C3HCHC2H2CH2CHC3H5CPHCHC4H2C3H2PCH3CFeS2FeS2FeSFeS3FeS2FeS2FeSFeS3FeSHFeS2FeSFeCS2FeS2CHFeCFeS3C2SC2FeS2FeS2FeCFeS3CHSC2PHC2H2C6H5CHC8H4C6H4FeHC2H3C6H4C2HC3HC6H4C6H4CPC2HCHC4HC4H4CHC7H5CH3CH2FeSC7PC16SCH7CPH11C4HC3H2C4H6CSC2H4C5H2S2HCSH2CHCH2C4H2CHCHC7PCHC2HC3H2C2HC2HC2H6C3HC2H5C8PC13H4C2H8C6PC18H16C2H2CHCHCHC3HCHFeH3C2H2C4HCHCH8C2HC5H4C2HC4HC4HCPCHCHC3H2CHC4HC4H3C4H5C3HC2H2CH2CH2CHC4H2CHCH3C6HC2HPHCHCHC3PC4H2C2HC4HC4H2CH2CH3SH2FeCHC2HCH3CH2CH3C2H4CSH2CHCH2CH2CHC9H2C4HCHC2H2C2HCHCHCH5CSH2C3H3CH5CH3CH3CH2CSC2HC3HCH2SCH2CH2CH3CH2C3H2CHCH3CH3CHCHC5HC7H2CH3FeC2HCHCPHCHC4H2CHC2H2CHCH2FeS2FeS2FeS2FeSFeS3FeS2FeS2FeSFeS3C5HCH2C5H2C4HC6H4C6H2C8H5C5H2C6H7C3H2C2SH2C4HCHCHCH2C3H2CH6CHCH5CSH2CH3CPC5HC13H3CH4CH5CH4C3H3C6PC4HCHC5H4CH3C3H6CH4CH2CHC2H3CH2C2HCHSHC4HC9H3C4HC3H6C3HFeC2H3CPC2HC3H2CH2C2H4SHC4SHC2PC2H4CH2CHC2H2C3H2C4HC4H3C2HCHC2H2C4SC4HCHPC2H2C3HPC7H2FeC2HC2HCHC2H2C2HCPCFeC2HC2FeSCPSCFeSFeS3FeS2FeS2Fe3S3FeS2CH2CSHCHSH4SC2HCH2C2HC3H4C6H6C2HC6H4C4H2C2HSCH4CH2C3PC3H2C13H11CH9C3HCH2C2HC3HCHC4SCHCH2C2H5C3HCH2CPH7FeC2HCHCHC5HC2H3C6H2CFeC3HC8H6CHFeC2H2C4H2CHC2H2C2PC3HCH2C6HCHC2HSCHSC2HCHFeC3HC2HC3HC3H2FeC2H2CH2CSCH2CHC6HCH2PCH2SHPH4C3SCSCFeS2FeS2FeSFeS3FeSHFeS2FeSFeS3FeS2HSFeSFeSCSFeHSCHCSC5FeHCFeS2FeSHS2FeS2FeSFeS3H3C9H4CH2CHSCHC6H6SH4C3HC8H4C6H7C7H6C5H3CHC2H4CHC3H2C11H5SCPH4C2HC3PHCH3C5HC3H3C4HCHC2HC3HC2H3CH2CHSCHSC3H4C4HC2HCHC4SCFeH3CHC2H5PC12H5CH4CH3C2PC12H2C2HC3H2CH3CPH4CHCHC6PC18H20CH2CHCHPHC9SCH4CHCHCH2CH3CSCH2CH3SCH3FeCHCSH4CH3C3HCH2C2HCHC2HCFeCHC3H2CHC2H5CH2C2HCH2CH3FeHCHC4HFeC3H3CSCHC2H2C2HCHCHC3HC3HC2H2CHPCHC4HCHC3HSHCHC4HCHSHC3H3C3HFeC3HSC2HC3HC5HCH2CH2CHCSC2H4C2HC2H3C3FeC5HC2H3C2HC3HCHC4H2CH2C5HCH3C2HCH2C2PCHC4HC4HCHCH7FeS2FeSFeHS2H2C2FeS2FeS2FeSCFeHCHS2CHCHFeS2FeS2FeSFeCS2FeS2FeS2FeSFeCS2HCHS2CHC4HC2HC6H4C3HC2HCH2C2H2C2FeH3C2HC4HSHC6H5C3HCHC7H5CHC3H3CHC6H7CH4C2PCHCH2C3HSHC6H4C6H4C6H4C3FeC3HC6PC18H12CH13C2H5CHCH2CHC2HCHC2SC2H3C5HCHC2H2C5H2C2PHC3HC4HC2HC3H2FeCHC4H3C3H5CH2FeC3SC4HCHCHC2HCHCHCPH3SC3H3C2H4C6PC2H2C3HCH2C4HC2H5C2H4CH2CH2C2HCPC18H8PHCH7C2SH2C2HC3H4CH3CHCSCHCHC2HPSH3C2FeC2H3SC2HCH2C7PC9HC2SCH3CHCH2CHCH2C2H2CHCH2SC2HC2H2PC2HCSC2HCHCH3C7HC2HCSHC3HC4H2CH4CHSFeH2C2SC3HCHCH2SH2C2HCH2C5HCH2C2H2CHC2H3C3H2CH2C2HC8HSCHC3HCH2CPC2SCH2C2HCSCH2C2H2C2H2C4FeCH2FeCPSC2HC3HCH3CH2CHC2HCH3C2HCH3SH2CH6C2SCFeS2FeS2FeCFeS3FeS2FeS2FeSFeS3HFeS2FeS2FeSFeS3HFeS2H3FeSFeSHSFeS2FeS2FeSFeS3HC5HCH5CH3CH2C8H4CH2SHC9H4C6H5CHC5H2C6H4CHCHCHC6H6C2HCH2CHC5H5CHC2H5CH2CHC7HPC2HC2HCSHCHC2HPH2CHC7PSHCH2CH2CH4CHCHC2HC3HC2HC3H3CHC2H3PCSH5C2HC4HC2HC2SH2C5HCHCH2C2H4C2HCHC4HC4H2CSCH2C2HCPC3HC3H2CHC7H2CH3C4HC2H6CHC2H2C6PC10H9CH2C7PC3HCH2CH2SC2H2CHCH4C2HCHC7H2C2HC2H3C6PC13H3C2H4CH12CH2CHC4HCHCH3CH2C2H4CHC3HC3HC2H2C2HCHC2HFeHC3H2CPFeC4H3C3HC3HCH3SHC2HCH2CH3C2HCH2CHC4FeC2HCHCHCHC2SHC3HC2H5CSCH3C2HCHC3HC2H2SHC2HFeC2HCHC3SH2C8H2CHCHC2H5C2HC2H2C3PHCH4C2H2CHCHCFeSHFeS2FeSFeS3FeSCFeS2FeCFeS3FeS2CHSFeSFeC4FeSHSFeCSFeC2HFeCFeSFeS2HSFeSFeSCH2FeCSCH3C7H5CHSC3HCH2C6H6C6H4CHC8H3C6H3C2HCH2SCH2C3HC2HFeCH3CHSC4HSHC3HCH4FeCSCH2PH2C8PH2C2S2CHCH2C4SCH4CH2SHC3SCH3C2H5SC8PC15H2CH8CH7CHCHCH3C2HCH5SCHFeH2C2HC5HFeHC3H3C2SCH2SC2H3C3HSH2C4HCH4C3H4FeCSCHC4H2C5H2SCHC2PC2H4CH2C4H3CHPH2C2SH2CFeHSC2H4C4H3CHFeH2FeS2FeS2FeS3CH5FeS2HCHFeCFeCS2HC2HSCPC2FeHCH3CH2CHFePH3CHC3SCH2C3HCHCHC5H2C3HC3HC2FeHC6H4C6H4C3SC2HCH2C2HCHC2HSCFeSCH2C2SCHC3H2C2HSCHCFeHC2H2C3HCH6C5HSCHCHC2HCSH2CHCPC3HC2PCHCHC5HC7HFeH3CH2CHCHCH4C2HC2HC2H3C2HC2SHCHCH2CHCHCHPCHC4HC2HSCSHCH3SC3HCHCHFeCH2CH2C3HC6PC18H21C2H3C2HSC2H2C2HCHC2HCHCH5C3SCHFeS2HCHFeSFeS3CH2FeS2CH2FeHFeS2HFeHSHC7H4CH2C6H4C6H4C6PC15H16C2HC3H4C2HCHCH3C2S2C2HCSC2HSC2PC4HFeH3C2PC2H2FeC2H5C2H2CFeC2HCHCHC3SCHC2H2CSCH3C3HCSCH3CH2CHCSHCSCHCHCSHCHCFeCPC2H5CHCFeC5H2CPHC2HCHC2H2C2HCHSH3CH2C3H2CHC3SH5C3
_chemical_formula_sum              "Fe576 S1152 P288 H6912 C8640"
_cell_length_a       108.277
_cell_length_b       107.582
_cell_length_c       107.096
_cell_angle_alpha    73.7597
_cell_angle_beta     73.7026
_cell_angle_gamma    73.7333

_space_group_name_H-M_alt    "P 1"
_space_group_IT_number       1

loop_
  _space_group_symop_operation_xyz
  'x, y, z'

loop_
  _atom_site_type_symbol
  _atom_site_label
  _atom_site_symmetry_multiplicity
  _atom_site_fract_x
  _atom_site_fract_y
  _atom_site_fract_z
  _atom_site_occupancy
  Fe  Fe1       1.0  0.14885  0.01696  0.42256  1.0000
  S   S1        1.0  0.13288  0.01689  0.41292  1.0000
  S   S2        1.0  0.15065  0.00883  0.44383  1.0000
  Fe  Fe2       1.0  0.16616  0.02857  0.39664  1.0000
  S   S3        1.0  0.15179  0.02953  0.38474  1.0000
  S   S4        1.0  0.18517  0.03540  0.38664  1.0000
  Fe  Fe3       1.0  0.13612  0.03723  0.40130  1.0000
  S   S5        1.0  0.12273  0.05722  0.39538  1.0000
  Fe  Fe4       1.0  0.14988  0.00923  0.39715  1.0000
  S   S6        1.0  0.15077  0.03767  0.41230  1.0000
  S   S7        1.0  0.16550  0.00782  0.40779  1.0000
  Fe  Fe5       1.0  0.02226  0.11215  0.42107  1.0000
  S   S8        1.0  0.02838  0.13102  0.41881  1.0000
  S   S9        1.0  0.00077  0.11080  0.42896  1.0000
  Fe  Fe6       1.0  0.05102  0.09608  0.41817  1.0000
  S   S10       1.0  0.05933  0.11380  0.41572  1.0000
  S   S11       1.0  0.06181  0.07447  0.42121  1.0000
  Fe  Fe7       1.0  0.04208  0.11918  0.43209  1.0000
  S   S12       1.0  0.04286  0.12820  0.44831  1.0000
  Fe  Fe8       1.0  0.04494  0.12436  0.40256  1.0000
  S   S13       1.0  0.04993  0.13900  0.38329  1.0000
  S   S14       1.0  0.03486  0.10067  0.43574  1.0000
  S   S15       1.0  0.03784  0.10615  0.40359  1.0000
  Fe  Fe9       1.0  0.03810  0.21119  0.39632  1.0000
  S   S16       1.0  0.02894  0.20973  0.41804  1.0000
  S   S17       1.0  0.03345  0.20022  0.38363  1.0000
  P   P1        1.0  0.17427  0.07444  0.41255  1.0000
  Fe  Fe10      1.0  0.04847  0.21226  0.41927  1.0000
  S   S18       1.0  0.05912  0.20060  0.43563  1.0000
  H   H1        1.0  0.23407  0.07212  0.44141  1.0000
  S   S19       1.0  0.05809  0.21213  0.39780  1.0000
  C   C1        1.0  0.18491  0.05239  0.43040  1.0000
  C   C2        1.0  0.03759  0.21399  0.45062  1.0000
  C   C3        1.0  0.01677  0.08263  0.47948  1.0000
  H   H2        1.0  0.08566  0.09613  0.47594  1.0000
  S   S20       1.0  0.22301  0.02578  0.42535  1.0000
  H   H3        1.0  0.14775  0.09509  0.45032  1.0000
  C   C4        1.0  0.22558  0.98326  0.40861  1.0000
  C   C5        1.0  0.15936  0.08608  0.43390  1.0000
  H   H4        1.0  0.14113  0.09909  0.38520  1.0000
  H   H5        1.0  0.06660  0.19886  0.46004  1.0000
  H   H6        1.0  0.02070  0.22486  0.46221  1.0000
  C   C6        1.0  0.05053  0.20666  0.44996  1.0000
  P   P2        1.0  0.21831  0.99816  0.37116  1.0000
  H   H7        1.0  0.03279  0.21560  0.44254  1.0000
  H   H8        1.0  0.17734  0.10194  0.40538  1.0000
  C   C7        1.0  0.04681  0.15591  0.38367  1.0000
  C   C8        1.0  0.04432  0.16538  0.37218  1.0000
  C   C9        1.0  0.04060  0.17892  0.37230  1.0000
  C   C10       1.0  0.03991  0.18322  0.38370  1.0000
  C   C11       1.0  0.04317  0.17385  0.39502  1.0000
  C   C12       1.0  0.04636  0.16015  0.39510  1.0000
  H   H9        1.0  0.04476  0.16221  0.36330  1.0000
  H   H10       1.0  0.03814  0.18609  0.36351  1.0000
  H   H11       1.0  0.04264  0.17716  0.40384  1.0000
  H   H12       1.0  0.04842  0.15287  0.40396  1.0000
  C   C13       1.0  0.04746  0.11553  0.46153  1.0000
  P   P3        1.0  0.00353  0.17053  0.43204  1.0000
  C   C14       1.0  0.05218  0.10244  0.45994  1.0000
  H   H13       1.0  0.15550  0.09730  0.40013  1.0000
  H   H14       1.0  0.05349  0.10016  0.45039  1.0000
  C   C15       1.0  0.10600  0.06188  0.40334  1.0000
  C   C16       1.0  0.09936  0.07520  0.40015  1.0000
  C   C17       1.0  0.08590  0.07925  0.40582  1.0000
  C   C18       1.0  0.07894  0.06995  0.41463  1.0000
  C   C19       1.0  0.08564  0.05668  0.41807  1.0000
  C   C20       1.0  0.09916  0.05265  0.41250  1.0000
  H   H15       1.0  0.10460  0.08238  0.39308  1.0000
  H   H16       1.0  0.08083  0.08948  0.40308  1.0000
  H   H17       1.0  0.08032  0.04944  0.42488  1.0000
  H   H18       1.0  0.10418  0.04238  0.41502  1.0000
  C   C21       1.0  0.19623  0.03171  0.39709  1.0000
  C   C22       1.0  0.19244  0.02625  0.41064  1.0000
  C   C23       1.0  0.20125  0.02349  0.41897  1.0000
  C   C24       1.0  0.21358  0.02683  0.41398  1.0000
  C   C25       1.0  0.21755  0.03199  0.40033  1.0000
  C   C26       1.0  0.20889  0.03433  0.39186  1.0000
  H   H19       1.0  0.18275  0.02407  0.41472  1.0000
  H   H20       1.0  0.19844  0.01887  0.42937  1.0000
  H   H21       1.0  0.09459  0.19397  0.47219  1.0000
  H   H22       1.0  0.21188  0.03839  0.38132  1.0000
  C   C27       1.0  0.13654  0.01279  0.45610  1.0000
  C   C28       1.0  0.18796  0.06540  0.45950  1.0000
  C   C29       1.0  0.16302  0.04097  0.43735  1.0000
  C   C30       1.0  0.11501  0.02641  0.46336  1.0000
  C   C31       1.0  0.18476  0.04034  0.43963  1.0000
  H   H23       1.0  0.01234  0.18869  0.44185  1.0000
  C   C32       1.0  0.16431  0.06538  0.39626  1.0000
  C   C33       1.0  0.14316  0.04112  0.46861  1.0000
  C   C34       1.0  0.15585  0.08860  0.39678  1.0000
  C   C35       1.0  0.03076  0.21934  0.46174  1.0000
  C   C36       1.0  0.12576  0.02293  0.45305  1.0000
  C   C37       1.0  0.01506  0.10993  0.46931  1.0000
  C   C38       1.0  0.07694  0.12069  0.45014  1.0000
  H   H24       1.0  0.06052  0.04575  0.46883  1.0000
  C   C39       1.0  0.03099  0.04197  0.47629  1.0000
  H   H25       1.0  0.09570  0.00265  0.45337  1.0000
  C   C40       1.0  0.99577  0.20663  0.37585  1.0000
  H   H26       1.0  0.99906  0.08982  0.39526  1.0000
  H   H27       1.0  0.21635  0.02620  0.35679  1.0000
  C   C41       1.0  0.99880  0.15199  0.42086  1.0000
  C   C42       1.0  0.09021  0.09396  0.45559  1.0000
  H   H28       1.0  0.05445  0.20851  0.47986  1.0000
  C   C43       1.0  0.21480  0.98596  0.35289  1.0000
  C   C44       1.0  0.16413  0.07635  0.40098  1.0000
  H   H29       1.0  0.98875  0.20900  0.45407  1.0000
  Fe  Fe11      1.0  0.02387  0.23192  0.41296  1.0000
  H   H30       1.0  0.00800  0.14592  0.38966  1.0000
  H   H31       1.0  0.11029  0.09197  0.46995  1.0000
  H   H32       1.0  0.18972  0.98604  0.32297  1.0000
  H   H33       1.0  0.02707  0.16689  0.46612  1.0000
  C   C45       1.0  0.01260  0.03179  0.44573  1.0000
  H   H34       1.0  0.17237  0.01594  0.36582  1.0000
  H   H35       1.0  0.10003  0.13386  0.44967  1.0000
  C   C46       1.0  0.00181  0.08553  0.40480  1.0000
  C   C47       1.0  0.16295  0.05326  0.42841  1.0000
  C   C48       1.0  0.20770  0.06642  0.44195  1.0000
  H   H36       1.0  0.17262  0.99594  0.36125  1.0000
  P   P4        1.0  0.18223  0.04221  0.47745  1.0000
  H   H37       1.0  0.00007  0.21676  0.40601  1.0000
  C   C49       1.0  0.01261  0.22986  0.36823  1.0000
  C   C50       1.0  0.06910  0.22795  0.47948  1.0000
  C   C51       1.0  0.07870  0.11440  0.46303  1.0000
  C   C52       1.0  0.19242  0.05163  0.46366  1.0000
  C   C53       1.0  0.18605  0.98303  0.33361  1.0000
  H   H38       1.0  0.99389  0.14755  0.43064  1.0000
  H   H39       1.0  0.01519  0.12026  0.46489  1.0000
  C   C54       1.0  0.12553  0.00916  0.47947  1.0000
  H   H40       1.0  0.13329  0.08774  0.41924  1.0000
  C   C55       1.0  0.16786  0.08786  0.42125  1.0000
  C   C56       1.0  0.00864  0.07521  0.42956  1.0000
  C   C57       1.0  0.03201  0.17035  0.47157  1.0000
  C   C58       1.0  0.17655  0.98865  0.35515  1.0000
  H   H41       1.0  0.06697  0.05973  0.44639  1.0000
  C   C59       1.0  0.11221  0.08172  0.47524  1.0000
  C   C60       1.0  0.23358  0.00375  0.36463  1.0000
  H   H42       1.0  0.99336  0.22151  0.47514  1.0000
  C   C61       1.0  0.08631  0.14531  0.46342  1.0000
  C   C62       1.0  0.15430  0.09653  0.44056  1.0000
  H   H43       1.0  0.19573  0.08288  0.41742  1.0000
  C   C63       1.0  0.16595  0.11072  0.42195  1.0000
  C   C64       1.0  0.06758  0.05179  0.46706  1.0000
  C   C65       1.0  0.21255  0.05289  0.44647  1.0000
  C   C66       1.0  0.00681  0.15080  0.39764  1.0000
  C   C67       1.0  0.08613  0.06724  0.46244  1.0000
  C   C68       1.0  0.08855  0.18775  0.47971  1.0000
  C   C69       1.0  0.98919  0.04343  0.46139  1.0000
  C   C70       1.0  0.20994  0.06724  0.38644  1.0000
  H   H44       1.0  0.20937  0.03534  0.46095  1.0000
  C   C71       1.0  0.08110  0.16453  0.44065  1.0000
  C   C72       1.0  0.19949  0.07880  0.40859  1.0000
  H   H45       1.0  0.17150  0.98828  0.46551  1.0000
  H   H46       1.0  0.08843  0.13776  0.47210  1.0000
  H   H47       1.0  0.99523  0.13790  0.41231  1.0000
  C   C73       1.0  0.17103  0.10029  0.41526  1.0000
  C   C74       1.0  0.03690  0.21763  0.47216  1.0000
  H   H48       1.0  0.04346  0.06026  0.44004  1.0000
  H   H49       1.0  0.19065  0.06420  0.38891  1.0000
  H   H50       1.0  0.04968  0.15531  0.46845  1.0000
  C   C75       1.0  0.20484  0.01111  0.36595  1.0000
  C   C76       1.0  0.21609  0.99380  0.38911  1.0000
  C   C77       1.0  0.20405  0.99829  0.39750  1.0000
  C   C78       1.0  0.20689  0.02371  0.35868  1.0000
  C   C79       1.0  0.19659  0.03335  0.35390  1.0000
  C   C80       1.0  0.18418  0.03051  0.35640  1.0000
  C   C81       1.0  0.18208  0.01801  0.36361  1.0000
  C   C82       1.0  0.19236  0.00831  0.36834  1.0000
  C   C83       1.0  0.12889  0.06905  0.42060  1.0000
  C   C84       1.0  0.04975  0.20999  0.47174  1.0000
  C   C85       1.0  0.00132  0.19658  0.41725  1.0000
  C   C86       1.0  0.19646  0.01696  0.47336  1.0000
  H   H51       1.0  0.00946  0.04945  0.43063  1.0000
  H   H52       1.0  0.04856  0.03572  0.44603  1.0000
  C   C87       1.0  0.16028  0.05287  0.46544  1.0000
  H   H53       1.0  0.00390  0.18568  0.37924  1.0000
  H   H54       1.0  0.20904  0.99821  0.46990  1.0000
  H   H55       1.0  0.19566  0.00439  0.39349  1.0000
  H   H56       1.0  0.19340  0.99838  0.41777  1.0000
  C   C88       1.0  0.99414  0.05060  0.44869  1.0000
  H   H57       1.0  0.19811  0.04316  0.34862  1.0000
  H   H58       1.0  0.17608  0.03812  0.35310  1.0000
  H   H59       1.0  0.03108  0.07310  0.45687  1.0000
  C   C89       1.0  0.00373  0.15376  0.45724  1.0000
  C   C90       1.0  0.20370  0.00410  0.47726  1.0000
  C   C91       1.0  0.99964  0.14628  0.41036  1.0000
  C   C92       1.0  0.14769  0.08970  0.38825  1.0000
  H   H60       1.0  0.02161  0.02726  0.43958  1.0000
  C   C93       1.0  0.01045  0.10277  0.46326  1.0000
  H   H61       1.0  0.00627  0.22013  0.43846  1.0000
  H   H62       1.0  0.06727  0.17600  0.45414  1.0000
  C   C94       1.0  0.07696  0.15717  0.46478  1.0000
  C   C95       1.0  0.09295  0.14309  0.45072  1.0000
  H   H63       1.0  0.13424  0.04050  0.46630  1.0000
  H   H64       1.0  0.15655  0.07669  0.43860  1.0000
  C   C96       1.0  0.20508  0.04561  0.45743  1.0000
  H   H65       1.0  0.00381  0.20869  0.36745  1.0000
  C   C97       1.0  0.10774  0.07217  0.47204  1.0000
  H   H66       1.0  0.12585  0.02825  0.44284  1.0000
  C   C98       1.0  0.19658  0.06834  0.39262  1.0000
  C   C99       1.0  0.99609  0.07510  0.42828  1.0000
  H   H67       1.0  0.12256  0.05079  0.42461  1.0000
  H   H68       1.0  0.16841  0.12031  0.41726  1.0000
  H   H69       1.0  0.14135  0.07937  0.37736  1.0000
  C   C100      1.0  0.01769  0.08039  0.41853  1.0000
  H   H70       1.0  0.14444  0.99772  0.47162  1.0000
  C   C101      1.0  0.05522  0.09221  0.47076  1.0000
  C   C102      1.0  0.12761  0.08043  0.42512  1.0000
  H   H71       1.0  0.15641  0.05794  0.38414  1.0000
  H   H72       1.0  0.01384  0.15447  0.45571  1.0000
  C   C103      1.0  0.14787  0.07865  0.38372  1.0000
  H   H73       1.0  0.15461  0.03642  0.43996  1.0000
  C   C104      1.0  0.02525  0.23163  0.36128  1.0000
  H   H74       1.0  0.14346  0.06059  0.45626  1.0000
  H   H75       1.0  0.16437  0.06147  0.46047  1.0000
  C   C105      1.0  0.00572  0.04450  0.44074  1.0000
  C   C106      1.0  0.20276  0.99502  0.41134  1.0000
  H   H76       1.0  0.15365  0.11696  0.43973  1.0000
  C   C107      1.0  0.99479  0.20974  0.41339  1.0000
  H   H77       1.0  0.23061  0.01362  0.38068  1.0000
  C   C108      1.0  0.17404  0.05890  0.42460  1.0000
  C   C109      1.0  0.99271  0.08041  0.41582  1.0000
  C   C110      1.0  0.19118  0.07430  0.40365  1.0000
  C   C111      1.0  0.12171  0.98749  0.43181  1.0000
  H   H78       1.0  0.07966  0.11834  0.43017  1.0000
  C   C112      1.0  0.08816  0.10030  0.44271  1.0000
  H   H79       1.0  0.21927  0.08100  0.40630  1.0000
  H   H80       1.0  0.00155  0.11803  0.40020  1.0000
  C   C113      1.0  0.04309  0.16196  0.43100  1.0000
  C   C114      1.0  0.04434  0.17206  0.43608  1.0000
  C   C115      1.0  0.03323  0.18161  0.44001  1.0000
  C   C116      1.0  0.02087  0.18122  0.43867  1.0000
  C   C117      1.0  0.01963  0.17141  0.43306  1.0000
  C   C118      1.0  0.03077  0.16162  0.42952  1.0000
  C   C119      1.0  0.07442  0.16675  0.45331  1.0000
  H   H81       1.0  0.00477  0.13913  0.47548  1.0000
  H   H82       1.0  0.11755  0.09154  0.44027  1.0000
  H   H83       1.0  0.00668  0.10768  0.45434  1.0000
  H   H84       1.0  0.05843  0.08206  0.46962  1.0000
  H   H85       1.0  0.19054  0.99868  0.37395  1.0000
  C   C120      1.0  0.08510  0.10103  0.46579  1.0000
  H   H86       1.0  0.21088  0.99583  0.34765  1.0000
  H   H87       1.0  0.19597  0.02068  0.46302  1.0000
  C   C121      1.0  0.00481  0.16267  0.41866  1.0000
  H   H88       1.0  0.07444  0.11969  0.47102  1.0000
  H   H89       1.0  0.04088  0.02396  0.46934  1.0000
  C   C122      1.0  0.11865  0.08257  0.43699  1.0000
  C   C123      1.0  0.01292  0.16128  0.39538  1.0000
  C   C124      1.0  0.01183  0.16729  0.40578  1.0000
  H   H90       1.0  0.05164  0.15436  0.42817  1.0000
  H   H91       1.0  0.05389  0.17254  0.43699  1.0000
  H   H92       1.0  0.03424  0.18939  0.44403  1.0000
  C   C125      1.0  0.08195  0.05975  0.47526  1.0000
  H   H93       1.0  0.02997  0.15369  0.42567  1.0000
  H   H94       1.0  0.01148  0.07122  0.43907  1.0000
  H   H95       1.0  0.99216  0.02514  0.47611  1.0000
  H   H96       1.0  0.01165  0.19366  0.41264  1.0000
  H   H97       1.0  0.01310  0.01500  0.46235  1.0000
  H   H98       1.0  0.19187  0.08329  0.44533  1.0000
  H   H99       1.0  0.18156  0.00285  0.33696  1.0000
  H   H100      1.0  0.12724  0.99498  0.38729  1.0000
  H   H101      1.0  0.01877  0.16457  0.38560  1.0000
  H   H102      1.0  0.01670  0.17536  0.40375  1.0000
  H   H103      1.0  0.11265  0.99389  0.42932  1.0000
  C   C126      1.0  0.04481  0.16376  0.47298  1.0000
  H   H104      1.0  0.08322  0.07325  0.44216  1.0000
  C   C127      1.0  0.17394  0.03448  0.44295  1.0000
  H   H105      1.0  0.04276  0.12863  0.47499  1.0000
  H   H106      1.0  0.17055  0.05584  0.39942  1.0000
  C   C128      1.0  0.01428  0.08553  0.40615  1.0000
  H   H107      1.0  0.13541  0.06756  0.41117  1.0000
  C   C129      1.0  0.15629  0.06654  0.38761  1.0000
  C   C130      1.0  0.12158  0.05959  0.42816  1.0000
  P   P5        1.0  0.09861  0.07669  0.45903  1.0000
  H   H108      1.0  0.09135  0.09491  0.43478  1.0000
  C   C131      1.0  0.14841  0.05241  0.46294  1.0000
  C   C132      1.0  0.04629  0.11849  0.47379  1.0000
  C   C133      1.0  0.99607  0.16097  0.44782  1.0000
  C   C134      1.0  0.98905  0.11280  0.41954  1.0000
  H   H109      1.0  0.99305  0.08851  0.44820  1.0000
  C   C135      1.0  0.08340  0.17911  0.47597  1.0000
  H   H110      1.0  0.17402  0.02487  0.44973  1.0000
  H   H111      1.0  0.22659  0.01752  0.46268  1.0000
  C   C136      1.0  0.08046  0.06733  0.45209  1.0000
  C   C137      1.0  0.99601  0.22501  0.43904  1.0000
  C   C138      1.0  0.08159  0.11361  0.44001  1.0000
  H   H112      1.0  0.07136  0.13085  0.44814  1.0000
  H   H113      1.0  0.17875  0.07052  0.46480  1.0000
  H   H114      1.0  0.19349  0.03515  0.44347  1.0000
  C   C139      1.0  0.18148  0.99250  0.34147  1.0000
  H   H115      1.0  0.21352  0.07199  0.43344  1.0000
  C   C140      1.0  0.09575  0.99602  0.46307  1.0000
  H   H116      1.0  0.09536  0.15093  0.42950  1.0000
  C   C141      1.0  0.99472  0.18749  0.42720  1.0000
  C   C142      1.0  0.11075  0.07342  0.44424  1.0000
  H   H117      1.0  0.22211  0.04793  0.44149  1.0000
  C   C143      1.0  0.13628  0.00577  0.46927  1.0000
  C   C144      1.0  0.05658  0.20449  0.46059  1.0000
  C   C145      1.0  0.07124  0.05963  0.45443  1.0000
  H   H118      1.0  0.00782  0.08371  0.46345  1.0000
  H   H119      1.0  0.15436  0.05820  0.42430  1.0000
  H   H120      1.0  0.19369  0.05631  0.42758  1.0000
  H   H121      1.0  0.07906  0.17207  0.43187  1.0000
  H   H122      1.0  0.02731  0.08055  0.41960  1.0000
  H   H123      1.0  0.02122  0.08973  0.39764  1.0000
  H   H124      1.0  0.10683  0.05438  0.44546  1.0000
  C   C146      1.0  0.15761  0.10884  0.43460  1.0000
  C   C147      1.0  0.19548  0.07272  0.44858  1.0000
  C   C148      1.0  0.03838  0.03470  0.46663  1.0000
  C   C149      1.0  0.04272  0.04129  0.45353  1.0000
  C   C150      1.0  0.03983  0.05513  0.45013  1.0000
  C   C151      1.0  0.03256  0.06243  0.45978  1.0000
  C   C152      1.0  0.02775  0.05591  0.47289  1.0000
  C   C153      1.0  0.11511  0.01979  0.47662  1.0000
  H   H125      1.0  0.08552  0.17888  0.46554  1.0000
  C   C154      1.0  0.11259  0.06172  0.43996  1.0000
  H   H126      1.0  0.22710  0.03451  0.39639  1.0000
  S   S21       1.0  0.15476  0.99174  0.38745  1.0000
  H   H127      1.0  0.10674  0.03438  0.46115  1.0000
  H   H128      1.0  0.12218  0.99816  0.44594  1.0000
  C   C155      1.0  0.09031  0.15267  0.43934  1.0000
  C   C156      1.0  0.01118  0.08920  0.46840  1.0000
  C   C157      1.0  0.07461  0.22696  0.46626  1.0000
  H   H129      1.0  0.10860  0.05112  0.47570  1.0000
  H   H130      1.0  0.22850  0.07071  0.38670  1.0000
  C   C158      1.0  0.09333  0.00125  0.47430  1.0000
  C   C159      1.0  0.07297  0.05183  0.47745  1.0000
  H   H131      1.0  0.09156  0.01189  0.47332  1.0000
  C   C160      1.0  0.99579  0.19345  0.38247  1.0000
  H   H132      1.0  0.08277  0.21884  0.46396  1.0000
  C   C161      1.0  0.00780  0.02489  0.45854  1.0000
  H   H133      1.0  0.21403  0.06248  0.37805  1.0000
  C   C162      1.0  0.99183  0.11653  0.40559  1.0000
  H   H134      1.0  0.03372  0.22619  0.36555  1.0000
  H   H135      1.0  0.01146  0.22321  0.37798  1.0000
  C   C163      1.0  0.99863  0.14490  0.46854  1.0000
  C   C164      1.0  0.21808  0.07185  0.39134  1.0000
  C   C165      1.0  0.12704  0.98988  0.44115  1.0000
  C   C166      1.0  0.22685  0.98633  0.39480  1.0000
  C   C167      1.0  0.16092  0.03124  0.48027  1.0000
  C   C168      1.0  0.99603  0.03064  0.46631  1.0000
  C   C169      1.0  0.16677  0.04216  0.47400  1.0000
  C   C170      1.0  0.21286  0.07764  0.40240  1.0000
  H   H136      1.0  0.01600  0.18701  0.47535  1.0000
  C   C171      1.0  0.21354  0.98764  0.41689  1.0000
  C   C172      1.0  0.11122  0.05881  0.47849  1.0000
  C   C173      1.0  0.14935  0.03060  0.47735  1.0000
  C   C174      1.0  0.23526  0.01014  0.47987  1.0000
  C   C175      1.0  0.02573  0.18159  0.47685  1.0000
  C   C176      1.0  0.23477  0.01102  0.46675  1.0000
  C   C177      1.0  0.05130  0.16820  0.48002  1.0000
  C   C178      1.0  0.13145  0.98451  0.39027  1.0000
  H   H137      1.0  0.21258  0.98536  0.42758  1.0000
  H   H138      1.0  0.14276  0.98395  0.45135  1.0000
  C   C179      1.0  0.21904  0.98403  0.36470  1.0000
  S   S22       1.0  0.10582  0.03262  0.52209  1.0000
  S   S23       1.0  0.08471  0.01715  0.55651  1.0000
  Fe  Fe12      1.0  0.03609  0.08409  0.54473  1.0000
  S   S24       1.0  0.04804  0.09720  0.52872  1.0000
  S   S25       1.0  0.04401  0.07175  0.56262  1.0000
  Fe  Fe13      1.0  0.04251  0.08833  0.51509  1.0000
  C   C180      1.0  0.12149  0.08306  0.52522  1.0000
  Fe  Fe14      1.0  0.02855  0.11165  0.52835  1.0000
  C   C181      1.0  0.09471  0.22595  0.49787  1.0000
  S   S26       1.0  0.03210  0.07405  0.53107  1.0000
  H   H139      1.0  0.01624  0.11464  0.57025  1.0000
  Fe  Fe15      1.0  0.20764  0.02635  0.53530  1.0000
  S   S27       1.0  0.05620  0.08219  0.49686  1.0000
  S   S28       1.0  0.18722  0.03655  0.54475  1.0000
  C   C182      1.0  0.99234  0.16146  0.51104  1.0000
  C   C183      1.0  0.02566  0.04651  0.52250  1.0000
  C   C184      1.0  0.99788  0.18741  0.54444  1.0000
  C   C185      1.0  0.23208  0.02766  0.62434  1.0000
  S   S29       1.0  0.99598  0.08671  0.52602  1.0000
  S   S30       1.0  0.21985  0.03742  0.51737  1.0000
  C   C186      1.0  0.19059  0.02509  0.48263  1.0000
  H   H140      1.0  0.05047  0.14146  0.49199  1.0000
  S   S31       1.0  0.03880  0.20889  0.54105  1.0000
  Fe  Fe16      1.0  0.03417  0.21788  0.50489  1.0000
  S   S32       1.0  0.05399  0.20882  0.50981  1.0000
  C   C187      1.0  0.07947  0.12843  0.51013  1.0000
  Fe  Fe17      1.0  0.04336  0.19532  0.52692  1.0000
  S   S33       1.0  0.05222  0.17337  0.53319  1.0000
  H   H141      1.0  0.99676  0.19644  0.54763  1.0000
  C   C188      1.0  0.09892  0.03663  0.56958  1.0000
  S   S34       1.0  0.02399  0.20322  0.52074  1.0000
  H   H142      1.0  0.22719  0.05319  0.54052  1.0000
  C   C189      1.0  0.05908  0.12632  0.50671  1.0000
  H   H143      1.0  0.00872  0.05251  0.51394  1.0000
  S   S35       1.0  0.01674  0.09926  0.54562  1.0000
  H   H144      1.0  0.14031  0.08649  0.51308  1.0000
  C   C190      1.0  0.03202  0.18582  0.48414  1.0000
  H   H145      1.0  0.01116  0.13031  0.54956  1.0000
  C   C191      1.0  0.22522  0.04849  0.55104  1.0000
  S   S36       1.0  0.10391  0.00175  0.52514  1.0000
  C   C192      1.0  0.17461  0.99383  0.49231  1.0000
  C   C193      1.0  0.23565  0.04293  0.55758  1.0000
  C   C194      1.0  0.08613  0.07808  0.50297  1.0000
  C   C195      1.0  0.09698  0.22235  0.51075  1.0000
  C   C196      1.0  0.10823  0.05124  0.54963  1.0000
  H   H146      1.0  0.12236  0.08549  0.48804  1.0000
  C   C197      1.0  0.03901  0.04642  0.52049  1.0000
  Fe  Fe18      1.0  0.12690  0.02459  0.52385  1.0000
  C   C198      1.0  0.09779  0.06190  0.55266  1.0000
  S   S37       1.0  0.12244  0.00814  0.54147  1.0000
  C   C199      1.0  0.16781  0.98577  0.51608  1.0000
  H   H147      1.0  0.16129  0.98714  0.52558  1.0000
  C   C200      1.0  0.03327  0.14433  0.52480  1.0000
  C   C201      1.0  0.04179  0.13976  0.53360  1.0000
  C   C202      1.0  0.04778  0.14869  0.53596  1.0000
  C   C203      1.0  0.04510  0.16221  0.52970  1.0000
  C   C204      1.0  0.03688  0.16662  0.52063  1.0000
  C   C205      1.0  0.03108  0.15770  0.51813  1.0000
  H   H148      1.0  0.04357  0.12944  0.53871  1.0000
  H   H149      1.0  0.05426  0.14521  0.54287  1.0000
  H   H150      1.0  0.03493  0.17693  0.51559  1.0000
  C   C206      1.0  0.02580  0.05847  0.49956  1.0000
  H   H151      1.0  0.04406  0.04205  0.52865  1.0000
  H   H152      1.0  0.06873  0.08188  0.54890  1.0000
  S   S38       1.0  0.00005  0.22351  0.54602  1.0000
  S   S39       1.0  0.13138  0.01208  0.50895  1.0000
  H   H153      1.0  0.16030  0.05022  0.55033  1.0000
  C   C207      1.0  0.07336  0.03247  0.55745  1.0000
  C   C208      1.0  0.06571  0.03430  0.56999  1.0000
  C   C209      1.0  0.05684  0.04639  0.57139  1.0000
  C   C210      1.0  0.05518  0.05667  0.56023  1.0000
  C   C211      1.0  0.06255  0.05480  0.54756  1.0000
  C   C212      1.0  0.07171  0.04272  0.54619  1.0000
  H   H154      1.0  0.06683  0.02641  0.57870  1.0000
  H   H155      1.0  0.05117  0.04773  0.58118  1.0000
  H   H156      1.0  0.06130  0.06268  0.53886  1.0000
  H   H157      1.0  0.07735  0.04127  0.53645  1.0000
  C   C213      1.0  0.01906  0.05252  0.51210  1.0000
  C   C214      1.0  0.00611  0.11953  0.56981  1.0000
  H   H158      1.0  0.00706  0.16977  0.49519  1.0000
  H   H159      1.0  0.99813  0.10999  0.58985  1.0000
  H   H160      1.0  0.11668  0.03044  0.55548  1.0000
  H   H161      1.0  0.19567  0.05798  0.50955  1.0000
  H   H162      1.0  0.21823  0.03041  0.58823  1.0000
  H   H163      1.0  0.08095  0.04561  0.58168  1.0000
  H   H164      1.0  0.16408  0.02168  0.51963  1.0000
  H   H165      1.0  0.13564  0.08174  0.55520  1.0000
  Fe  Fe19      1.0  0.22489  0.01881  0.50984  1.0000
  C   C215      1.0  0.17455  0.06183  0.51280  1.0000
  C   C216      1.0  0.23533  0.01805  0.60542  1.0000
  C   C217      1.0  0.99762  0.05243  0.48789  1.0000
  H   H166      1.0  0.08967  0.19519  0.49601  1.0000
  S   S40       1.0  0.10261  0.02522  0.48964  1.0000
  H   H167      1.0  0.17284  0.06566  0.52162  1.0000
  C   C218      1.0  0.18743  0.05742  0.50603  1.0000
  H   H168      1.0  0.09862  0.22934  0.52706  1.0000
  C   C219      1.0  0.99589  0.11690  0.58083  1.0000
  H   H169      1.0  0.14935  0.08565  0.53225  1.0000
  C   C220      1.0  0.00059  0.20741  0.49164  1.0000
  C   C221      1.0  0.08806  0.05985  0.56441  1.0000
  H   H170      1.0  0.11798  0.08291  0.51677  1.0000
  H   H171      1.0  0.00024  0.22378  0.51875  1.0000
  H   H172      1.0  0.00289  0.15519  0.53247  1.0000
  C   C222      1.0  0.08788  0.08971  0.50494  1.0000
  H   H173      1.0  0.00570  0.19216  0.50832  1.0000
  C   C223      1.0  0.09138  0.06614  0.52424  1.0000
  C   C224      1.0  0.13935  0.08449  0.53387  1.0000
  H   H174      1.0  0.16527  0.02321  0.48745  1.0000
  H   H175      1.0  0.18361  0.02086  0.52806  1.0000
  C   C225      1.0  0.15113  0.03637  0.53028  1.0000
  C   C226      1.0  0.13426  0.08495  0.52308  1.0000
  C   C227      1.0  0.03914  0.05851  0.49768  1.0000
  C   C228      1.0  0.00324  0.12833  0.55812  1.0000
  H   H176      1.0  0.04824  0.11046  0.49413  1.0000
  H   H177      1.0  0.18579  0.02527  0.50366  1.0000
  C   C229      1.0  0.08767  0.10241  0.54900  1.0000
  C   C230      1.0  0.16114  0.04382  0.54380  1.0000
  C   C231      1.0  0.17334  0.03557  0.53968  1.0000
  C   C232      1.0  0.16316  0.02764  0.52660  1.0000
  H   H178      1.0  0.12722  0.06195  0.50024  1.0000
  S   S41       1.0  0.22425  0.01838  0.54618  1.0000
  C   C233      1.0  0.07756  0.11288  0.55295  1.0000
  Fe  Fe20      1.0  0.10156  0.01536  0.53864  1.0000
  H   H179      1.0  0.15769  0.05336  0.49525  1.0000
  H   H180      1.0  0.05107  0.10007  0.55640  1.0000
  H   H181      1.0  0.99388  0.07947  0.50045  1.0000
  H   H182      1.0  0.14515  0.02194  0.48188  1.0000
  C   C234      1.0  0.00303  0.16109  0.50005  1.0000
  C   C235      1.0  0.11879  0.08061  0.54896  1.0000
  H   H183      1.0  0.05654  0.12014  0.55872  1.0000
  H   H184      1.0  0.98736  0.06139  0.55403  1.0000
  C   C236      1.0  0.04936  0.10824  0.48460  1.0000
  H   H185      1.0  0.14100  0.05129  0.54171  1.0000
  H   H186      1.0  0.11583  0.05258  0.54061  1.0000
  H   H187      1.0  0.09778  0.10334  0.54683  1.0000
  C   C237      1.0  0.99873  0.19627  0.50190  1.0000
  H   H188      1.0  0.04443  0.06336  0.48821  1.0000
  C   C238      1.0  0.07790  0.18049  0.50273  1.0000
  C   C239      1.0  0.21237  0.04747  0.55786  1.0000
  H   H189      1.0  0.09441  0.21842  0.49313  1.0000
  H   H190      1.0  0.09149  0.99689  0.49551  1.0000
  H   H191      1.0  0.07298  0.22061  0.48748  1.0000
  C   C240      1.0  0.07269  0.17192  0.49902  1.0000
  H   H192      1.0  0.07989  0.06780  0.56708  1.0000
  C   C241      1.0  0.16610  0.05480  0.49782  1.0000
  C   C242      1.0  0.99045  0.22344  0.52479  1.0000
  C   C243      1.0  0.98785  0.19070  0.50390  1.0000
  C   C244      1.0  0.07934  0.13991  0.49997  1.0000
  S   S42       1.0  0.13838  0.03999  0.52167  1.0000
  H   H193      1.0  0.07556  0.18114  0.51310  1.0000
  H   H194      1.0  0.20435  0.05135  0.55265  1.0000
  H   H195      1.0  0.12037  0.04491  0.49388  1.0000
  H   H196      1.0  0.06631  0.16608  0.50662  1.0000
  C   C245      1.0  0.10876  0.03866  0.55804  1.0000
  C   C246      1.0  0.11920  0.07807  0.48539  1.0000
  C   C247      1.0  0.17902  0.05036  0.49097  1.0000
  C   C248      1.0  0.19064  0.01951  0.49616  1.0000
  H   H197      1.0  0.08728  0.12496  0.51557  1.0000
  H   H198      1.0  0.99007  0.12908  0.51831  1.0000
  H   H199      1.0  0.06911  0.11303  0.52170  1.0000
  H   H200      1.0  0.05101  0.12132  0.50950  1.0000
  C   C249      1.0  0.17427  0.02729  0.53124  1.0000
  S   S43       1.0  0.22338  0.02120  0.48884  1.0000
  C   C250      1.0  0.02084  0.09001  0.48590  1.0000
  C   C251      1.0  0.19740  0.00646  0.50012  1.0000
  P   P6        1.0  0.09734  0.07794  0.54139  1.0000
  H   H201      1.0  0.19766  0.00235  0.51051  1.0000
  H   H202      1.0  0.15923  0.00483  0.50537  1.0000
  C   C252      1.0  0.23329  0.03652  0.57110  1.0000
  S   S44       1.0  0.21150  0.00835  0.52705  1.0000
  C   C253      1.0  0.99345  0.13811  0.51305  1.0000
  C   C254      1.0  0.13162  0.08231  0.54681  1.0000
  H   H203      1.0  0.09227  0.05703  0.53175  1.0000
  C   C255      1.0  0.04470  0.17916  0.48576  1.0000
  C   C256      1.0  0.06128  0.10079  0.55430  1.0000
  H   H204      1.0  0.20000  0.03996  0.57644  1.0000
  Fe  Fe21      1.0  0.01383  0.09021  0.53040  1.0000
  C   C257      1.0  0.09721  0.23208  0.51695  1.0000
  H   H205      1.0  0.01176  0.17587  0.55656  1.0000
  C   C258      1.0  0.00113  0.16420  0.53589  1.0000
  C   C259      1.0  0.00778  0.16415  0.54538  1.0000
  C   C260      1.0  0.06437  0.11205  0.55564  1.0000
  H   H206      1.0  0.15396  0.06337  0.51426  1.0000
  H   H207      1.0  0.08322  0.07815  0.49409  1.0000
  C   C261      1.0  0.98760  0.14987  0.51756  1.0000
  H   H208      1.0  0.09908  0.02676  0.57583  1.0000
  C   C262      1.0  0.08868  0.04725  0.57283  1.0000
  H   H209      1.0  0.05584  0.05306  0.50683  1.0000
  C   C263      1.0  0.09342  0.07771  0.52619  1.0000
  H   H210      1.0  0.11297  0.07870  0.55907  1.0000
  H   H211      1.0  0.00867  0.21197  0.49044  1.0000
  C   C264      1.0  0.08462  0.09103  0.54771  1.0000
  C   C265      1.0  0.09157  0.08952  0.51650  1.0000
  C   C266      1.0  0.06928  0.12169  0.51357  1.0000
  C   C267      1.0  0.15015  0.04433  0.53902  1.0000
  Fe  Fe22      1.0  0.10988  0.01857  0.50873  1.0000
  H   H212      1.0  0.01451  0.15520  0.54912  1.0000
  C   C268      1.0  0.00627  0.17578  0.54955  1.0000
  H   H213      1.0  0.09823  0.21208  0.51608  1.0000
  Fe  Fe23      1.0  0.02023  0.21789  0.53334  1.0000
  H   H214      1.0  0.07991  0.12168  0.55391  1.0000
  C   C269      1.0  0.99017  0.13444  0.55740  1.0000
  Fe  Fe24      1.0  0.04788  0.22314  0.52344  1.0000
  H   H215      1.0  0.09282  0.09859  0.51799  1.0000
  C   C270      1.0  0.04568  0.05255  0.50815  1.0000
  C   C271      1.0  0.16653  0.99571  0.50463  1.0000
  C   C272      1.0  0.20994  0.04099  0.57129  1.0000
  H   H216      1.0  0.12530  0.00351  0.48957  1.0000
  C   C273      1.0  0.18968  0.05174  0.49512  1.0000
  C   C274      1.0  0.00890  0.14931  0.49560  1.0000
  C   C275      1.0  0.05879  0.13788  0.49671  1.0000
  H   H217      1.0  0.02460  0.16128  0.51122  1.0000
  C   C276      1.0  0.12197  0.06483  0.49224  1.0000
  C   C277      1.0  0.07547  0.17106  0.48563  1.0000
  C   C278      1.0  0.08581  0.18844  0.49308  1.0000
  C   C279      1.0  0.11361  0.08104  0.53818  1.0000
  H   H218      1.0  0.08611  0.09891  0.49765  1.0000
  S   S45       1.0  0.02408  0.10372  0.51330  1.0000
  H   H219      1.0  0.19975  0.04794  0.49024  1.0000
  C   C280      1.0  0.08780  0.06633  0.51262  1.0000
  H   H220      1.0  0.08608  0.05742  0.51120  1.0000
  Fe  Fe25      1.0  0.12522  0.99606  0.52638  1.0000
  C   C281      1.0  0.16391  0.06059  0.50863  1.0000
  C   C282      1.0  0.07134  0.09041  0.55018  1.0000
  P   P7        1.0  0.01789  0.06501  0.48558  1.0000
  S   S46       1.0  0.02445  0.13402  0.52240  1.0000
  C   C283      1.0  0.00409  0.13784  0.50208  1.0000
  S   S47       1.0  0.02823  0.22554  0.48529  1.0000
  C   C284      1.0  0.22034  0.03555  0.57791  1.0000
  H   H221      1.0  0.00890  0.12862  0.49889  1.0000
  H   H222      1.0  0.08554  0.05990  0.48364  1.0000
  H   H223      1.0  0.02040  0.04214  0.53223  1.0000
  C   C285      1.0  0.99114  0.18746  0.53502  1.0000
  C   C286      1.0  0.11805  0.05522  0.48872  1.0000
  Fe  Fe26      1.0  0.22906  0.00123  0.53637  1.0000
  C   C287      1.0  0.98761  0.22371  0.53830  1.0000
  C   C288      1.0  0.99289  0.17592  0.53049  1.0000
  H   H224      1.0  0.01747  0.14892  0.48742  1.0000
  H   H225      1.0  0.02727  0.19447  0.48832  1.0000
  H   H226      1.0  0.21029  0.98921  0.49362  1.0000
  H   H227      1.0  0.02485  0.08533  0.49470  1.0000
  C   C289      1.0  0.09328  0.99278  0.48683  1.0000
  H   H228      1.0  0.23412  0.01033  0.60147  1.0000
  C   C290      1.0  0.99140  0.07144  0.49802  1.0000
  H   H229      1.0  0.17351  0.00144  0.48338  1.0000
  H   H230      1.0  0.08723  0.14511  0.49753  1.0000
  H   H231      1.0  0.04934  0.18286  0.49126  1.0000
  C   C291      1.0  0.00110  0.06285  0.49066  1.0000
  C   C292      1.0  0.99186  0.21290  0.48310  1.0000
  C   C293      1.0  0.05359  0.09509  0.48312  1.0000
  C   C294      1.0  0.23076  0.01772  0.61906  1.0000
  H   H232      1.0  0.07024  0.04569  0.48725  1.0000
  H   H233      1.0  0.02783  0.03674  0.48645  1.0000
  C   C295      1.0  0.06885  0.14487  0.49335  1.0000
  H   H234      1.0  0.98810  0.14114  0.54822  1.0000
  H   H235      1.0  0.22850  0.02742  0.63491  1.0000
  C   C296      1.0  0.20438  0.99897  0.49061  1.0000
  H   H236      1.0  0.22614  0.00977  0.62554  1.0000
  H   H237      1.0  0.00478  0.04573  0.48216  1.0000
  H   H238      1.0  0.02321  0.10930  0.48561  1.0000
  P   P8        1.0  0.06816  0.16029  0.48101  1.0000
  C   C297      1.0  0.01988  0.10364  0.48083  1.0000
  Fe  Fe27      1.0  0.13453  0.42152  0.00755  1.0000
  S   S48       1.0  0.14723  0.43382  0.00947  1.0000
  S   S49       1.0  0.11306  0.42714  0.01730  1.0000
  H   H239      1.0  0.00885  0.43111  0.19378  1.0000
  H   H240      1.0  0.03812  0.39504  0.37690  1.0000
  Fe  Fe28      1.0  0.16253  0.41489  0.01190  1.0000
  S   S50       1.0  0.17207  0.40710  0.02967  1.0000
  H   H241      1.0  0.00610  0.41278  0.07238  1.0000
  C   C298      1.0  0.09698  0.33898  0.43882  1.0000
  S   S51       1.0  0.14915  0.40241  0.01156  1.0000
  H   H242      1.0  0.22232  0.39125  0.01876  1.0000
  Fe  Fe29      1.0  0.07227  0.40715  0.08496  1.0000
  S   S52       1.0  0.07705  0.42524  0.08718  1.0000
  S   S53       1.0  0.08838  0.39381  0.07312  1.0000
  Fe  Fe30      1.0  0.04369  0.41449  0.09965  1.0000
  S   S54       1.0  0.04624  0.43359  0.10222  1.0000
  C   C299      1.0  0.00749  0.43001  0.32853  1.0000
  Fe  Fe31      1.0  0.05799  0.43564  0.08108  1.0000
  H   H243      1.0  0.07526  0.38352  0.42773  1.0000
  Fe  Fe32      1.0  0.06495  0.42121  0.10805  1.0000
  S   S55       1.0  0.07086  0.42453  0.12525  1.0000
  S   S56       1.0  0.05361  0.41774  0.07787  1.0000
  S   S57       1.0  0.06201  0.40194  0.10653  1.0000
  H   H244      1.0  0.03580  0.46893  0.36311  1.0000
  C   C300      1.0  0.07356  0.32033  0.46600  1.0000
  H   H245      1.0  0.10375  0.45313  0.06349  1.0000
  C   C301      1.0  0.05328  0.24771  0.47215  1.0000
  H   H246      1.0  0.00535  0.27960  0.40676  1.0000
  H   H247      1.0  0.99700  0.24661  0.38517  1.0000
  Fe  Fe33      1.0  0.03933  0.41518  0.19730  1.0000
  S   S58       1.0  0.03860  0.43640  0.18717  1.0000
  S   S59       1.0  0.04019  0.40211  0.18374  1.0000
  Fe  Fe34      1.0  0.03803  0.42048  0.22448  1.0000
  S   S60       1.0  0.03691  0.44234  0.21610  1.0000
  S   S61       1.0  0.03813  0.41040  0.24618  1.0000
  Fe  Fe35      1.0  0.02288  0.44090  0.20481  1.0000
  H   H248      1.0  0.03923  0.37080  0.38307  1.0000
  Fe  Fe36      1.0  0.05267  0.43556  0.19921  1.0000
  C   C302      1.0  0.99355  0.44786  0.19863  1.0000
  S   S62       1.0  0.02258  0.41958  0.21455  1.0000
  S   S63       1.0  0.05475  0.41381  0.20814  1.0000
  C   C303      1.0  0.01237  0.43431  0.31489  1.0000
  C   C304      1.0  0.00052  0.40541  0.11084  1.0000
  S   S64       1.0  0.06249  0.24837  0.38013  1.0000
  S   S65       1.0  0.00437  0.24534  0.41899  1.0000
  Fe  Fe37      1.0  0.06137  0.44021  0.32428  1.0000
  S   S66       1.0  0.04433  0.44666  0.31431  1.0000
  S   S67       1.0  0.06906  0.45304  0.33243  1.0000
  Fe  Fe38      1.0  0.06439  0.41083  0.32534  1.0000
  S   S68       1.0  0.04762  0.41491  0.31524  1.0000
  S   S69       1.0  0.07455  0.38940  0.33157  1.0000
  Fe  Fe39      1.0  0.05613  0.43192  0.30170  1.0000
  S   S70       1.0  0.05733  0.43892  0.27956  1.0000
  Fe  Fe40      1.0  0.03741  0.42908  0.32865  1.0000
  S   S71       1.0  0.01662  0.42909  0.33995  1.0000
  S   S72       1.0  0.07395  0.42678  0.31057  1.0000
  S   S73       1.0  0.05340  0.42375  0.33980  1.0000
  Fe  Fe41      1.0  0.04193  0.32744  0.42294  1.0000
  S   S74       1.0  0.05857  0.33525  0.42378  1.0000
  S   S75       1.0  0.02410  0.32922  0.43977  1.0000
  Fe  Fe42      1.0  0.05734  0.31620  0.39878  1.0000
  S   S76       1.0  0.07566  0.32285  0.39784  1.0000
  S   S77       1.0  0.05473  0.30839  0.38242  1.0000
  Fe  Fe43      1.0  0.07095  0.31574  0.42021  1.0000
  S   S78       1.0  0.08629  0.30511  0.43239  1.0000
  Fe  Fe44      1.0  0.06176  0.34195  0.40155  1.0000
  S   S79       1.0  0.06514  0.36285  0.39343  1.0000
  S   S80       1.0  0.05404  0.30724  0.42071  1.0000
  S   S81       1.0  0.04380  0.33590  0.40097  1.0000
  C   C305      1.0  0.01029  0.33869  0.43356  1.0000
  H   H249      1.0  0.99352  0.41852  0.19256  1.0000
  H   H250      1.0  0.02164  0.34835  0.41545  1.0000
  C   C306      1.0  0.02359  0.47540  0.04187  1.0000
  C   C307      1.0  0.07159  0.38208  0.34879  1.0000
  C   C308      1.0  0.06942  0.38960  0.35825  1.0000
  C   C309      1.0  0.06769  0.38350  0.37187  1.0000
  C   C310      1.0  0.06781  0.36990  0.37617  1.0000
  C   C311      1.0  0.06981  0.36237  0.36675  1.0000
  C   C312      1.0  0.07186  0.36843  0.35307  1.0000
  H   H251      1.0  0.06947  0.40005  0.35503  1.0000
  H   H252      1.0  0.06623  0.38935  0.37911  1.0000
  H   H253      1.0  0.06995  0.35187  0.36998  1.0000
  H   H254      1.0  0.07369  0.36254  0.34579  1.0000
  C   C313      1.0  0.02787  0.27318  0.37874  1.0000
  H   H255      1.0  0.02209  0.43645  0.31130  1.0000
  H   H256      1.0  0.02936  0.44817  0.00712  1.0000
  C   C314      1.0  0.00751  0.37509  0.17967  1.0000
  C   C315      1.0  0.01198  0.34704  0.42094  1.0000
  C   C316      1.0  0.08544  0.30995  0.44715  1.0000
  C   C317      1.0  0.09816  0.44868  0.98933  1.0000
  H   H257      1.0  0.10588  0.30089  0.44695  1.0000
  H   H258      1.0  0.06486  0.31965  0.45035  1.0000
  C   C318      1.0  0.06008  0.26484  0.38169  1.0000
  C   C319      1.0  0.05250  0.26940  0.39317  1.0000
  C   C320      1.0  0.05123  0.28264  0.39390  1.0000
  C   C321      1.0  0.05728  0.29134  0.38300  1.0000
  C   C322      1.0  0.06455  0.28677  0.37151  1.0000
  C   C323      1.0  0.06612  0.27357  0.37094  1.0000
  H   H259      1.0  0.04774  0.26270  0.40145  1.0000
  H   H260      1.0  0.04534  0.28618  0.40271  1.0000
  H   H261      1.0  0.06907  0.29347  0.36298  1.0000
  H   H262      1.0  0.07194  0.27015  0.36204  1.0000
  C   C324      1.0  0.04320  0.41841  0.25561  1.0000
  C   C325      1.0  0.04462  0.41203  0.26867  1.0000
  C   C326      1.0  0.04876  0.41823  0.27629  1.0000
  C   C327      1.0  0.05159  0.43080  0.27080  1.0000
  C   C328      1.0  0.04996  0.43723  0.25787  1.0000
  C   C329      1.0  0.04577  0.43109  0.25032  1.0000
  H   H263      1.0  0.04270  0.40220  0.27282  1.0000
  H   H264      1.0  0.04995  0.41320  0.28628  1.0000
  H   H265      1.0  0.05202  0.44699  0.25368  1.0000
  H   H266      1.0  0.04470  0.43610  0.24035  1.0000
  C   C330      1.0  0.99428  0.28141  0.46442  1.0000
  H   H267      1.0  0.01228  0.36477  0.18258  1.0000
  C   C331      1.0  0.03703  0.28387  0.45077  1.0000
  H   H268      1.0  0.99527  0.25088  0.34559  1.0000
  H   H269      1.0  0.06459  0.32575  0.47134  1.0000
  C   C332      1.0  0.06256  0.41775  0.14142  1.0000
  C   C333      1.0  0.06445  0.42104  0.15241  1.0000
  C   C334      1.0  0.05781  0.41608  0.16539  1.0000
  C   C335      1.0  0.04929  0.40765  0.16752  1.0000
  C   C336      1.0  0.04781  0.40390  0.15658  1.0000
  C   C337      1.0  0.05424  0.40913  0.14353  1.0000
  H   H270      1.0  0.07104  0.42748  0.15088  1.0000
  H   H271      1.0  0.05949  0.41863  0.17375  1.0000
  H   H272      1.0  0.04151  0.39713  0.15817  1.0000
  H   H273      1.0  0.05280  0.40641  0.13513  1.0000
  H   H274      1.0  0.03684  0.24174  0.34361  1.0000
  H   H275      1.0  0.06629  0.29403  0.45634  1.0000
  C   C338      1.0  0.08559  0.34718  0.42071  1.0000
  H   H276      1.0  0.99174  0.37065  0.17439  1.0000
  C   C339      1.0  0.01188  0.37581  0.34156  1.0000
  C   C340      1.0  0.10679  0.41761  0.03288  1.0000
  C   C341      1.0  0.11212  0.40405  0.03678  1.0000
  C   C342      1.0  0.10640  0.39671  0.04912  1.0000
  C   C343      1.0  0.09552  0.40297  0.05765  1.0000
  C   C344      1.0  0.09032  0.41654  0.05374  1.0000
  C   C345      1.0  0.09590  0.42379  0.04138  1.0000
  H   H277      1.0  0.12046  0.39919  0.03021  1.0000
  H   H278      1.0  0.11033  0.38618  0.05202  1.0000
  H   H279      1.0  0.08182  0.42145  0.06009  1.0000
  H   H280      1.0  0.09179  0.43425  0.03842  1.0000
  C   C346      1.0  0.18718  0.40940  0.03083  1.0000
  C   C347      1.0  0.19303  0.40080  0.04107  1.0000
  C   C348      1.0  0.20475  0.40231  0.04293  1.0000
  C   C349      1.0  0.21100  0.41228  0.03440  1.0000
  C   C350      1.0  0.20527  0.42092  0.02399  1.0000
  C   C351      1.0  0.19323  0.41957  0.02233  1.0000
  H   H281      1.0  0.18857  0.39279  0.04754  1.0000
  H   H282      1.0  0.20912  0.39559  0.05093  1.0000
  H   H283      1.0  0.20999  0.42871  0.01740  1.0000
  H   H284      1.0  0.18851  0.42644  0.01470  1.0000
  C   C352      1.0  0.00012  0.47699  0.14650  1.0000
  H   H285      1.0  0.07526  0.39892  0.04103  1.0000
  H   H286      1.0  0.99141  0.42325  0.34353  1.0000
  H   H287      1.0  0.16877  0.45098  0.99486  1.0000
  H   H288      1.0  0.01515  0.47518  0.22981  1.0000
  C   C353      1.0  0.05088  0.33243  0.35228  1.0000
  C   C354      1.0  0.04291  0.32431  0.35209  1.0000
  C   C355      1.0  0.03107  0.32998  0.34787  1.0000
  C   C356      1.0  0.02699  0.34379  0.34424  1.0000
  C   C357      1.0  0.03457  0.35204  0.34517  1.0000
  C   C358      1.0  0.04686  0.34623  0.34860  1.0000
  P   P9        1.0  0.02937  0.36991  0.34085  1.0000
  C   C359      1.0  0.03864  0.37499  0.32418  1.0000
  C   C360      1.0  0.13781  0.43765  0.07007  1.0000
  H   H289      1.0  0.10322  0.45076  0.27577  1.0000
  C   C361      1.0  0.04648  0.47998  0.06125  1.0000
  C   C362      1.0  0.08518  0.31708  0.47069  1.0000
  C   C363      1.0  0.16389  0.46131  0.99238  1.0000
  C   C364      1.0  0.04586  0.40122  0.42037  1.0000
  C   C365      1.0  0.05068  0.37850  0.32221  1.0000
  C   C366      1.0  0.05795  0.38240  0.30931  1.0000
  C   C367      1.0  0.05330  0.38271  0.29828  1.0000
  C   C368      1.0  0.04145  0.37892  0.30016  1.0000
  C   C369      1.0  0.03419  0.37494  0.31307  1.0000
  C   C370      1.0  0.03249  0.37767  0.35226  1.0000
  C   C371      1.0  0.20671  0.38481  0.01524  1.0000
  C   C372      1.0  0.02513  0.44271  0.36145  1.0000
  C   C373      1.0  0.03623  0.39025  0.37020  1.0000
  C   C374      1.0  0.03356  0.39764  0.35791  1.0000
  C   C375      1.0  0.03164  0.39141  0.34898  1.0000
  H   H290      1.0  0.06012  0.32800  0.35547  1.0000
  H   H291      1.0  0.04600  0.31362  0.35521  1.0000
  H   H292      1.0  0.02506  0.32366  0.34743  1.0000
  H   H293      1.0  0.01794  0.34796  0.34072  1.0000
  H   H294      1.0  0.05325  0.35235  0.34868  1.0000
  C   C376      1.0  0.00310  0.44985  0.23791  1.0000
  H   H295      1.0  0.15441  0.42188  0.06524  1.0000
  C   C377      1.0  0.08308  0.46318  0.18277  1.0000
  C   C378      1.0  0.09373  0.46942  0.29261  1.0000
  H   H296      1.0  0.00610  0.36034  0.35838  1.0000
  H   H297      1.0  0.05447  0.37821  0.33064  1.0000
  H   H298      1.0  0.06717  0.38525  0.30793  1.0000
  H   H299      1.0  0.05892  0.38585  0.28830  1.0000
  H   H300      1.0  0.03792  0.37903  0.29160  1.0000
  H   H301      1.0  0.02511  0.37187  0.31438  1.0000
  C   C379      1.0  0.98821  0.30908  0.43539  1.0000
  H   H302      1.0  0.10515  0.33249  0.44300  1.0000
  C   C380      1.0  0.01799  0.29669  0.37596  1.0000
  H   H303      1.0  0.03309  0.40819  0.35522  1.0000
  H   H304      1.0  0.02955  0.39735  0.33950  1.0000
  H   H305      1.0  0.99217  0.42303  0.36549  1.0000
  C   C381      1.0  0.01217  0.38952  0.23038  1.0000
  H   H306      1.0  0.07675  0.45142  0.12109  1.0000
  H   H307      1.0  0.99891  0.40331  0.12158  1.0000
  C   C382      1.0  0.21097  0.40200  0.99000  1.0000
  P   P10       1.0  0.06312  0.36561  0.45098  1.0000
  C   C383      1.0  0.00451  0.41081  0.08312  1.0000
  H   H308      1.0  0.09154  0.40215  0.01952  1.0000
  C   C384      1.0  0.07135  0.45883  0.18865  1.0000
  H   H309      1.0  0.02877  0.28143  0.44892  1.0000
  H   H310      1.0  0.99477  0.48191  0.09691  1.0000
  C   C385      1.0  0.02314  0.45833  0.27872  1.0000
  H   H311      1.0  0.00509  0.39751  0.22584  1.0000
  H   H312      1.0  0.11742  0.25349  0.47856  1.0000
  C   C386      1.0  0.03364  0.37456  0.22763  1.0000
  H   H313      1.0  0.09164  0.45671  0.17806  1.0000
  H   H314      1.0  0.06722  0.36116  0.42404  1.0000
  C   C387      1.0  0.00326  0.38949  0.38913  1.0000
  C   C388      1.0  0.03387  0.45029  0.36104  1.0000
  H   H315      1.0  0.22574  0.40665  0.99705  1.0000
  H   H316      1.0  0.12783  0.43794  0.19801  1.0000
  C   C389      1.0  0.99238  0.40823  0.09109  1.0000
  H   H317      1.0  0.09139  0.42439  0.00516  1.0000
  H   H318      1.0  0.20261  0.45601  0.01324  1.0000
  C   C390      1.0  0.01454  0.41099  0.08903  1.0000
  S   S82       1.0  0.05899  0.45381  0.06444  1.0000
  C   C391      1.0  0.08694  0.34693  0.44647  1.0000
  H   H319      1.0  0.07921  0.46750  0.04412  1.0000
  H   H320      1.0  0.04122  0.36657  0.41086  1.0000
  C   C392      1.0  0.05949  0.39722  0.41932  1.0000
  C   C393      1.0  0.99912  0.40883  0.28635  1.0000
  C   C394      1.0  0.00280  0.41915  0.42302  1.0000
  H   H321      1.0  0.02098  0.26094  0.39773  1.0000
  H   H322      1.0  0.99925  0.27983  0.45451  1.0000
  H   H323      1.0  0.07944  0.45334  0.27687  1.0000
  C   C395      1.0  0.01891  0.37333  0.24944  1.0000
  C   C396      1.0  0.99226  0.45305  0.08322  1.0000
  H   H324      1.0  0.11863  0.45272  0.00787  1.0000
  C   C397      1.0  0.01049  0.47529  0.04857  1.0000
  C   C398      1.0  0.00165  0.23654  0.36259  1.0000
  C   C399      1.0  0.00880  0.39601  0.26928  1.0000
  H   H325      1.0  0.13634  0.43364  0.08072  1.0000
  C   C400      1.0  0.01242  0.42987  0.13912  1.0000
  H   H326      1.0  0.00250  0.36004  0.40556  1.0000
  H   H327      1.0  0.02380  0.41317  0.08288  1.0000
  C   C401      1.0  0.01959  0.26144  0.43219  1.0000
  H   H328      1.0  0.07710  0.47681  0.23430  1.0000
  C   C402      1.0  0.01484  0.25215  0.45586  1.0000
  C   C403      1.0  0.02744  0.25260  0.45645  1.0000
  C   C404      1.0  0.03631  0.25725  0.44485  1.0000
  C   C405      1.0  0.03214  0.26200  0.43276  1.0000
  P   P11       1.0  0.05203  0.25931  0.44567  1.0000
  C   C406      1.0  0.06318  0.25846  0.42964  1.0000
  H   H329      1.0  0.19387  0.42870  0.99177  1.0000
  H   H330      1.0  0.10988  0.43289  0.21742  1.0000
  C   C407      1.0  0.99547  0.41336  0.38519  1.0000
  C   C408      1.0  0.07753  0.26829  0.40961  1.0000
  C   C409      1.0  0.06941  0.26893  0.42223  1.0000
  C   C410      1.0  0.04947  0.27514  0.44972  1.0000
  C   C411      1.0  0.05811  0.29109  0.45497  1.0000
  C   C412      1.0  0.05995  0.27875  0.45206  1.0000
  H   H331      1.0  0.07093  0.44936  0.10139  1.0000
  C   C413      1.0  0.04807  0.34681  0.45598  1.0000
  C   C414      1.0  0.10901  0.46916  0.19754  1.0000
  H   H332      1.0  0.21027  0.46165  0.98864  1.0000
  H   H333      1.0  0.03855  0.26617  0.42374  1.0000
  H   H334      1.0  0.07045  0.38995  0.45150  1.0000
  C   C415      1.0  0.11971  0.44588  0.20092  1.0000
  S   S83       1.0  0.17167  0.41730  0.99004  1.0000
  H   H335      1.0  0.08201  0.27655  0.40378  1.0000
  H   H336      1.0  0.06785  0.27773  0.42594  1.0000
  H   H337      1.0  0.01679  0.46998  0.13148  1.0000
  C   C416      1.0  0.00260  0.38980  0.37618  1.0000
  H   H338      1.0  0.06962  0.27215  0.45132  1.0000
  C   C417      1.0  0.02421  0.38486  0.22219  1.0000
  H   H339      1.0  0.00546  0.46218  0.32166  1.0000
  C   C418      1.0  0.00107  0.44456  0.26533  1.0000
  H   H340      1.0  0.01856  0.45855  0.17166  1.0000
  C   C419      1.0  0.02795  0.36438  0.43003  1.0000
  C   C420      1.0  0.99543  0.45952  0.24507  1.0000
  C   C421      1.0  0.99180  0.43377  0.31050  1.0000
  C   C422      1.0  0.04574  0.29973  0.45599  1.0000
  C   C423      1.0  0.99252  0.23752  0.43086  1.0000
  C   C424      1.0  0.00110  0.35388  0.41543  1.0000
  C   C425      1.0  0.02702  0.24036  0.34887  1.0000
  C   C426      1.0  0.07947  0.25725  0.40427  1.0000
  H   H341      1.0  0.01392  0.39338  0.32576  1.0000
  C   C427      1.0  0.01913  0.46785  0.32891  1.0000
  C   C428      1.0  0.07375  0.31696  0.45409  1.0000
  H   H342      1.0  0.17024  0.46691  0.00698  1.0000
  C   C429      1.0  0.98924  0.37389  0.35196  1.0000
  H   H343      1.0  0.00404  0.45171  0.22729  1.0000
  C   C430      1.0  0.09684  0.30633  0.45219  1.0000
  P   P12       1.0  0.99039  0.46606  0.14592  1.0000
  H   H344      1.0  0.02302  0.41414  0.15210  1.0000
  H   H345      1.0  0.01277  0.36445  0.44795  1.0000
  C   C431      1.0  0.04189  0.36062  0.47208  1.0000
  C   C432      1.0  0.04585  0.46693  0.06807  1.0000
  C   C433      1.0  0.01679  0.42401  0.15094  1.0000
  H   H346      1.0  0.01406  0.42573  0.26301  1.0000
  C   C434      1.0  0.07323  0.24687  0.41152  1.0000
  H   H347      1.0  0.01773  0.41686  0.39088  1.0000
  C   C435      1.0  0.15003  0.43619  0.04764  1.0000
  C   C436      1.0  0.01539  0.46842  0.36583  1.0000
  H   H348      1.0  0.06609  0.40203  0.41091  1.0000
  H   H349      1.0  0.01661  0.26470  0.42277  1.0000
  C   C437      1.0  0.05128  0.46731  0.14886  1.0000
  H   H350      1.0  0.98629  0.45083  0.41693  1.0000
  C   C438      1.0  0.99303  0.47529  0.11813  1.0000
  C   C439      1.0  0.98726  0.42873  0.32404  1.0000
  H   H351      1.0  0.01544  0.42453  0.13115  1.0000
  C   C440      1.0  0.01073  0.38644  0.41819  1.0000
  H   H352      1.0  0.00815  0.43971  0.29535  1.0000
  H   H353      1.0  0.01980  0.47209  0.00662  1.0000
  H   H354      1.0  0.18613  0.47635  0.05267  1.0000
  H   H355      1.0  0.01982  0.40028  0.28089  1.0000
  H   H356      1.0  0.03830  0.36075  0.24543  1.0000
  H   H357      1.0  0.99844  0.40206  0.35754  1.0000
  C   C441      1.0  0.20075  0.47317  0.02074  1.0000
  H   H358      1.0  0.19463  0.39574  0.98729  1.0000
  C   C442      1.0  0.13121  0.45451  0.05123  1.0000
  H   H359      1.0  0.12741  0.46116  0.18528  1.0000
  H   H360      1.0  0.10581  0.30770  0.46718  1.0000
  H   H361      1.0  0.01696  0.36873  0.25997  1.0000
  H   H362      1.0  0.06995  0.35071  0.47637  1.0000
  H   H363      1.0  0.04646  0.47274  0.26899  1.0000
  H   H364      1.0  0.08911  0.43194  0.16602  1.0000
  C   C443      1.0  0.00439  0.44261  0.13752  1.0000
  H   H365      1.0  0.99653  0.41446  0.43186  1.0000
  H   H366      1.0  0.10404  0.48237  0.24762  1.0000
  C   C444      1.0  0.08579  0.47737  0.28381  1.0000
  C   C445      1.0  0.00872  0.43506  0.25808  1.0000
  P   P13       1.0  0.08623  0.44970  0.23039  1.0000
  C   C446      1.0  0.08350  0.43343  0.23218  1.0000
  C   C447      1.0  0.09174  0.45043  0.24457  1.0000
  C   C448      1.0  0.10517  0.44904  0.24399  1.0000
  C   C449      1.0  0.10927  0.44933  0.25517  1.0000
  H   H367      1.0  0.05806  0.44060  0.03366  1.0000
  H   H368      1.0  0.04303  0.37115  0.22126  1.0000
  H   H369      1.0  0.02630  0.38936  0.21162  1.0000
  C   C450      1.0  0.08329  0.42939  0.22087  1.0000
  C   C451      1.0  0.08034  0.41720  0.22217  1.0000
  C   C452      1.0  0.07744  0.40899  0.23477  1.0000
  C   C453      1.0  0.07780  0.41286  0.24607  1.0000
  C   C454      1.0  0.08084  0.42502  0.24480  1.0000
  C   C455      1.0  0.03505  0.37033  0.36472  1.0000
  H   H370      1.0  0.02561  0.30282  0.45475  1.0000
  C   C456      1.0  0.99839  0.43537  0.19552  1.0000
  C   C457      1.0  0.00351  0.24539  0.35011  1.0000
  C   C458      1.0  0.00448  0.43622  0.30586  1.0000
  C   C459      1.0  0.99459  0.33555  0.39028  1.0000
  H   H371      1.0  0.01059  0.28687  0.46770  1.0000
  C   C460      1.0  0.07611  0.35512  0.44127  1.0000
  H   H372      1.0  0.01481  0.35714  0.38067  1.0000
  C   C461      1.0  0.20106  0.39473  0.99374  1.0000
  C   C462      1.0  0.09830  0.46331  0.06206  1.0000
  H   H373      1.0  0.11254  0.44758  0.23501  1.0000
  H   H374      1.0  0.11965  0.44808  0.25475  1.0000
  H   H375      1.0  0.98707  0.26121  0.40101  1.0000
  H   H376      1.0  0.03437  0.45435  0.08333  1.0000
  C   C463      1.0  0.01254  0.40824  0.10293  1.0000
  H   H377      1.0  0.08505  0.43583  0.21105  1.0000
  H   H378      1.0  0.08001  0.41430  0.21338  1.0000
  H   H379      1.0  0.07465  0.39977  0.23582  1.0000
  H   H380      1.0  0.07528  0.40663  0.25587  1.0000
  H   H381      1.0  0.08064  0.42796  0.25374  1.0000
  H   H382      1.0  0.08496  0.34714  0.41078  1.0000
  S   S84       1.0  0.02443  0.40874  0.11098  1.0000
  C   C464      1.0  0.07913  0.44913  0.15378  1.0000
  C   C465      1.0  0.00961  0.43765  0.24441  1.0000
  H   H383      1.0  0.06121  0.44904  0.22462  1.0000
  C   C466      1.0  0.00399  0.32373  0.38886  1.0000
  H   H384      1.0  0.03484  0.26494  0.37491  1.0000
  C   C467      1.0  0.02075  0.46371  0.26594  1.0000
  H   H385      1.0  0.03577  0.35976  0.36763  1.0000
  H   H386      1.0  0.10870  0.47928  0.19191  1.0000
  C   C468      1.0  0.00660  0.46116  0.36545  1.0000
  C   C469      1.0  0.11951  0.46126  0.01074  1.0000
  C   C470      1.0  0.00278  0.36918  0.35131  1.0000
  C   C471      1.0  0.01291  0.38503  0.18068  1.0000
  C   C472      1.0  0.08034  0.45884  0.14189  1.0000
  H   H387      1.0  0.08764  0.34639  0.45648  1.0000
  H   H388      1.0  0.12150  0.47324  0.99079  1.0000
  H   H389      1.0  0.11101  0.43194  0.15060  1.0000
  C   C473      1.0  0.02948  0.34418  0.47460  1.0000
  H   H390      1.0  0.12197  0.45472  0.07194  1.0000
  C   C474      1.0  0.14171  0.44792  0.04257  1.0000
  S   S85       1.0  0.07139  0.44244  0.18918  1.0000
  C   C475      1.0  0.02469  0.47493  0.08168  1.0000
  H   H391      1.0  0.01758  0.39072  0.26357  1.0000
  C   C476      1.0  0.19890  0.38625  0.00632  1.0000
  C   C477      1.0  0.03531  0.45337  0.15602  1.0000
  C   C478      1.0  0.10383  0.44929  0.13642  1.0000
  H   H392      1.0  0.99580  0.36457  0.24840  1.0000
  H   H393      1.0  0.04347  0.46377  0.03793  1.0000
  Fe  Fe45      1.0  0.15716  0.40624  0.98937  1.0000
  C   C479      1.0  0.01047  0.29453  0.38908  1.0000
  H   H394      1.0  0.02191  0.38251  0.18430  1.0000
  C   C480      1.0  0.12108  0.47141  0.02769  1.0000
  S   S86       1.0  0.22576  0.41344  0.03752  1.0000
  H   H395      1.0  0.01548  0.43021  0.23884  1.0000
  H   H396      1.0  0.10381  0.33250  0.42026  1.0000
  C   C481      1.0  0.15234  0.37226  0.03246  1.0000
  C   C482      1.0  0.16609  0.36844  0.02937  1.0000
  C   C483      1.0  0.17335  0.36915  0.03798  1.0000
  C   C484      1.0  0.16688  0.37383  0.04961  1.0000
  C   C485      1.0  0.15309  0.37812  0.05254  1.0000
  C   C486      1.0  0.14586  0.37710  0.04398  1.0000
  P   P14       1.0  0.14434  0.38431  0.06738  1.0000
  C   C487      1.0  0.13497  0.37212  0.07756  1.0000
  C   C488      1.0  0.15531  0.38684  0.07593  1.0000
  C   C489      1.0  0.15410  0.38204  0.08974  1.0000
  C   C490      1.0  0.16253  0.38441  0.09619  1.0000
  C   C491      1.0  0.17207  0.39175  0.08895  1.0000
  C   C492      1.0  0.17306  0.39688  0.07529  1.0000
  C   C493      1.0  0.16461  0.39455  0.06884  1.0000
  C   C494      1.0  0.14154  0.35958  0.08354  1.0000
  C   C495      1.0  0.13442  0.34993  0.09117  1.0000
  C   C496      1.0  0.12073  0.35268  0.09269  1.0000
  C   C497      1.0  0.11420  0.36502  0.08646  1.0000
  C   C498      1.0  0.12129  0.37465  0.07883  1.0000
  C   C499      1.0  0.13407  0.40053  0.06300  1.0000
  C   C500      1.0  0.12388  0.40586  0.07277  1.0000
  C   C501      1.0  0.11567  0.41827  0.06932  1.0000
  C   C502      1.0  0.11784  0.42560  0.05620  1.0000
  C   C503      1.0  0.12834  0.42064  0.04659  1.0000
  C   C504      1.0  0.13646  0.40818  0.04995  1.0000
  H   H397      1.0  0.14672  0.37180  0.02573  1.0000
  H   H398      1.0  0.17109  0.36505  0.02023  1.0000
  H   H399      1.0  0.18400  0.36623  0.03557  1.0000
  H   H400      1.0  0.17272  0.37418  0.05614  1.0000
  H   H401      1.0  0.13521  0.38023  0.04613  1.0000
  H   H402      1.0  0.14657  0.37663  0.09559  1.0000
  H   H403      1.0  0.16161  0.38062  0.10684  1.0000
  H   H404      1.0  0.17862  0.39356  0.09394  1.0000
  H   H405      1.0  0.18034  0.40271  0.06966  1.0000
  H   H406      1.0  0.16529  0.39880  0.05829  1.0000
  H   H407      1.0  0.15216  0.35726  0.08226  1.0000
  H   H408      1.0  0.13951  0.34029  0.09584  1.0000
  H   H409      1.0  0.11518  0.34523  0.09857  1.0000
  H   H410      1.0  0.10360  0.36717  0.08741  1.0000
  H   H411      1.0  0.11602  0.38397  0.07385  1.0000
  H   H412      1.0  0.12202  0.40024  0.08296  1.0000
  H   H413      1.0  0.10741  0.42203  0.07674  1.0000
  H   H414      1.0  0.11118  0.43493  0.05334  1.0000
  H   H415      1.0  0.12994  0.42628  0.03640  1.0000
  H   H416      1.0  0.14447  0.40453  0.04228  1.0000
  H   H417      1.0  0.02646  0.43522  0.39200  1.0000
  C   C505      1.0  0.03174  0.37053  0.41667  1.0000
  C   C506      1.0  0.00664  0.39832  0.17715  1.0000
  C   C507      1.0  0.03688  0.37661  0.37364  1.0000
  C   C508      1.0  0.99367  0.39223  0.33348  1.0000
  C   C509      1.0  0.21655  0.39200  0.01167  1.0000
  H   H418      1.0  0.07317  0.45200  0.03527  1.0000
  P   P15       1.0  0.99401  0.38984  0.25494  1.0000
  C   C510      1.0  0.03021  0.46813  0.00644  1.0000
  C   C511      1.0  0.09678  0.31010  0.46372  1.0000
  C   C512      1.0  0.08503  0.46607  0.06860  1.0000
  C   C513      1.0  0.03738  0.39481  0.43106  1.0000
  C   C514      1.0  0.08157  0.47307  0.32712  1.0000
  C   C515      1.0  0.10251  0.43951  0.14818  1.0000
  H   H419      1.0  0.09308  0.47894  0.17895  1.0000
  C   C516      1.0  0.12955  0.44947  0.06504  1.0000
  H   H420      1.0  0.03171  0.33627  0.37838  1.0000
  H   H421      1.0  0.99614  0.43027  0.11770  1.0000
  C   C517      1.0  0.05026  0.35688  0.46046  1.0000
  H   H422      1.0  0.99802  0.38051  0.14897  1.0000
  H   H423      1.0  0.01753  0.25412  0.33370  1.0000
  C   C518      1.0  0.09625  0.33901  0.42600  1.0000
  P   P16       1.0  0.99988  0.40093  0.41063  1.0000
  C   C519      1.0  0.00949  0.38391  0.24413  1.0000
  C   C520      1.0  0.06682  0.45846  0.10499  1.0000
  H   H424      1.0  0.19093  0.38108  0.00924  1.0000
  C   C521      1.0  0.99511  0.42685  0.33306  1.0000
  H   H425      1.0  0.99623  0.33148  0.45092  1.0000
  H   H426      1.0  0.02502  0.31509  0.38452  1.0000
  C   C522      1.0  0.00056  0.44952  0.14784  1.0000
  H   H427      1.0  0.05853  0.41815  0.04799  1.0000
  H   H428      1.0  0.06014  0.23945  0.42954  1.0000
  C   C523      1.0  0.02130  0.33618  0.38137  1.0000
  C   C524      1.0  0.06017  0.45845  0.22702  1.0000
  C   C525      1.0  0.09862  0.46630  0.20830  1.0000
  H   H429      1.0  0.05295  0.43899  0.00705  1.0000
  C   C526      1.0  0.99981  0.40127  0.39369  1.0000
  H   H430      1.0  0.11128  0.28155  0.47950  1.0000
  H   H431      1.0  0.00582  0.43256  0.43298  1.0000
  C   C527      1.0  0.00393  0.45070  0.08761  1.0000
  C   C528      1.0  0.00525  0.44262  0.10006  1.0000
  H   H432      1.0  0.99237  0.42255  0.38859  1.0000
  H   H433      1.0  0.02125  0.45830  0.33563  1.0000
  C   C529      1.0  0.15706  0.46577  0.98210  1.0000
  C   C530      1.0  0.00703  0.46337  0.05632  1.0000
  C   C531      1.0  0.03181  0.47172  0.16640  1.0000
  H   H434      1.0  0.02061  0.44314  0.41301  1.0000
  C   C532      1.0  0.02759  0.46108  0.16517  1.0000
  C   C533      1.0  0.02971  0.45162  0.04974  1.0000
  C   C534      1.0  0.01663  0.45146  0.05639  1.0000
  H   H435      1.0  0.99010  0.40118  0.32660  1.0000
  C   C535      1.0  0.99593  0.37847  0.17495  1.0000
  H   H436      1.0  0.01713  0.30656  0.36968  1.0000
  C   C536      1.0  0.04711  0.45642  0.14795  1.0000
  P   P17       1.0  0.12128  0.47030  0.04475  1.0000
  C   C537      1.0  0.03097  0.36874  0.24124  1.0000
  C   C538      1.0  0.14802  0.43101  0.06137  1.0000
  H   H437      1.0  0.00020  0.41311  0.29391  1.0000
  H   H438      1.0  0.02154  0.33918  0.48019  1.0000
  H   H439      1.0  0.02635  0.45885  0.25783  1.0000
  H   H440      1.0  0.01214  0.45489  0.08137  1.0000
  H   H441      1.0  0.01452  0.44027  0.10313  1.0000
  H   H442      1.0  0.03575  0.37928  0.44861  1.0000
  C   C539      1.0  0.07553  0.35516  0.42830  1.0000
  H   H443      1.0  0.05102  0.46409  0.19874  1.0000
  S   S87       1.0  0.04248  0.23446  0.41616  1.0000
  C   C540      1.0  0.98665  0.34443  0.43536  1.0000
  C   C541      1.0  0.07022  0.45976  0.11615  1.0000
  H   H444      1.0  0.03719  0.44249  0.05056  1.0000
  H   H445      1.0  0.01415  0.44211  0.06217  1.0000
  H   H446      1.0  0.11339  0.44931  0.12971  1.0000
  C   C542      1.0  0.01648  0.43526  0.41247  1.0000
  C   C543      1.0  0.98850  0.35232  0.42245  1.0000
  H   H447      1.0  0.04189  0.40916  0.41281  1.0000
  H   H448      1.0  0.98965  0.45890  0.34539  1.0000
  C   C544      1.0  0.08435  0.47239  0.00593  1.0000
  C   C545      1.0  0.08454  0.44976  0.99137  1.0000
  H   H449      1.0  0.98866  0.46382  0.26487  1.0000
  P   P18       1.0  0.07406  0.45072  0.00769  1.0000
  C   C546      1.0  0.05706  0.45775  0.00655  1.0000
  C   C547      1.0  0.07468  0.43427  0.01830  1.0000
  C   C548      1.0  0.08394  0.42324  0.01430  1.0000
  C   C549      1.0  0.08402  0.41053  0.02240  1.0000
  C   C550      1.0  0.07485  0.40870  0.03452  1.0000
  C   C551      1.0  0.06547  0.41958  0.03848  1.0000
  C   C552      1.0  0.06535  0.43230  0.03040  1.0000
  C   C553      1.0  0.01183  0.34789  0.38259  1.0000
  C   C554      1.0  0.10001  0.45091  0.26701  1.0000
  S   S88       1.0  0.00438  0.45598  0.20100  1.0000
  H   H450      1.0  0.18216  0.45447  0.05404  1.0000
  C   C555      1.0  0.04897  0.44949  0.00671  1.0000
  C   C556      1.0  0.07919  0.46160  0.01450  1.0000
  H   H451      1.0  0.99025  0.41215  0.16990  1.0000
  C   C557      1.0  0.01463  0.42050  0.39999  1.0000
  H   H452      1.0  0.01176  0.47830  0.36780  1.0000
  C   C558      1.0  0.99847  0.34761  0.38687  1.0000
  C   C559      1.0  0.07730  0.46000  0.02832  1.0000
  C   C560      1.0  0.01016  0.40149  0.27909  1.0000
  C   C561      1.0  0.09018  0.43947  0.15686  1.0000
  C   C562      1.0  0.00719  0.38765  0.33293  1.0000
  H   H453      1.0  0.10241  0.44845  0.99744  1.0000
  H   H454      1.0  0.13100  0.25280  0.45584  1.0000
  C   C563      1.0  0.05865  0.24676  0.45881  1.0000
  C   C564      1.0  0.08664  0.45240  0.26762  1.0000
  C   C565      1.0  0.06111  0.47991  0.19518  1.0000
  C   C566      1.0  0.18959  0.47216  0.04391  1.0000
  H   H455      1.0  0.11260  0.46491  0.29770  1.0000
  H   H456      1.0  0.03048  0.44927  0.28057  1.0000
  C   C567      1.0  0.09875  0.45324  0.21552  1.0000
  C   C568      1.0  0.98759  0.45852  0.39585  1.0000
  C   C569      1.0  0.01598  0.46449  0.28924  1.0000
  H   H457      1.0  0.02890  0.43275  0.35969  1.0000
  H   H458      1.0  0.01076  0.40588  0.17833  1.0000
  C   C570      1.0  0.01320  0.43089  0.16116  1.0000
  C   C571      1.0  0.02012  0.27092  0.39165  1.0000
  C   C572      1.0  0.00810  0.42935  0.42370  1.0000
  C   C573      1.0  0.10012  0.26625  0.47177  1.0000
  H   H459      1.0  0.03296  0.28777  0.36095  1.0000
  C   C574      1.0  0.08071  0.46888  0.03344  1.0000
  C   C575      1.0  0.00063  0.28547  0.47177  1.0000
  H   H460      1.0  0.03241  0.44477  0.15538  1.0000
  C   C576      1.0  0.16469  0.47030  0.99923  1.0000
  C   C577      1.0  0.10425  0.47359  0.05359  1.0000
  H   H461      1.0  0.01695  0.42647  0.17017  1.0000
  C   C578      1.0  0.11557  0.26528  0.44604  1.0000
  C   C579      1.0  0.01140  0.28154  0.39679  1.0000
  C   C580      1.0  0.02681  0.28606  0.37090  1.0000
  S   S89       1.0  0.23112  0.47173  0.99476  1.0000
  H   H462      1.0  0.00078  0.30765  0.44837  1.0000
  C   C581      1.0  0.00721  0.38050  0.43179  1.0000
  H   H463      1.0  0.00238  0.47735  0.11758  1.0000
  C   C582      1.0  0.00580  0.41485  0.41107  1.0000
  H   H464      1.0  0.03020  0.24924  0.46595  1.0000
  Fe  Fe46      1.0  0.05044  0.23425  0.39459  1.0000
  C   C583      1.0  0.04252  0.38428  0.44062  1.0000
  H   H465      1.0  0.02073  0.30098  0.40939  1.0000
  C   C584      1.0  0.21079  0.45276  0.98550  1.0000
  C   C585      1.0  0.06955  0.36992  0.46269  1.0000
  C   C586      1.0  0.03517  0.29604  0.45406  1.0000
  C   C587      1.0  0.01096  0.25642  0.44370  1.0000
  H   H466      1.0  0.02150  0.30227  0.43171  1.0000
  C   C588      1.0  0.07079  0.46168  0.22957  1.0000
  C   C589      1.0  0.00505  0.44359  0.15966  1.0000
  C   C590      1.0  0.08252  0.45224  0.25642  1.0000
  H   H467      1.0  0.03602  0.33276  0.45944  1.0000
  H   H468      1.0  0.00507  0.44205  0.36364  1.0000
  C   C591      1.0  0.07121  0.46931  0.32477  1.0000
  H   H469      1.0  0.15799  0.43104  0.04089  1.0000
  C   C592      1.0  0.10945  0.44304  0.21183  1.0000
  H   H470      1.0  0.07393  0.23524  0.44585  1.0000
  C   C593      1.0  0.04790  0.46732  0.22775  1.0000
  C   C594      1.0  0.01206  0.30355  0.42937  1.0000
  C   C595      1.0  0.05623  0.38006  0.43952  1.0000
  H   H471      1.0  0.09846  0.27797  0.43911  1.0000
  H   H472      1.0  0.12151  0.26501  0.43607  1.0000
  C   C596      1.0  0.01976  0.43082  0.40063  1.0000
  H   H473      1.0  0.07436  0.23854  0.40715  1.0000
  C   C597      1.0  0.09279  0.45897  0.13331  1.0000
  C   C598      1.0  0.01158  0.30289  0.41668  1.0000
  C   C599      1.0  0.98974  0.42833  0.19460  1.0000
  C   C600      1.0  0.99044  0.40559  0.10494  1.0000
  H   H474      1.0  0.04445  0.44627  0.35879  1.0000
  C   C601      1.0  0.02899  0.46309  0.36338  1.0000
  H   H475      1.0  0.20484  0.37850  0.02509  1.0000
  C   C602      1.0  0.01019  0.47009  0.32091  1.0000
  H   H476      1.0  0.04438  0.30936  0.45810  1.0000
  H   H477      1.0  0.22318  0.47226  0.02861  1.0000
  C   C603      1.0  0.98867  0.36515  0.25772  1.0000
  C   C604      1.0  0.06507  0.24749  0.42412  1.0000
  C   C605      1.0  0.06018  0.46735  0.19443  1.0000
  C   C606      1.0  0.02322  0.38156  0.41076  1.0000
  C   C607      1.0  0.01155  0.44809  0.36363  1.0000
  C   C608      1.0  0.19197  0.45392  0.03368  1.0000
  H   H478      1.0  0.05452  0.46716  0.09074  1.0000
  C   C609      1.0  0.10256  0.27258  0.44774  1.0000
  H   H479      1.0  0.00131  0.25578  0.44316  1.0000
  H   H480      1.0  0.03977  0.46461  0.22594  1.0000
  C   C610      1.0  0.01742  0.32412  0.38466  1.0000
  H   H481      1.0  0.00522  0.38069  0.37270  1.0000
  H   H482      1.0  0.19048  0.44417  0.03442  1.0000
  C   C611      1.0  0.18733  0.45973  0.04475  1.0000
  H   H483      1.0  0.07577  0.47619  0.28585  1.0000
  H   H484      1.0  0.06970  0.44889  0.16072  1.0000
  C   C612      1.0  0.03769  0.34050  0.46300  1.0000
  H   H485      1.0  0.00226  0.44880  0.16769  1.0000
  C   C613      1.0  0.19872  0.46063  0.02171  1.0000
  H   H486      1.0  0.99113  0.35662  0.38826  1.0000
  C   C614      1.0  0.99939  0.30563  0.41316  1.0000
  H   H487      1.0  0.08496  0.27908  0.46163  1.0000
  H   H488      1.0  0.02594  0.47743  0.17374  1.0000
  C   C615      1.0  0.05749  0.46845  0.09906  1.0000
  C   C616      1.0  0.03559  0.45467  0.00672  1.0000
  C   C617      1.0  0.99869  0.40187  0.36765  1.0000
  C   C618      1.0  0.12104  0.47286  0.00113  1.0000
  P   P19       1.0  0.99914  0.30806  0.39590  1.0000
  C   C619      1.0  0.09489  0.27316  0.46056  1.0000
  H   H489      1.0  0.01825  0.46016  0.29894  1.0000
  H   H490      1.0  0.05301  0.45018  0.14106  1.0000
  H   H491      1.0  0.07214  0.45325  0.25709  1.0000
  C   C620      1.0  0.20176  0.43399  0.98746  1.0000
  H   H492      1.0  0.02637  0.38621  0.40041  1.0000
  C   C621      1.0  0.06256  0.47874  0.31733  1.0000
  C   C622      1.0  0.12090  0.25843  0.45717  1.0000
  H   H493      1.0  0.08041  0.45806  0.07494  1.0000
  H   H494      1.0  0.00817  0.24824  0.46480  1.0000
  C   C623      1.0  0.11950  0.45895  0.19378  1.0000
  H   H495      1.0  0.00043  0.44251  0.27593  1.0000
  H   H496      1.0  0.08826  0.46587  0.33286  1.0000
  C   C624      1.0  0.06466  0.38673  0.42888  1.0000
  C   C625      1.0  0.99097  0.37666  0.13401  1.0000
  H   H497      1.0  0.05440  0.34379  0.44711  1.0000
  H   H498      1.0  0.02683  0.39776  0.43179  1.0000
  C   C626      1.0  0.03323  0.46360  0.04261  1.0000
  C   C627      1.0  0.21855  0.40068  0.99922  1.0000
  H   H499      1.0  0.00637  0.38007  0.39556  1.0000
  C   C628      1.0  0.19637  0.47894  0.03189  1.0000
  H   H500      1.0  0.14363  0.45187  0.03190  1.0000
  H   H501      1.0  0.19218  0.44950  0.99824  1.0000
  H   H502      1.0  0.11806  0.45149  0.03131  1.0000
  C   C629      1.0  0.08393  0.47570  0.18337  1.0000
  C   C630      1.0  0.20073  0.44581  0.99106  1.0000
  C   C631      1.0  0.99480  0.43708  0.10835  1.0000
  Fe  Fe47      1.0  0.15504  0.43509  0.98755  1.0000
  C   C632      1.0  0.11932  0.46057  0.02401  1.0000
  C   C633      1.0  0.03157  0.35425  0.47912  1.0000
  H   H503      1.0  0.00062  0.37151  0.12949  1.0000
  H   H504      1.0  0.00131  0.44699  0.12820  1.0000
  C   C634      1.0  0.05508  0.48116  0.11535  1.0000
  C   C635      1.0  0.01615  0.24729  0.34330  1.0000
  C   C636      1.0  0.99516  0.41366  0.37214  1.0000
  C   C637      1.0  0.10658  0.47092  0.29068  1.0000
  H   H505      1.0  0.03437  0.35554  0.43444  1.0000
  H   H506      1.0  0.08982  0.46225  0.30113  1.0000
  C   C638      1.0  0.01573  0.36939  0.43762  1.0000
  C   C639      1.0  0.11320  0.25887  0.47000  1.0000
  C   C640      1.0  0.05160  0.47131  0.00610  1.0000
  H   H507      1.0  0.08539  0.25697  0.39429  1.0000
  C   C641      1.0  0.99759  0.33769  0.44099  1.0000
  C   C642      1.0  0.01262  0.47694  0.13797  1.0000
  H   H508      1.0  0.99462  0.41726  0.24124  1.0000
  C   C643      1.0  0.03494  0.46442  0.07820  1.0000
  C   C644      1.0  0.99627  0.39760  0.26686  1.0000
  C   C645      1.0  0.00039  0.30667  0.43871  1.0000
  C   C646      1.0  0.07214  0.38254  0.46040  1.0000
  H   H509      1.0  0.99787  0.38428  0.43796  1.0000
  C   C647      1.0  0.11152  0.48035  0.27989  1.0000
  H   H510      1.0  0.09039  0.47428  0.21078  1.0000
  C   C648      1.0  0.05166  0.47984  0.10419  1.0000
  C   C649      1.0  0.06444  0.47118  0.12142  1.0000
  H   H511      1.0  0.05456  0.47589  0.31543  1.0000
  H   H512      1.0  0.14657  0.47690  0.02999  1.0000
  C   C650      1.0  0.99510  0.40179  0.17230  1.0000
  C   C651      1.0  0.01150  0.47966  0.22079  1.0000
  C   C652      1.0  0.99438  0.45671  0.25891  1.0000
  C   C653      1.0  0.06902  0.47412  0.23238  1.0000
  C   C654      1.0  0.04353  0.47497  0.15816  1.0000
  C   C655      1.0  0.99826  0.48071  0.22085  1.0000
  H   H513      1.0  0.09389  0.46649  0.12417  1.0000
  C   C656      1.0  0.00608  0.47598  0.28715  1.0000
  C   C657      1.0  0.22609  0.48054  0.02997  1.0000
  P   P20       1.0  0.98905  0.46814  0.36867  1.0000
  H   H514      1.0  0.08567  0.47405  0.99524  1.0000
  H   H515      1.0  0.04502  0.25569  0.47461  1.0000
  C   C658      1.0  0.07183  0.36056  0.47439  1.0000
  P   P21       1.0  0.06622  0.47135  0.13767  1.0000
  C   C659      1.0  0.01089  0.47512  0.26376  1.0000
  C   C660      1.0  0.98769  0.30877  0.42259  1.0000
  H   H516      1.0  0.20598  0.47826  0.01139  1.0000
  H   H517      1.0  0.99270  0.44902  0.39335  1.0000
  C   C661      1.0  0.06943  0.23631  0.45595  1.0000
  H   H518      1.0  0.03300  0.47576  0.33374  1.0000
  H   H519      1.0  0.06785  0.47904  0.25838  1.0000
  H   H520      1.0  0.07894  0.39545  0.46793  1.0000
  H   H521      1.0  0.00892  0.47922  0.25389  1.0000
  C   C662      1.0  0.04622  0.47967  0.23060  1.0000
  C   C663      1.0  0.98940  0.38176  0.14516  1.0000
  H   H522      1.0  0.07102  0.47874  0.15973  1.0000
  S   S90       1.0  0.14117  0.42428  0.98530  1.0000
  C   C664      1.0  0.98984  0.39184  0.17087  1.0000
  C   C665      1.0  0.02577  0.47765  0.32780  1.0000
  C   C666      1.0  0.07694  0.38571  0.46971  1.0000
  H   H523      1.0  0.04330  0.36842  0.47573  1.0000
  C   C667      1.0  0.04863  0.48098  0.27132  1.0000
  C   C668      1.0  0.03822  0.47646  0.00605  1.0000
  C   C669      1.0  0.00334  0.48102  0.27437  1.0000
  P   P22       1.0  0.99077  0.46310  0.06690  1.0000
  H   H524      1.0  0.05755  0.47793  0.00600  1.0000
  H   H525      1.0  0.01638  0.47288  0.08965  1.0000
  C   C670      1.0  0.08590  0.47950  0.02485  1.0000
  H   H526      1.0  0.11188  0.48174  0.22382  1.0000
  C   C671      1.0  0.00783  0.48219  0.31164  1.0000
  H   H527      1.0  0.06903  0.44977  0.98226  1.0000
  H   H528      1.0  0.05491  0.48191  0.05332  1.0000
  H   H529      1.0  0.08513  0.48082  0.08986  1.0000
  H   H530      1.0  0.12140  0.48168  0.27855  1.0000
  C   C672      1.0  0.07754  0.47906  0.06653  1.0000
  H   H531      1.0  0.06722  0.48118  0.07144  1.0000
  C   C673      1.0  0.08769  0.48127  0.01110  1.0000
  C   C674      1.0  0.12982  0.48202  0.04582  1.0000
  C   C675      1.0  0.98880  0.47781  0.10628  1.0000
  S   S91       1.0  0.03135  0.23337  0.39106  1.0000
  C   C676      1.0  0.98672  0.41086  0.28367  1.0000
  P   P23       1.0  0.98714  0.47523  0.23631  1.0000
  C   C677      1.0  0.14232  0.48276  0.03754  1.0000
  H   H532      1.0  0.98721  0.41534  0.14420  1.0000
  H   H533      1.0  0.98749  0.43598  0.06995  1.0000
  C   C678      1.0  0.98636  0.24927  0.38819  1.0000
  C   C679      1.0  0.07940  0.44939  0.98084  1.0000
  H   H534      1.0  0.02773  0.44127  0.78859  1.0000
  C   C680      1.0  0.01520  0.45348  0.67719  1.0000
  H   H535      1.0  0.01469  0.32520  0.64352  1.0000
  S   S92       1.0  0.00781  0.38769  0.84849  1.0000
  H   H536      1.0  0.99657  0.32278  0.63504  1.0000
  Fe  Fe48      1.0  0.10165  0.39474  0.82532  1.0000
  S   S93       1.0  0.08323  0.41050  0.82289  1.0000
  S   S94       1.0  0.10798  0.38729  0.84517  1.0000
  Fe  Fe49      1.0  0.10921  0.39298  0.79587  1.0000
  S   S95       1.0  0.09185  0.40879  0.79122  1.0000
  S   S96       1.0  0.12523  0.38427  0.77989  1.0000
  Fe  Fe50      1.0  0.09624  0.41931  0.80411  1.0000
  S   S97       1.0  0.09775  0.44046  0.79605  1.0000
  Fe  Fe51      1.0  0.08016  0.39853  0.81029  1.0000
  S   S98       1.0  0.06064  0.39789  0.80680  1.0000
  S   S99       1.0  0.11475  0.40443  0.80724  1.0000
  S   S100      1.0  0.09749  0.38173  0.81426  1.0000
  Fe  Fe52      1.0  0.17654  0.41579  0.88310  1.0000
  S   S101      1.0  0.16896  0.41774  0.90431  1.0000
  S   S102      1.0  0.19737  0.41697  0.87190  1.0000
  Fe  Fe53      1.0  0.14907  0.41608  0.87953  1.0000
  S   S103      1.0  0.13937  0.41828  0.90065  1.0000
  S   S104      1.0  0.13912  0.41997  0.86219  1.0000
  Fe  Fe54      1.0  0.15210  0.43275  0.89717  1.0000
  S   S105      1.0  0.14594  0.45100  0.90570  1.0000
  Fe  Fe55      1.0  0.15722  0.40307  0.90603  1.0000
  S   S106      1.0  0.15721  0.38560  0.92351  1.0000
  S   S107      1.0  0.16042  0.43184  0.87574  1.0000
  S   S108      1.0  0.16615  0.39974  0.88514  1.0000
  H   H537      1.0  0.05658  0.47084  0.71782  1.0000
  Fe  Fe56      1.0  0.05850  0.30610  0.52934  1.0000
  S   S109      1.0  0.05456  0.30995  0.50903  1.0000
  S   S110      1.0  0.06055  0.28549  0.54266  1.0000
  Fe  Fe57      1.0  0.05861  0.33535  0.52722  1.0000
  S   S111      1.0  0.05459  0.34121  0.50660  1.0000
  S   S112      1.0  0.05791  0.35311  0.53529  1.0000
  Fe  Fe58      1.0  0.04018  0.32800  0.51486  1.0000
  S   S113      1.0  0.02018  0.33490  0.51010  1.0000
  Fe  Fe59      1.0  0.06940  0.32269  0.50274  1.0000
  H   H538      1.0  0.05186  0.30361  0.48355  1.0000
  S   S114      1.0  0.04298  0.32339  0.53572  1.0000
  S   S115      1.0  0.07461  0.31761  0.52280  1.0000
  Fe  Fe60      1.0  0.05515  0.38672  0.60881  1.0000
  S   S116      1.0  0.07394  0.37147  0.61053  1.0000
  S   S117      1.0  0.03621  0.38395  0.62355  1.0000
  Fe  Fe61      1.0  0.06836  0.40536  0.58547  1.0000
  S   S118      1.0  0.08820  0.39165  0.58491  1.0000
  S   S119      1.0  0.06489  0.42553  0.57174  1.0000
  Fe  Fe62      1.0  0.07766  0.37534  0.58813  1.0000
  S   S120      1.0  0.08584  0.35758  0.57840  1.0000
  Fe  Fe63      1.0  0.08287  0.38892  0.60725  1.0000
  S   S121      1.0  0.09707  0.39133  0.61798  1.0000
  S   S122      1.0  0.05817  0.38934  0.58671  1.0000
  S   S123      1.0  0.06372  0.40380  0.60746  1.0000
  Fe  Fe64      1.0  0.09024  0.38099  0.69420  1.0000
  S   S124      1.0  0.07052  0.39419  0.69920  1.0000
  S   S125      1.0  0.09153  0.36812  0.68017  1.0000
  Fe  Fe65      1.0  0.10039  0.38900  0.71417  1.0000
  S   S126      1.0  0.08139  0.40319  0.72038  1.0000
  S   S127      1.0  0.11855  0.38377  0.72277  1.0000
  Fe  Fe66      1.0  0.07202  0.38711  0.72035  1.0000
  S   S128      1.0  0.05384  0.38173  0.73450  1.0000
  Fe  Fe67      1.0  0.08136  0.40913  0.69859  1.0000
  S   S129      1.0  0.07126  0.42907  0.68880  1.0000
  S   S130      1.0  0.09091  0.37235  0.71576  1.0000
  S   S131      1.0  0.10133  0.39654  0.69197  1.0000
  S   S132      1.0  0.00183  0.42453  0.72453  1.0000
  C   C681      1.0  0.00481  0.34779  0.70477  1.0000
  H   H539      1.0  0.04959  0.34300  0.73916  1.0000
  H   H540      1.0  0.20187  0.45515  0.84759  1.0000
  C   C682      1.0  0.17483  0.38629  0.56328  1.0000
  C   C683      1.0  0.00563  0.30874  0.50463  1.0000
  H   H541      1.0  0.04249  0.43890  0.69014  1.0000
  C   C684      1.0  0.05533  0.35608  0.66424  1.0000
  H   H542      1.0  0.19519  0.45414  0.92820  1.0000
  C   C685      1.0  0.00128  0.39626  0.60376  1.0000
  C   C686      1.0  0.20825  0.44784  0.89712  1.0000
  C   C687      1.0  0.01542  0.39288  0.69648  1.0000
  C   C688      1.0  0.01230  0.46282  0.64251  1.0000
  C   C689      1.0  0.11728  0.48158  0.95483  1.0000
  H   H543      1.0  0.04339  0.46491  0.66485  1.0000
  C   C690      1.0  0.21031  0.45790  0.93554  1.0000
  H   H544      1.0  0.10803  0.43746  0.57181  1.0000
  H   H545      1.0  0.09999  0.45617  0.66714  1.0000
  C   C691      1.0  0.03983  0.39401  0.73123  1.0000
  C   C692      1.0  0.04004  0.40755  0.72699  1.0000
  C   C693      1.0  0.02834  0.41704  0.72508  1.0000
  C   C694      1.0  0.01651  0.41296  0.72737  1.0000
  C   C695      1.0  0.01649  0.39949  0.73174  1.0000
  C   C696      1.0  0.02811  0.39009  0.73326  1.0000
  H   H546      1.0  0.04916  0.41070  0.72515  1.0000
  H   H547      1.0  0.02851  0.42746  0.72163  1.0000
  H   H548      1.0  0.00747  0.39624  0.73431  1.0000
  H   H549      1.0  0.02803  0.37971  0.73588  1.0000
  C   C697      1.0  0.07589  0.44158  0.69260  1.0000
  C   C698      1.0  0.06800  0.45437  0.69082  1.0000
  C   C699      1.0  0.07206  0.46474  0.69283  1.0000
  C   C700      1.0  0.08430  0.46251  0.69596  1.0000
  C   C701      1.0  0.09199  0.44959  0.69823  1.0000
  C   C702      1.0  0.08765  0.43905  0.69680  1.0000
  H   H550      1.0  0.05880  0.45627  0.68778  1.0000
  H   H551      1.0  0.06489  0.47565  0.75679  1.0000
  H   H552      1.0  0.10139  0.44779  0.70084  1.0000
  H   H553      1.0  0.09370  0.42910  0.69828  1.0000
  C   C703      1.0  0.06982  0.43748  0.57647  1.0000
  C   C704      1.0  0.06660  0.45091  0.57020  1.0000
  C   C705      1.0  0.07113  0.46044  0.57340  1.0000
  C   C706      1.0  0.07911  0.45649  0.58270  1.0000
  C   C707      1.0  0.08197  0.44314  0.58923  1.0000
  C   C708      1.0  0.07732  0.43366  0.58618  1.0000
  H   H554      1.0  0.06075  0.45393  0.56273  1.0000
  C   C709      1.0  0.99684  0.36452  0.80887  1.0000
  H   H555      1.0  0.08788  0.44010  0.59658  1.0000
  H   H556      1.0  0.07994  0.42333  0.59102  1.0000
  C   C710      1.0  0.09467  0.38544  0.63544  1.0000
  C   C711      1.0  0.10086  0.38999  0.64266  1.0000
  C   C712      1.0  0.09948  0.38516  0.65649  1.0000
  C   C713      1.0  0.09227  0.37538  0.66312  1.0000
  C   C714      1.0  0.08616  0.37074  0.65592  1.0000
  C   C715      1.0  0.08715  0.37591  0.64215  1.0000
  H   H557      1.0  0.10687  0.39717  0.63757  1.0000
  H   H558      1.0  0.10436  0.38865  0.66196  1.0000
  H   H559      1.0  0.08066  0.36310  0.66101  1.0000
  H   H560      1.0  0.08240  0.37228  0.63669  1.0000
  H   H561      1.0  0.02526  0.35700  0.48820  1.0000
  C   C716      1.0  0.99989  0.38939  0.61707  1.0000
  C   C717      1.0  0.01054  0.38595  0.62332  1.0000
  C   C718      1.0  0.02244  0.38965  0.61631  1.0000
  C   C719      1.0  0.02350  0.39722  0.60328  1.0000
  C   C720      1.0  0.01304  0.40028  0.59691  1.0000
  H   H562      1.0  0.12281  0.46873  0.79299  1.0000
  H   H563      1.0  0.00965  0.38017  0.63345  1.0000
  H   H564      1.0  0.03247  0.40050  0.59801  1.0000
  H   H565      1.0  0.01408  0.40567  0.58665  1.0000
  C   C721      1.0  0.02043  0.41357  0.69589  1.0000
  H   H566      1.0  0.00020  0.32209  0.61130  1.0000
  H   H567      1.0  0.12480  0.42888  0.79891  1.0000
  P   P24       1.0  0.12164  0.46393  0.82187  1.0000
  H   H568      1.0  0.07270  0.34519  0.72915  1.0000
  C   C722      1.0  0.06681  0.35421  0.54640  1.0000
  C   C723      1.0  0.06477  0.36648  0.54973  1.0000
  C   C724      1.0  0.07052  0.36762  0.55951  1.0000
  C   C725      1.0  0.07869  0.35654  0.56582  1.0000
  C   C726      1.0  0.08126  0.34439  0.56204  1.0000
  C   C727      1.0  0.07527  0.34319  0.55243  1.0000
  H   H569      1.0  0.05835  0.37509  0.54502  1.0000
  H   H570      1.0  0.06862  0.37706  0.56216  1.0000
  H   H571      1.0  0.08772  0.33582  0.56674  1.0000
  H   H572      1.0  0.07706  0.33375  0.54979  1.0000
  C   C728      1.0  0.03259  0.42025  0.76531  1.0000
  C   C729      1.0  0.16265  0.38590  0.57221  1.0000
  H   H573      1.0  0.04667  0.28142  0.52441  1.0000
  C   C730      1.0  0.15890  0.38735  0.93886  1.0000
  C   C731      1.0  0.15611  0.39972  0.94225  1.0000
  C   C732      1.0  0.15730  0.40040  0.95487  1.0000
  C   C733      1.0  0.16167  0.38876  0.96389  1.0000
  C   C734      1.0  0.16461  0.37653  0.96031  1.0000
  C   C735      1.0  0.16306  0.37582  0.94799  1.0000
  H   H574      1.0  0.15280  0.40869  0.93529  1.0000
  H   H575      1.0  0.15492  0.40988  0.95759  1.0000
  H   H576      1.0  0.16798  0.36750  0.96718  1.0000
  H   H577      1.0  0.16520  0.36625  0.94549  1.0000
  C   C736      1.0  0.20753  0.41652  0.88233  1.0000
  C   C737      1.0  0.21934  0.42092  0.87687  1.0000
  H   H578      1.0  0.22202  0.42487  0.86627  1.0000
  C   C738      1.0  0.10325  0.42506  0.56201  1.0000
  H   H579      1.0  0.11630  0.41464  0.66853  1.0000
  H   H580      1.0  0.09305  0.45706  0.62393  1.0000
  H   H581      1.0  0.15970  0.45589  0.87807  1.0000
  C   C739      1.0  0.11612  0.39670  0.85016  1.0000
  C   C740      1.0  0.11921  0.40854  0.84191  1.0000
  C   C741      1.0  0.12636  0.41539  0.84578  1.0000
  C   C742      1.0  0.13034  0.41064  0.85798  1.0000
  C   C743      1.0  0.12719  0.39886  0.86630  1.0000
  C   C744      1.0  0.12009  0.39194  0.86240  1.0000
  H   H582      1.0  0.11625  0.41236  0.83248  1.0000
  H   H583      1.0  0.12888  0.42440  0.83925  1.0000
  H   H584      1.0  0.13018  0.39511  0.87573  1.0000
  H   H585      1.0  0.11770  0.38283  0.86886  1.0000
  C   C745      1.0  0.12254  0.38422  0.76431  1.0000
  C   C746      1.0  0.13264  0.37728  0.75578  1.0000
  C   C747      1.0  0.13109  0.37717  0.74324  1.0000
  C   C748      1.0  0.11935  0.38385  0.73906  1.0000
  C   C749      1.0  0.10910  0.39075  0.74762  1.0000
  C   C750      1.0  0.11080  0.39104  0.76017  1.0000
  H   H586      1.0  0.14180  0.37205  0.75880  1.0000
  H   H587      1.0  0.13911  0.37190  0.73670  1.0000
  H   H588      1.0  0.10009  0.39613  0.74439  1.0000
  H   H589      1.0  0.10328  0.39679  0.76655  1.0000
  C   C751      1.0  0.08624  0.45184  0.80475  1.0000
  C   C752      1.0  0.07635  0.44799  0.81567  1.0000
  C   C753      1.0  0.06676  0.45759  0.82178  1.0000
  H   H590      1.0  0.02269  0.35029  0.69028  1.0000
  H   H591      1.0  0.00154  0.41168  0.69468  1.0000
  C   C754      1.0  0.08652  0.46523  0.79997  1.0000
  H   H592      1.0  0.07595  0.43770  0.81930  1.0000
  H   H593      1.0  0.05923  0.45460  0.83032  1.0000
  C   C755      1.0  0.04914  0.46261  0.65541  1.0000
  H   H594      1.0  0.09411  0.46823  0.79151  1.0000
  C   C756      1.0  0.02237  0.39162  0.83731  1.0000
  C   C757      1.0  0.03449  0.38682  0.84125  1.0000
  C   C758      1.0  0.04632  0.38911  0.83217  1.0000
  C   C759      1.0  0.04605  0.39611  0.81907  1.0000
  C   C760      1.0  0.03389  0.40111  0.81526  1.0000
  C   C761      1.0  0.02212  0.39897  0.82436  1.0000
  H   H595      1.0  0.03477  0.38114  0.85129  1.0000
  H   H596      1.0  0.05564  0.38514  0.83519  1.0000
  H   H597      1.0  0.03351  0.40667  0.80523  1.0000
  H   H598      1.0  0.01285  0.40275  0.82128  1.0000
  H   H599      1.0  0.14685  0.41644  0.80297  1.0000
  C   C762      1.0  0.09232  0.33211  0.76088  1.0000
  C   C763      1.0  0.09974  0.33755  0.74861  1.0000
  C   C764      1.0  0.10015  0.35095  0.74548  1.0000
  C   C765      1.0  0.09292  0.35901  0.75445  1.0000
  C   C766      1.0  0.08518  0.35370  0.76669  1.0000
  C   C767      1.0  0.08524  0.34011  0.76999  1.0000
  P   P25       1.0  0.07725  0.36368  0.77899  1.0000
  C   C768      1.0  0.08881  0.35958  0.78961  1.0000
  C   C769      1.0  0.07437  0.38081  0.77035  1.0000
  C   C770      1.0  0.07891  0.39027  0.77355  1.0000
  C   C771      1.0  0.07739  0.40328  0.76587  1.0000
  C   C772      1.0  0.07118  0.40690  0.75518  1.0000
  C   C773      1.0  0.06586  0.39773  0.75259  1.0000
  C   C774      1.0  0.06752  0.38471  0.76007  1.0000
  C   C775      1.0  0.10175  0.36125  0.78387  1.0000
  C   C776      1.0  0.06108  0.36096  0.78797  1.0000
  H   H600      1.0  0.09228  0.32164  0.76343  1.0000
  H   H601      1.0  0.10539  0.33135  0.74161  1.0000
  H   H602      1.0  0.10625  0.35512  0.73616  1.0000
  H   H603      1.0  0.09368  0.36929  0.75187  1.0000
  H   H604      1.0  0.07998  0.33566  0.77967  1.0000
  H   H605      1.0  0.08384  0.38757  0.78174  1.0000
  H   H606      1.0  0.08140  0.41044  0.76793  1.0000
  H   H607      1.0  0.07038  0.41681  0.74897  1.0000
  H   H608      1.0  0.06053  0.40064  0.74469  1.0000
  H   H609      1.0  0.06362  0.37762  0.75771  1.0000
  H   H610      1.0  0.10457  0.36568  0.77338  1.0000
  C   C777      1.0  0.01639  0.32452  0.63325  1.0000
  H   H611      1.0  0.99582  0.37086  0.78835  1.0000
  C   C778      1.0  0.99619  0.35110  0.71638  1.0000
  H   H612      1.0  0.03518  0.38061  0.57364  1.0000
  C   C779      1.0  0.07440  0.42118  0.64733  1.0000
  C   C780      1.0  0.07335  0.41316  0.66026  1.0000
  C   C781      1.0  0.06703  0.40256  0.66388  1.0000
  C   C782      1.0  0.06157  0.40001  0.65476  1.0000
  C   C783      1.0  0.06234  0.40809  0.64198  1.0000
  C   C784      1.0  0.06872  0.41865  0.63826  1.0000
  H   H613      1.0  0.08528  0.45628  0.65328  1.0000
  H   H614      1.0  0.07733  0.41504  0.66758  1.0000
  H   H615      1.0  0.06658  0.39612  0.67368  1.0000
  H   H616      1.0  0.05696  0.39161  0.65753  1.0000
  H   H617      1.0  0.05819  0.40598  0.63491  1.0000
  H   H618      1.0  0.06935  0.42476  0.62827  1.0000
  C   C785      1.0  0.11026  0.42763  0.56980  1.0000
  C   C786      1.0  0.10596  0.41241  0.55949  1.0000
  C   C787      1.0  0.11562  0.40228  0.56483  1.0000
  C   C788      1.0  0.12248  0.40467  0.57299  1.0000
  C   C789      1.0  0.11988  0.41751  0.57521  1.0000
  P   P26       1.0  0.13524  0.39160  0.57953  1.0000
  C   C790      1.0  0.15087  0.39233  0.56792  1.0000
  C   C791      1.0  0.13653  0.39387  0.59523  1.0000
  C   C792      1.0  0.13146  0.38599  0.60748  1.0000
  C   C793      1.0  0.13240  0.38807  0.61946  1.0000
  C   C794      1.0  0.13840  0.39802  0.61937  1.0000
  C   C795      1.0  0.14369  0.40576  0.60726  1.0000
  C   C796      1.0  0.14286  0.40364  0.59524  1.0000
  C   C797      1.0  0.15144  0.39905  0.55455  1.0000
  C   C798      1.0  0.13107  0.37590  0.58146  1.0000
  C   C799      1.0  0.13957  0.36624  0.57461  1.0000
  C   C800      1.0  0.13557  0.35476  0.57516  1.0000
  C   C801      1.0  0.12308  0.35286  0.58247  1.0000
  C   C802      1.0  0.11466  0.36234  0.58942  1.0000
  C   C803      1.0  0.11864  0.37380  0.58891  1.0000
  H   H619      1.0  0.11751  0.39255  0.56275  1.0000
  H   H620      1.0  0.12515  0.41976  0.58116  1.0000
  H   H621      1.0  0.12663  0.37829  0.60800  1.0000
  H   H622      1.0  0.12827  0.38203  0.62884  1.0000
  H   H623      1.0  0.13892  0.39970  0.62871  1.0000
  H   H624      1.0  0.14840  0.41344  0.60720  1.0000
  H   H625      1.0  0.14705  0.40971  0.58594  1.0000
  H   H626      1.0  0.14252  0.40397  0.55094  1.0000
  H   H627      1.0  0.16403  0.40462  0.53534  1.0000
  H   H628      1.0  0.14914  0.36762  0.56860  1.0000
  H   H629      1.0  0.14205  0.34742  0.56970  1.0000
  H   H630      1.0  0.11980  0.34417  0.58263  1.0000
  H   H631      1.0  0.10490  0.36097  0.59494  1.0000
  H   H632      1.0  0.11191  0.38116  0.59417  1.0000
  H   H633      1.0  0.00054  0.40965  0.75277  1.0000
  H   H634      1.0  0.03253  0.41695  0.62232  1.0000
  H   H635      1.0  0.06213  0.47968  0.66112  1.0000
  H   H636      1.0  0.14792  0.44587  0.82236  1.0000
  H   H637      1.0  0.03661  0.46374  0.82514  1.0000
  H   H638      1.0  0.22749  0.45805  0.94207  1.0000
  H   H639      1.0  0.01574  0.41841  0.76000  1.0000
  H   H640      1.0  0.03238  0.43016  0.75917  1.0000
  C   C804      1.0  0.20947  0.37535  0.91170  1.0000
  C   C805      1.0  0.14022  0.36039  0.87394  1.0000
  H   H641      1.0  0.08589  0.28858  0.52428  1.0000
  H   H642      1.0  0.02574  0.27969  0.55228  1.0000
  C   C806      1.0  0.14429  0.47463  0.61701  1.0000
  C   C807      1.0  0.11595  0.46007  0.89712  1.0000
  C   C808      1.0  0.10963  0.47827  0.90848  1.0000
  H   H643      1.0  0.03150  0.48215  0.58526  1.0000
  C   C809      1.0  0.04324  0.44413  0.60189  1.0000
  H   H644      1.0  0.11697  0.44678  0.97542  1.0000
  C   C810      1.0  0.10942  0.46530  0.90839  1.0000
  H   H645      1.0  0.04493  0.47829  0.74694  1.0000
  C   C811      1.0  0.98891  0.25323  0.50569  1.0000
  C   C812      1.0  0.11752  0.47480  0.70880  1.0000
  C   C813      1.0  0.08034  0.47851  0.94396  1.0000
  C   C814      1.0  0.10645  0.44770  0.97686  1.0000
  C   C815      1.0  0.13179  0.46061  0.63493  1.0000
  C   C816      1.0  0.09273  0.24916  0.49740  1.0000
  C   C817      1.0  0.99202  0.35553  0.61832  1.0000
  C   C818      1.0  0.00779  0.46606  0.73839  1.0000
  C   C819      1.0  0.02405  0.47947  0.75170  1.0000
  C   C820      1.0  0.13739  0.45471  0.85454  1.0000
  C   C821      1.0  0.13054  0.46420  0.94340  1.0000
  C   C822      1.0  0.23451  0.34497  0.91939  1.0000
  C   C823      1.0  0.14661  0.47270  0.83913  1.0000
  S   S133      1.0  0.09053  0.47581  0.69617  1.0000
  H   H646      1.0  0.00356  0.30603  0.55240  1.0000
  C   C824      1.0  0.01110  0.31869  0.53391  1.0000
  H   H647      1.0  0.99716  0.30821  0.57765  1.0000
  H   H648      1.0  0.99126  0.42540  0.82354  1.0000
  H   H649      1.0  0.11610  0.44993  0.89718  1.0000
  C   C825      1.0  0.01439  0.47099  0.77480  1.0000
  H   H650      1.0  0.02160  0.45587  0.69352  1.0000
  H   H651      1.0  0.06960  0.45899  0.85053  1.0000
  H   H652      1.0  0.10448  0.45912  0.91711  1.0000
  H   H653      1.0  0.17955  0.46532  0.95051  1.0000
  H   H654      1.0  0.16884  0.37289  0.80034  1.0000
  H   H655      1.0  0.15333  0.47590  0.60971  1.0000
  H   H656      1.0  0.13700  0.44723  0.86377  1.0000
  C   C826      1.0  0.18836  0.46770  0.83547  1.0000
  C   C827      1.0  0.00187  0.42616  0.63498  1.0000
  C   C828      1.0  0.98791  0.31847  0.54291  1.0000
  H   H657      1.0  0.99991  0.38085  0.57586  1.0000
  H   H658      1.0  0.13889  0.45586  0.94245  1.0000
  H   H659      1.0  0.12499  0.46340  0.92604  1.0000
  C   C829      1.0  0.00752  0.41203  0.65544  1.0000
  C   C830      1.0  0.00375  0.48217  0.56325  1.0000
  C   C831      1.0  0.12257  0.46854  0.93407  1.0000
  H   H660      1.0  0.12591  0.47020  0.70206  1.0000
  C   C832      1.0  0.99405  0.28793  0.48434  1.0000
  C   C833      1.0  0.07681  0.45956  0.73980  1.0000
  C   C834      1.0  0.07098  0.44917  0.74822  1.0000
  C   C835      1.0  0.05998  0.44666  0.74572  1.0000
  C   C836      1.0  0.05482  0.45442  0.73473  1.0000
  H   H661      1.0  0.99901  0.42736  0.62573  1.0000
  H   H662      1.0  0.01407  0.36034  0.58887  1.0000
  H   H663      1.0  0.07505  0.44289  0.75656  1.0000
  H   H664      1.0  0.05554  0.43864  0.75223  1.0000
  H   H665      1.0  0.04642  0.45241  0.73264  1.0000
  H   H666      1.0  0.21682  0.35560  0.82729  1.0000
  C   C837      1.0  0.99472  0.46125  0.72607  1.0000
  C   C838      1.0  0.15875  0.37048  0.86126  1.0000
  H   H667      1.0  0.13368  0.36158  0.89462  1.0000
  C   C839      1.0  0.03867  0.43437  0.67338  1.0000
  C   C840      1.0  0.01153  0.40656  0.69552  1.0000
  C   C841      1.0  0.99473  0.33351  0.52203  1.0000
  H   H668      1.0  0.10776  0.44662  0.95675  1.0000
  P   P27       1.0  0.20858  0.47224  0.86030  1.0000
  C   C842      1.0  0.00747  0.36651  0.56325  1.0000
  H   H669      1.0  0.01524  0.29007  0.51502  1.0000
  P   P28       1.0  0.99701  0.48156  0.75767  1.0000
  C   C843      1.0  0.04118  0.47155  0.88640  1.0000
  C   C844      1.0  0.00083  0.36669  0.81923  1.0000
  C   C845      1.0  0.02241  0.27288  0.54884  1.0000
  C   C846      1.0  0.18116  0.41262  0.84793  1.0000
  C   C847      1.0  0.00637  0.37855  0.56664  1.0000
  C   C848      1.0  0.01356  0.38779  0.55813  1.0000
  C   C849      1.0  0.02175  0.38517  0.54606  1.0000
  C   C850      1.0  0.02255  0.37342  0.54240  1.0000
  C   C851      1.0  0.01528  0.36421  0.55086  1.0000
  C   C852      1.0  0.15073  0.47913  0.97889  1.0000
  H   H670      1.0  0.03661  0.25577  0.55612  1.0000
  C   C853      1.0  0.01904  0.36133  0.70553  1.0000
  P   P29       1.0  0.09021  0.26629  0.48842  1.0000
  C   C854      1.0  0.01790  0.44641  0.66713  1.0000
  H   H671      1.0  0.99639  0.42784  0.58342  1.0000
  H   H672      1.0  0.13411  0.46734  0.96096  1.0000
  H   H673      1.0  0.10441  0.29979  0.51234  1.0000
  H   H674      1.0  0.01280  0.39692  0.56099  1.0000
  H   H675      1.0  0.02749  0.39220  0.53951  1.0000
  H   H676      1.0  0.02894  0.37133  0.53307  1.0000
  H   H677      1.0  0.18778  0.38590  0.93844  1.0000
  C   C855      1.0  0.03787  0.47004  0.76776  1.0000
  H   H678      1.0  0.08384  0.44783  0.96030  1.0000
  C   C856      1.0  0.08776  0.44831  0.96837  1.0000
  C   C857      1.0  0.00647  0.36810  0.75552  1.0000
  C   C858      1.0  0.07917  0.37633  0.48133  1.0000
  C   C859      1.0  0.03879  0.37555  0.65786  1.0000
  C   C860      1.0  0.21078  0.43698  0.93072  1.0000
  H   H679      1.0  0.04784  0.42707  0.67188  1.0000
  H   H680      1.0  0.99847  0.36078  0.82924  1.0000
  C   C861      1.0  0.14297  0.38621  0.82267  1.0000
  P   P30       1.0  0.99793  0.35477  0.57415  1.0000
  C   C862      1.0  0.00336  0.31522  0.57559  1.0000
  C   C863      1.0  0.00548  0.33775  0.57306  1.0000
  C   C864      1.0  0.14925  0.38430  0.83301  1.0000
  C   C865      1.0  0.02986  0.43705  0.66508  1.0000
  C   C866      1.0  0.99207  0.43417  0.59049  1.0000
  C   C867      1.0  0.14579  0.46344  0.85125  1.0000
  C   C868      1.0  0.20399  0.46054  0.87558  1.0000
  H   H681      1.0  0.02126  0.31460  0.53451  1.0000
  H   H682      1.0  0.19709  0.37386  0.82944  1.0000
  H   H683      1.0  0.06698  0.25463  0.49415  1.0000
  H   H684      1.0  0.22931  0.45373  0.97167  1.0000
  H   H685      1.0  0.01584  0.35530  0.54769  1.0000
  H   H686      1.0  0.18404  0.47966  0.96018  1.0000
  C   C869      1.0  0.20437  0.47959  0.94960  1.0000
  C   C870      1.0  0.05286  0.46714  0.63138  1.0000
  C   C871      1.0  0.09516  0.47369  0.83298  1.0000
  C   C872      1.0  0.22997  0.47325  0.83865  1.0000
  C   C873      1.0  0.10202  0.29312  0.50789  1.0000
  C   C874      1.0  0.00618  0.32317  0.62848  1.0000
  P   P31       1.0  0.01550  0.44356  0.58266  1.0000
  C   C875      1.0  0.02586  0.43994  0.59442  1.0000
  H   H687      1.0  0.99869  0.45598  0.60411  1.0000
  C   C876      1.0  0.99758  0.32843  0.57636  1.0000
  C   C877      1.0  0.16364  0.39942  0.54565  1.0000
  C   C878      1.0  0.02016  0.42527  0.55238  1.0000
  C   C879      1.0  0.02497  0.42897  0.60518  1.0000
  C   C880      1.0  0.03313  0.42561  0.61421  1.0000
  C   C881      1.0  0.04231  0.43317  0.61253  1.0000
  H   H688      1.0  0.99226  0.36211  0.73160  1.0000
  C   C882      1.0  0.99413  0.29166  0.51901  1.0000
  C   C883      1.0  0.02157  0.43212  0.57166  1.0000
  C   C884      1.0  0.19253  0.45568  0.87840  1.0000
  S   S134      1.0  0.08606  0.32247  0.48447  1.0000
  C   C885      1.0  0.03168  0.41548  0.55339  1.0000
  C   C886      1.0  0.03817  0.41402  0.56346  1.0000
  C   C887      1.0  0.03313  0.42226  0.57260  1.0000
  C   C888      1.0  0.13916  0.47310  0.83019  1.0000
  H   H689      1.0  0.99448  0.46805  0.57865  1.0000
  P   P32       1.0  0.17026  0.37490  0.84573  1.0000
  C   C889      1.0  0.05520  0.29290  0.48568  1.0000
  C   C890      1.0  0.16426  0.47510  0.93975  1.0000
  C   C891      1.0  0.06854  0.28722  0.48542  1.0000
  H   H690      1.0  0.02032  0.47850  0.69518  1.0000
  H   H691      1.0  0.01805  0.42291  0.60648  1.0000
  H   H692      1.0  0.03601  0.45490  0.56230  1.0000
  C   C892      1.0  0.22724  0.38353  0.88092  1.0000
  H   H693      1.0  0.19407  0.43621  0.90920  1.0000
  C   C893      1.0  0.01533  0.45983  0.57182  1.0000
  C   C894      1.0  0.01520  0.43366  0.56139  1.0000
  H   H694      1.0  0.15702  0.47009  0.94702  1.0000
  H   H695      1.0  0.03573  0.40914  0.54628  1.0000
  H   H696      1.0  0.04730  0.40669  0.56404  1.0000
  H   H697      1.0  0.03843  0.42104  0.58020  1.0000
  H   H698      1.0  0.09518  0.25271  0.51547  1.0000
  P   P33       1.0  0.00946  0.39284  0.77676  1.0000
  P   P34       1.0  0.21364  0.41364  0.97407  1.0000
  C   C895      1.0  0.20090  0.41656  0.96492  1.0000
  C   C896      1.0  0.19352  0.42948  0.96103  1.0000
  C   C897      1.0  0.18331  0.43164  0.95453  1.0000
  C   C898      1.0  0.18046  0.42099  0.95170  1.0000
  C   C899      1.0  0.18777  0.40816  0.95540  1.0000
  C   C900      1.0  0.19798  0.40594  0.96190  1.0000
  C   C901      1.0  0.01216  0.27761  0.54201  1.0000
  C   C902      1.0  0.06391  0.26530  0.49139  1.0000
  H   H699      1.0  0.01520  0.45229  0.72530  1.0000
  C   C903      1.0  0.17533  0.39306  0.55000  1.0000
  H   H700      1.0  0.06416  0.47348  0.96003  1.0000
  H   H701      1.0  0.19549  0.43798  0.96299  1.0000
  H   H702      1.0  0.17746  0.44156  0.95189  1.0000
  H   H703      1.0  0.17245  0.42266  0.94679  1.0000
  H   H704      1.0  0.18524  0.39988  0.95359  1.0000
  H   H705      1.0  0.20341  0.39589  0.96481  1.0000
  C   C904      1.0  0.07228  0.47802  0.76014  1.0000
  H   H706      1.0  0.22402  0.34906  0.92202  1.0000
  P   P35       1.0  0.02989  0.44483  0.81438  1.0000
  C   C905      1.0  0.04522  0.44429  0.80200  1.0000
  C   C906      1.0  0.03306  0.43508  0.83034  1.0000
  C   C907      1.0  0.02437  0.43796  0.84218  1.0000
  C   C908      1.0  0.02656  0.43021  0.85456  1.0000
  C   C909      1.0  0.03745  0.41956  0.85522  1.0000
  C   C910      1.0  0.04618  0.41668  0.84351  1.0000
  C   C911      1.0  0.04401  0.42437  0.83112  1.0000
  C   C912      1.0  0.05184  0.45475  0.79802  1.0000
  C   C913      1.0  0.06401  0.45375  0.78896  1.0000
  C   C914      1.0  0.06971  0.44235  0.78387  1.0000
  C   C915      1.0  0.06298  0.43212  0.78743  1.0000
  C   C916      1.0  0.05086  0.43304  0.79651  1.0000
  C   C917      1.0  0.01881  0.43790  0.80978  1.0000
  C   C918      1.0  0.00837  0.43339  0.81953  1.0000
  C   C919      1.0  0.23441  0.37156  0.88720  1.0000
  C   C920      1.0  0.01068  0.43328  0.79290  1.0000
  C   C921      1.0  0.01989  0.43780  0.79640  1.0000
  H   H707      1.0  0.01059  0.42176  0.66891  1.0000
  H   H708      1.0  0.01579  0.44609  0.84186  1.0000
  H   H709      1.0  0.01973  0.43239  0.86363  1.0000
  H   H710      1.0  0.03910  0.41346  0.86479  1.0000
  H   H711      1.0  0.05459  0.40836  0.84399  1.0000
  H   H712      1.0  0.05086  0.42178  0.82225  1.0000
  H   H713      1.0  0.04796  0.46355  0.80207  1.0000
  H   H714      1.0  0.00632  0.46117  0.67867  1.0000
  H   H715      1.0  0.07954  0.44129  0.77756  1.0000
  H   H716      1.0  0.06735  0.42318  0.78367  1.0000
  H   H717      1.0  0.04607  0.42475  0.79957  1.0000
  H   H718      1.0  0.06309  0.44649  0.66430  1.0000
  H   H719      1.0  0.01145  0.43333  0.78260  1.0000
  H   H720      1.0  0.09555  0.43282  0.55811  1.0000
  H   H721      1.0  0.10032  0.41040  0.55365  1.0000
  P   P36       1.0  0.00661  0.45010  0.65629  1.0000
  C   C922      1.0  0.99554  0.35502  0.59147  1.0000
  C   C923      1.0  0.18888  0.44710  0.89058  1.0000
  C   C924      1.0  0.10915  0.29105  0.49530  1.0000
  C   C925      1.0  0.02187  0.46162  0.81618  1.0000
  H   H722      1.0  0.03638  0.32671  0.62849  1.0000
  H   H723      1.0  0.07536  0.29364  0.48314  1.0000
  C   C926      1.0  0.00036  0.42881  0.80269  1.0000
  H   H724      1.0  0.12126  0.35818  0.78703  1.0000
  C   C927      1.0  0.09186  0.44708  0.65665  1.0000
  C   C928      1.0  0.18898  0.40013  0.85193  1.0000
  C   C929      1.0  0.11127  0.35694  0.79157  1.0000
  H   H725      1.0  0.03913  0.36308  0.56110  1.0000
  C   C930      1.0  0.10043  0.44714  0.66426  1.0000
  P   P37       1.0  0.08178  0.43541  0.64258  1.0000
  C   C931      1.0  0.01623  0.35284  0.69936  1.0000
  H   H726      1.0  0.02062  0.25493  0.49044  1.0000
  H   H727      1.0  0.08869  0.31663  0.62576  1.0000
  C   C932      1.0  0.03730  0.37023  0.57857  1.0000
  C   C933      1.0  0.09180  0.43524  0.65356  1.0000
  C   C934      1.0  0.09714  0.44824  0.61986  1.0000
  C   C935      1.0  0.06035  0.45226  0.65503  1.0000
  C   C936      1.0  0.00437  0.41354  0.64323  1.0000
  C   C937      1.0  0.13008  0.44928  0.81523  1.0000
  H   H728      1.0  0.16239  0.38053  0.58245  1.0000
  H   H729      1.0  0.15079  0.37328  0.89369  1.0000
  C   C938      1.0  0.02309  0.41347  0.76583  1.0000
  C   C939      1.0  0.23147  0.45257  0.85518  1.0000
  C   C940      1.0  0.08562  0.35335  0.80316  1.0000
  C   C941      1.0  0.10921  0.43544  0.66857  1.0000
  H   H730      1.0  0.11557  0.43541  0.67479  1.0000
  C   C942      1.0  0.05479  0.36612  0.79941  1.0000
  H   H731      1.0  0.07597  0.35133  0.80781  1.0000
  C   C943      1.0  0.00338  0.35850  0.60913  1.0000
  H   H732      1.0  0.03636  0.37415  0.59747  1.0000
  C   C944      1.0  0.10953  0.42372  0.66515  1.0000
  C   C945      1.0  0.10093  0.42363  0.65758  1.0000
  C   C946      1.0  0.10662  0.44876  0.60788  1.0000
  H   H733      1.0  0.10137  0.41450  0.65489  1.0000
  H   H734      1.0  0.99892  0.29125  0.48996  1.0000
  H   H735      1.0  0.99639  0.45440  0.77195  1.0000
  C   C947      1.0  0.09514  0.47719  0.75895  1.0000
  C   C948      1.0  0.02873  0.32525  0.62471  1.0000
  C   C949      1.0  0.03951  0.36037  0.57153  1.0000
  C   C950      1.0  0.06790  0.44933  0.64280  1.0000
  C   C951      1.0  0.09291  0.43642  0.62647  1.0000
  C   C952      1.0  0.03793  0.36664  0.59197  1.0000
  H   H736      1.0  0.18477  0.39334  0.54308  1.0000
  H   H737      1.0  0.22839  0.42196  0.93245  1.0000
  C   C953      1.0  0.01043  0.36446  0.71730  1.0000
  H   H738      1.0  0.99879  0.36636  0.75198  1.0000
  C   C954      1.0  0.20444  0.45010  0.93135  1.0000
  C   C955      1.0  0.02395  0.45065  0.68555  1.0000
  H   H739      1.0  0.01456  0.39309  0.80254  1.0000
  C   C956      1.0  0.07905  0.47747  0.92207  1.0000
  H   H740      1.0  0.00160  0.47869  0.65249  1.0000
  H   H741      1.0  0.08718  0.43881  0.84753  1.0000
  C   C957      1.0  0.11214  0.43742  0.60259  1.0000
  C   C958      1.0  0.18469  0.36154  0.84419  1.0000
  C   C959      1.0  0.19642  0.46518  0.84447  1.0000
  C   C960      1.0  0.05437  0.35439  0.78329  1.0000
  H   H742      1.0  0.05858  0.35114  0.77399  1.0000
  C   C961      1.0  0.09510  0.34935  0.81090  1.0000
  C   C962      1.0  0.10793  0.35114  0.80511  1.0000
  H   H743      1.0  0.05946  0.37191  0.80276  1.0000
  C   C963      1.0  0.04269  0.34699  0.57777  1.0000
  H   H744      1.0  0.04479  0.33961  0.57196  1.0000
  C   C964      1.0  0.09843  0.42512  0.62105  1.0000
  H   H745      1.0  0.18635  0.45847  0.87130  1.0000
  C   C965      1.0  0.06400  0.45674  0.63095  1.0000
  H   H746      1.0  0.11931  0.43795  0.59321  1.0000
  H   H747      1.0  0.18388  0.38131  0.56664  1.0000
  H   H748      1.0  0.19496  0.32837  0.85621  1.0000
  H   H749      1.0  0.18758  0.45962  0.83176  1.0000
  H   H750      1.0  0.03618  0.47718  0.54768  1.0000
  H   H751      1.0  0.11435  0.45627  0.72164  1.0000
  H   H752      1.0  0.00710  0.43348  0.82989  1.0000
  H   H753      1.0  0.05503  0.30538  0.62199  1.0000
  C   C966      1.0  0.10806  0.42558  0.60921  1.0000
  C   C967      1.0  0.99681  0.47515  0.74381  1.0000
  H   H754      1.0  0.09530  0.41593  0.62591  1.0000
  C   C968      1.0  0.12787  0.47068  0.95379  1.0000
  H   H755      1.0  0.06949  0.45455  0.62138  1.0000
  C   C969      1.0  0.00790  0.32868  0.52298  1.0000
  H   H756      1.0  0.00844  0.38763  0.69602  1.0000
  H   H757      1.0  0.10304  0.45083  0.76672  1.0000
  C   C970      1.0  0.06713  0.47335  0.92759  1.0000
  H   H758      1.0  0.22293  0.40276  0.94959  1.0000
  C   C971      1.0  0.01000  0.38491  0.80401  1.0000
  C   C972      1.0  0.04246  0.36373  0.80670  1.0000
  H   H759      1.0  0.08579  0.33597  0.60678  1.0000
  H   H760      1.0  0.05351  0.36511  0.64392  1.0000
  H   H761      1.0  0.00589  0.46938  0.78279  1.0000
  C   C973      1.0  0.04325  0.34337  0.59127  1.0000
  C   C974      1.0  0.04073  0.35330  0.59836  1.0000
  H   H762      1.0  0.07334  0.30129  0.63322  1.0000
  H   H763      1.0  0.13110  0.45101  0.64153  1.0000
  C   C975      1.0  0.05269  0.27203  0.52834  1.0000
  C   C976      1.0  0.99372  0.31678  0.50181  1.0000
  H   H764      1.0  0.00640  0.44140  0.56036  1.0000
  C   C977      1.0  0.99903  0.35938  0.72269  1.0000
  C   C978      1.0  0.02311  0.40067  0.77394  1.0000
  C   C979      1.0  0.01116  0.25662  0.49734  1.0000
  H   H765      1.0  0.99077  0.38635  0.62241  1.0000
  C   C980      1.0  0.02850  0.25940  0.55105  1.0000
  H   H766      1.0  0.09252  0.34483  0.82140  1.0000
  H   H767      1.0  0.11527  0.34811  0.81109  1.0000
  C   C981      1.0  0.03096  0.32445  0.61137  1.0000
  C   C982      1.0  0.00822  0.32273  0.61512  1.0000
  H   H768      1.0  0.11208  0.41676  0.60512  1.0000
  C   C983      1.0  0.05057  0.27103  0.49150  1.0000
  C   C984      1.0  0.14228  0.42565  0.80627  1.0000
  H   H769      1.0  0.06670  0.32492  0.57562  1.0000
  H   H770      1.0  0.00888  0.40232  0.66209  1.0000
  C   C985      1.0  0.04620  0.28481  0.48873  1.0000
  H   H771      1.0  0.99391  0.45596  0.71917  1.0000
  C   C986      1.0  0.09970  0.47277  0.72849  1.0000
  C   C987      1.0  0.06158  0.31221  0.61877  1.0000
  C   C988      1.0  0.07196  0.30984  0.62510  1.0000
  H   H772      1.0  0.04109  0.35077  0.60880  1.0000
  C   C989      1.0  0.09152  0.28692  0.51456  1.0000
  C   C990      1.0  0.10570  0.44379  0.76042  1.0000
  H   H773      1.0  0.07452  0.23838  0.54211  1.0000
  C   C991      1.0  0.07300  0.27337  0.48829  1.0000
  C   C992      1.0  0.00755  0.37676  0.81676  1.0000
  C   C993      1.0  0.04213  0.41432  0.77289  1.0000
  H   H774      1.0  0.04925  0.41965  0.77289  1.0000
  C   C994      1.0  0.04961  0.36553  0.65434  1.0000
  C   C995      1.0  0.05262  0.26032  0.52478  1.0000
  H   H775      1.0  0.00732  0.28800  0.54061  1.0000
  H   H776      1.0  0.21582  0.33283  0.84066  1.0000
  C   C996      1.0  0.10129  0.44689  0.74853  1.0000
  P   P38       1.0  0.09096  0.46287  0.74309  1.0000
  H   H777      1.0  0.11672  0.42889  0.77379  1.0000
  C   C997      1.0  0.00625  0.38263  0.79345  1.0000
  C   C998      1.0  0.01367  0.38121  0.76615  1.0000
  H   H778      1.0  0.03559  0.31723  0.56562  1.0000
  C   C999      1.0  0.05032  0.35677  0.67766  1.0000
  H   H779      1.0  0.03777  0.36759  0.81565  1.0000
  P   P39       1.0  0.04649  0.32627  0.59996  1.0000
  C   C1000     1.0  0.02051  0.32351  0.60656  1.0000
  C   C1001     1.0  0.04258  0.35387  0.72136  1.0000
  H   H780      1.0  0.05486  0.34933  0.68518  1.0000
  C   C1002     1.0  0.17704  0.47253  0.94174  1.0000
  H   H781      1.0  0.15838  0.42512  0.81463  1.0000
  C   C1003     1.0  0.11345  0.43127  0.76453  1.0000
  C   C1004     1.0  0.10454  0.43714  0.74102  1.0000
  H   H782      1.0  0.10101  0.43919  0.73196  1.0000
  H   H783      1.0  0.06466  0.28964  0.56583  1.0000
  C   C1005     1.0  0.02619  0.37267  0.76470  1.0000
  C   C1006     1.0  0.00386  0.37894  0.76136  1.0000
  H   H784      1.0  0.03398  0.37432  0.76810  1.0000
  H   H785      1.0  0.06879  0.47075  0.56837  1.0000
  C   C1007     1.0  0.02707  0.47504  0.55429  1.0000
  H   H786      1.0  0.04654  0.26075  0.51818  1.0000
  C   C1008     1.0  0.05970  0.32332  0.60830  1.0000
  H   H787      1.0  0.08287  0.37876  0.48857  1.0000
  C   C1009     1.0  0.06030  0.27142  0.53726  1.0000
  H   H788      1.0  0.16378  0.42333  0.84041  1.0000
  C   C1010     1.0  0.16970  0.37399  0.81991  1.0000
  C   C1011     1.0  0.00366  0.46973  0.57188  1.0000
  P   P40       1.0  0.20319  0.47534  0.93475  1.0000
  H   H789      1.0  0.11698  0.29623  0.48995  1.0000
  C   C1012     1.0  0.11686  0.42175  0.75687  1.0000
  C   C1013     1.0  0.11237  0.42466  0.74513  1.0000
  C   C1014     1.0  0.06058  0.24813  0.52964  1.0000
  H   H790      1.0  0.12291  0.41207  0.76010  1.0000
  H   H791      1.0  0.11493  0.41720  0.73925  1.0000
  C   C1015     1.0  0.04198  0.35209  0.79055  1.0000
  H   H792      1.0  0.05401  0.23888  0.49274  1.0000
  C   C1016     1.0  0.03348  0.39440  0.78052  1.0000
  C   C1017     1.0  0.08063  0.31845  0.62088  1.0000
  C   C1018     1.0  0.00925  0.26358  0.50723  1.0000
  C   C1019     1.0  0.15937  0.37373  0.87285  1.0000
  H   H793      1.0  0.20940  0.37208  0.90304  1.0000
  C   C1020     1.0  0.03615  0.35656  0.80236  1.0000
  H   H794      1.0  0.18003  0.44336  0.89271  1.0000
  H   H795      1.0  0.02152  0.30102  0.57084  1.0000
  C   C1021     1.0  0.03709  0.39318  0.69827  1.0000
  C   C1022     1.0  0.02875  0.36179  0.75894  1.0000
  H   H796      1.0  0.06207  0.47126  0.92125  1.0000
  C   C1023     1.0  0.04278  0.40128  0.78019  1.0000
  H   H797      1.0  0.02182  0.32354  0.59616  1.0000
  C   C1024     1.0  0.06865  0.33173  0.60391  1.0000
  H   H798      1.0  0.04702  0.28579  0.58603  1.0000
  H   H799      1.0  0.04883  0.43043  0.61935  1.0000
  C   C1025     1.0  0.00823  0.26895  0.53699  1.0000
  C   C1026     1.0  0.06785  0.25914  0.54243  1.0000
  H   H800      1.0  0.03686  0.34691  0.78699  1.0000
  C   C1027     1.0  0.03325  0.40689  0.69716  1.0000
  H   H801      1.0  0.14503  0.38356  0.80292  1.0000
  C   C1028     1.0  0.01884  0.35942  0.75448  1.0000
  H   H802      1.0  0.03850  0.35540  0.75771  1.0000
  H   H803      1.0  0.99125  0.38395  0.87773  1.0000
  H   H804      1.0  0.03911  0.30138  0.60110  1.0000
  C   C1029     1.0  0.07900  0.32935  0.61025  1.0000
  C   C1030     1.0  0.22137  0.37579  0.91430  1.0000
  H   H805      1.0  0.22755  0.44632  0.86442  1.0000
  H   H806      1.0  0.15184  0.45394  0.62486  1.0000
  C   C1031     1.0  0.00587  0.29619  0.51312  1.0000
  H   H807      1.0  0.20869  0.38655  0.94335  1.0000
  H   H808      1.0  0.05252  0.46873  0.94553  1.0000
  H   H809      1.0  0.03414  0.38435  0.78627  1.0000
  P   P41       1.0  0.03338  0.36850  0.69839  1.0000
  C   C1032     1.0  0.99714  0.26532  0.51648  1.0000
  S   S135      1.0  0.23476  0.41308  0.90943  1.0000
  C   C1033     1.0  0.05181  0.31479  0.58902  1.0000
  C   C1034     1.0  0.04659  0.30343  0.59215  1.0000
  H   H810      1.0  0.06189  0.36740  0.69240  1.0000
  C   C1035     1.0  0.00108  0.31374  0.54397  1.0000
  H   H811      1.0  0.02078  0.35100  0.75001  1.0000
  C   C1036     1.0  0.22314  0.43175  0.93378  1.0000
  C   C1037     1.0  0.06214  0.31659  0.57781  1.0000
  H   H812      1.0  0.06778  0.34009  0.59551  1.0000
  H   H813      1.0  0.99313  0.42541  0.80003  1.0000
  H   H814      1.0  0.09916  0.48244  0.85701  1.0000
  C   C1038     1.0  0.99926  0.42885  0.81596  1.0000
  C   C1039     1.0  0.12044  0.47884  0.80873  1.0000
  H   H815      1.0  0.02664  0.35462  0.80802  1.0000
  H   H816      1.0  0.22338  0.39174  0.88585  1.0000
  H   H817      1.0  0.15180  0.46288  0.85800  1.0000
  H   H818      1.0  0.05047  0.39650  0.78569  1.0000
  C   C1040     1.0  0.12961  0.45536  0.84587  1.0000
  C   C1041     1.0  0.02498  0.32034  0.56871  1.0000
  C   C1042     1.0  0.02139  0.45957  0.63105  1.0000
  H   H819      1.0  0.15319  0.47938  0.83663  1.0000
  C   C1043     1.0  0.22433  0.41486  0.89883  1.0000
  C   C1044     1.0  0.03568  0.44109  0.68366  1.0000
  H   H820      1.0  0.01708  0.46378  0.74127  1.0000
  C   C1045     1.0  0.22771  0.42019  0.88514  1.0000
  C   C1046     1.0  0.21174  0.45669  0.88510  1.0000
  C   C1047     1.0  0.06662  0.30766  0.56937  1.0000
  H   H821      1.0  0.07440  0.30925  0.56056  1.0000
  C   C1048     1.0  0.99913  0.44235  0.59246  1.0000
  C   C1049     1.0  0.00994  0.46796  0.81214  1.0000
  C   C1050     1.0  0.22163  0.44819  0.97597  1.0000
  H   H822      1.0  0.03804  0.46094  0.87358  1.0000
  H   H823      1.0  0.17528  0.48259  0.82417  1.0000
  C   C1051     1.0  0.22987  0.40708  0.96475  1.0000
  H   H824      1.0  0.20983  0.40652  0.91479  1.0000
  H   H825      1.0  0.19168  0.37914  0.85477  1.0000
  H   H826      1.0  0.10944  0.45806  0.60254  1.0000
  C   C1052     1.0  0.14077  0.36389  0.88537  1.0000
  C   C1053     1.0  0.15207  0.46468  0.89509  1.0000
  C   C1054     1.0  0.15813  0.46460  0.88175  1.0000
  H   H827      1.0  0.02537  0.38411  0.67361  1.0000
  H   H828      1.0  0.01725  0.26744  0.50779  1.0000
  H   H829      1.0  0.11389  0.44935  0.80715  1.0000
  C   C1055     1.0  0.07664  0.36375  0.48365  1.0000
  H   H830      1.0  0.16635  0.47588  0.86262  1.0000
  C   C1056     1.0  0.06110  0.29661  0.57232  1.0000
  C   C1057     1.0  0.05114  0.29446  0.58373  1.0000
  H   H831      1.0  0.22989  0.38047  0.92802  1.0000
  C   C1058     1.0  0.07151  0.46730  0.72887  1.0000
  H   H832      1.0  0.18001  0.36913  0.81862  1.0000
  H   H833      1.0  0.01073  0.24842  0.53646  1.0000
  C   C1059     1.0  0.08571  0.47292  0.75541  1.0000
  C   C1060     1.0  0.19743  0.37909  0.92035  1.0000
  H   H834      1.0  0.21954  0.39438  0.86357  1.0000
  C   C1061     1.0  0.99944  0.37249  0.79608  1.0000
  C   C1062     1.0  0.23020  0.37450  0.86172  1.0000
  C   C1063     1.0  0.19675  0.44315  0.89993  1.0000
  H   H835      1.0  0.04493  0.47704  0.85282  1.0000
  H   H836      1.0  0.04010  0.41226  0.69775  1.0000
  C   C1064     1.0  0.22459  0.46558  0.85088  1.0000
  H   H837      1.0  0.03590  0.45617  0.58485  1.0000
  S   S136      1.0  0.15629  0.45462  0.97337  1.0000
  C   C1065     1.0  0.07098  0.48273  0.65479  1.0000
  C   C1066     1.0  0.03648  0.47600  0.75471  1.0000
  C   C1067     1.0  0.04499  0.47859  0.86238  1.0000
  C   C1068     1.0  0.00848  0.42307  0.65927  1.0000
  H   H838      1.0  0.00265  0.24556  0.48931  1.0000
  H   H839      1.0  0.20635  0.43094  0.92742  1.0000
  C   C1069     1.0  0.23135  0.40244  0.95326  1.0000
  H   H840      1.0  0.07876  0.35691  0.70570  1.0000
  H   H841      1.0  0.99221  0.34108  0.51351  1.0000
  C   C1070     1.0  0.09510  0.24544  0.51033  1.0000
  H   H842      1.0  0.21468  0.44439  0.90405  1.0000
  C   C1071     1.0  0.19745  0.47555  0.84942  1.0000
  C   C1072     1.0  0.01705  0.31118  0.57173  1.0000
  C   C1073     1.0  0.00520  0.35809  0.59580  1.0000
  C   C1074     1.0  0.01921  0.33359  0.56932  1.0000
  H   H843      1.0  0.15819  0.40341  0.83859  1.0000
  C   C1075     1.0  0.22098  0.37986  0.92580  1.0000
  C   C1076     1.0  0.00647  0.43572  0.65083  1.0000
  H   H844      1.0  0.07373  0.25854  0.54932  1.0000
  C   C1077     1.0  0.18584  0.38873  0.85102  1.0000
  H   H845      1.0  0.03259  0.35287  0.72598  1.0000
  C   C1078     1.0  0.10584  0.28270  0.48939  1.0000
  C   C1079     1.0  0.16198  0.47592  0.87302  1.0000
  C   C1080     1.0  0.06055  0.46478  0.72635  1.0000
  C   C1081     1.0  0.12370  0.44428  0.80862  1.0000
  H   H846      1.0  0.99349  0.32663  0.49548  1.0000
  H   H847      1.0  0.03244  0.43186  0.65707  1.0000
  H   H848      1.0  0.18336  0.42139  0.84913  1.0000
  S   S137      1.0  0.98924  0.39360  0.72458  1.0000
  H   H849      1.0  0.00505  0.46288  0.80822  1.0000
  C   C1082     1.0  0.08942  0.44856  0.84360  1.0000
  H   H850      1.0  0.01724  0.42410  0.69565  1.0000
  H   H851      1.0  0.14049  0.47982  0.82054  1.0000
  H   H852      1.0  0.02778  0.46405  0.78798  1.0000
  C   C1083     1.0  0.14921  0.36361  0.86194  1.0000
  H   H853      1.0  0.04691  0.38815  0.69954  1.0000
  C   C1084     1.0  0.00394  0.48098  0.81342  1.0000
  H   H854      1.0  0.17519  0.34644  0.85849  1.0000
  H   H855      1.0  0.02544  0.34059  0.56671  1.0000
  H   H856      1.0  0.13266  0.35542  0.87431  1.0000
  C   C1085     1.0  0.19541  0.33832  0.85040  1.0000
  C   C1086     1.0  0.02752  0.46846  0.82176  1.0000
  C   C1087     1.0  0.06864  0.35609  0.71007  1.0000
  H   H857      1.0  0.99812  0.36052  0.87581  1.0000
  C   C1088     1.0  0.20425  0.41119  0.89600  1.0000
  C   C1089     1.0  0.06821  0.24767  0.53843  1.0000
  C   C1090     1.0  0.13034  0.46465  0.83366  1.0000
  C   C1091     1.0  0.05902  0.36194  0.70254  1.0000
  H   H858      1.0  0.01068  0.36134  0.61228  1.0000
  H   H859      1.0  0.07955  0.27448  0.51366  1.0000
  C   C1092     1.0  0.20716  0.34083  0.84164  1.0000
  C   C1093     1.0  0.14274  0.44237  0.81720  1.0000
  H   H860      1.0  0.10958  0.44084  0.83522  1.0000
  C   C1094     1.0  0.10215  0.44978  0.83647  1.0000
  C   C1095     1.0  0.02678  0.46793  0.77782  1.0000
  C   C1096     1.0  0.02820  0.38605  0.69796  1.0000
  H   H861      1.0  0.02504  0.44935  0.63016  1.0000
  C   C1097     1.0  0.19715  0.38306  0.93178  1.0000
  H   H862      1.0  0.04356  0.26474  0.49420  1.0000
  C   C1098     1.0  0.07956  0.45990  0.84538  1.0000
  C   C1099     1.0  0.17021  0.41370  0.84293  1.0000
  C   C1100     1.0  0.14876  0.43055  0.81281  1.0000
  C   C1101     1.0  0.08801  0.27884  0.50857  1.0000
  H   H863      1.0  0.14856  0.36087  0.85319  1.0000
  C   C1102     1.0  0.22271  0.43634  0.97233  1.0000
  C   C1103     1.0  0.06525  0.34936  0.72328  1.0000
  C   C1104     1.0  0.01411  0.25538  0.53961  1.0000
  C   C1105     1.0  0.04111  0.46953  0.87408  1.0000
  C   C1106     1.0  0.12983  0.43260  0.80405  1.0000
  H   H864      1.0  0.18824  0.37893  0.91823  1.0000
  C   C1107     1.0  0.16706  0.40232  0.84192  1.0000
  H   H865      1.0  0.19554  0.40717  0.90023  1.0000
  H   H866      1.0  0.06373  0.34832  0.66151  1.0000
  H   H867      1.0  0.01048  0.37849  0.82488  1.0000
  H   H868      1.0  0.04742  0.46734  0.77022  1.0000
  C   C1108     1.0  0.16261  0.37802  0.83182  1.0000
  P   P42       1.0  0.99463  0.27488  0.52873  1.0000
  C   C1109     1.0  0.06706  0.47103  0.81687  1.0000
  H   H869      1.0  0.11206  0.46973  0.64320  1.0000
  C   C1110     1.0  0.04588  0.36084  0.70810  1.0000
  C   C1111     1.0  0.11084  0.46690  0.71992  1.0000
  C   C1112     1.0  0.12096  0.47132  0.63585  1.0000
  C   C1113     1.0  0.19654  0.36398  0.83538  1.0000
  C   C1114     1.0  0.02432  0.25064  0.54648  1.0000
  H   H870      1.0  0.16671  0.37886  0.87265  1.0000
  H   H871      1.0  0.01463  0.31239  0.50049  1.0000
  C   C1115     1.0  0.00824  0.47611  0.64359  1.0000
  H   H872      1.0  0.00253  0.34145  0.69983  1.0000
  C   C1116     1.0  0.22511  0.38502  0.86826  1.0000
  C   C1117     1.0  0.15039  0.37049  0.88484  1.0000
  C   C1118     1.0  0.15001  0.38213  0.81089  1.0000
  C   C1119     1.0  0.16340  0.37609  0.80948  1.0000
  H   H873      1.0  0.23266  0.32562  0.93157  1.0000
  C   C1120     1.0  0.03380  0.37628  0.67120  1.0000
  C   C1121     1.0  0.14345  0.46226  0.62553  1.0000
  H   H874      1.0  0.22517  0.48001  0.94261  1.0000
  C   C1122     1.0  0.22898  0.43932  0.93807  1.0000
  C   C1123     1.0  0.05222  0.34819  0.72891  1.0000
  H   H875      1.0  0.06937  0.46155  0.78642  1.0000
  H   H876      1.0  0.01244  0.37103  0.72218  1.0000
  H   H877      1.0  0.03427  0.38283  0.65023  1.0000
  C   C1124     1.0  0.03967  0.36705  0.68121  1.0000
  C   C1125     1.0  0.18420  0.34862  0.85167  1.0000
  C   C1126     1.0  0.06832  0.47458  0.94942  1.0000
  C   C1127     1.0  0.17497  0.38973  0.84578  1.0000
  C   C1128     1.0  0.20772  0.35366  0.83413  1.0000
  C   C1129     1.0  0.00103  0.25133  0.49666  1.0000
  C   C1130     1.0  0.07678  0.47479  0.80583  1.0000
  C   C1131     1.0  0.20892  0.38339  0.93453  1.0000
  C   C1132     1.0  0.21257  0.41046  0.90422  1.0000
  H   H878      1.0  0.13255  0.39067  0.82396  1.0000
  H   H879      1.0  0.14360  0.38755  0.84204  1.0000
  H   H880      1.0  0.19723  0.39930  0.85618  1.0000
  H   H881      1.0  0.21681  0.46928  0.90861  1.0000
  S   S138      1.0  0.08616  0.46796  0.58576  1.0000
  H   H882      1.0  0.01317  0.47232  0.60087  1.0000
  H   H883      1.0  0.07840  0.35641  0.49263  1.0000
  C   C1133     1.0  0.03497  0.44761  0.59293  1.0000
  H   H884      1.0  0.06585  0.47450  0.69153  1.0000
  H   H885      1.0  0.02901  0.24018  0.54822  1.0000
  H   H886      1.0  0.05055  0.44984  0.60043  1.0000
  C   C1134     1.0  0.22255  0.45231  0.93906  1.0000
  H   H887      1.0  0.14534  0.48254  0.97101  1.0000
  H   H888      1.0  0.07599  0.47515  0.72217  1.0000
  C   C1135     1.0  0.00675  0.45927  0.72947  1.0000
  H   H889      1.0  0.22067  0.46030  0.88308  1.0000
  C   C1136     1.0  0.21287  0.42901  0.97830  1.0000
  C   C1137     1.0  0.09529  0.27644  0.49607  1.0000
  H   H890      1.0  0.03282  0.46717  0.61174  1.0000
  H   H891      1.0  0.10556  0.47398  0.75484  1.0000
  S   S139      1.0  0.06326  0.23383  0.52325  1.0000
  H   H892      1.0  0.05012  0.47316  0.62223  1.0000
  C   C1138     1.0  0.02696  0.46249  0.56271  1.0000
  H   H893      1.0  0.01516  0.42649  0.54453  1.0000
  C   C1139     1.0  0.08244  0.47244  0.84006  1.0000
  C   C1140     1.0  0.04537  0.47002  0.64359  1.0000
  C   C1141     1.0  0.98693  0.26022  0.51553  1.0000
  C   C1142     1.0  0.99331  0.44980  0.60230  1.0000
  C   C1143     1.0  0.00279  0.43724  0.63880  1.0000
  C   C1144     1.0  0.06175  0.47193  0.94126  1.0000
  H   H894      1.0  0.03585  0.28925  0.48901  1.0000
  H   H895      1.0  0.00353  0.40499  0.64031  1.0000
  H   H896      1.0  0.00048  0.44699  0.63244  1.0000
  H   H897      1.0  0.03817  0.46450  0.89546  1.0000
  C   C1145     1.0  0.10512  0.46237  0.83098  1.0000
  H   H898      1.0  0.07470  0.48125  0.84101  1.0000
  H   H899      1.0  0.12342  0.44824  0.84853  1.0000
  C   C1146     1.0  0.02589  0.46960  0.62065  1.0000
  C   C1147     1.0  0.10126  0.44756  0.96636  1.0000
  H   H900      1.0  0.23126  0.43299  0.96501  1.0000
  H   H901      1.0  0.22856  0.37568  0.85188  1.0000
  H   H902      1.0  0.12859  0.46332  0.87765  1.0000
  C   C1148     1.0  0.12122  0.47814  0.79561  1.0000
  H   H903      1.0  0.99110  0.34914  0.55220  1.0000
  H   H904      1.0  0.03680  0.47817  0.64386  1.0000
  C   C1149     1.0  0.98985  0.45607  0.66468  1.0000
  C   C1150     1.0  0.15036  0.47603  0.89986  1.0000
  H   H905      1.0  0.14573  0.47617  0.91019  1.0000
  C   C1151     1.0  0.09252  0.23929  0.49124  1.0000
  H   H906      1.0  0.99185  0.44347  0.68407  1.0000
  H   H907      1.0  0.22973  0.48143  0.88851  1.0000
  C   C1152     1.0  0.18649  0.47903  0.93239  1.0000
  C   C1153     1.0  0.99354  0.41267  0.76134  1.0000
  C   C1154     1.0  0.05840  0.23827  0.48244  1.0000
  C   C1155     1.0  0.99499  0.40577  0.77422  1.0000
  C   C1156     1.0  0.01303  0.47644  0.76162  1.0000
  C   C1157     1.0  0.18140  0.48060  0.83125  1.0000
  H   H908      1.0  0.99406  0.38525  0.76252  1.0000
  C   C1158     1.0  0.12302  0.46761  0.88605  1.0000
  C   C1159     1.0  0.21830  0.47878  0.90871  1.0000
  H   H909      1.0  0.08298  0.47865  0.91142  1.0000
  C   C1160     1.0  0.01109  0.48201  0.59444  1.0000
  C   C1161     1.0  0.08585  0.47994  0.93023  1.0000
  H   H910      1.0  0.99047  0.35612  0.62860  1.0000
  C   C1162     1.0  0.02149  0.48150  0.82300  1.0000
  C   C1163     1.0  0.11181  0.47943  0.93509  1.0000
  H   H911      1.0  0.08528  0.48035  0.95052  1.0000
  H   H912      1.0  0.99126  0.35699  0.81085  1.0000
  S   S140      1.0  0.98872  0.39954  0.59526  1.0000
  S   S141      1.0  0.16429  0.38873  0.97948  1.0000
  C   C1164     1.0  0.12359  0.48036  0.88621  1.0000
  C   C1165     1.0  0.19349  0.48096  0.96038  1.0000
  C   C1166     1.0  0.21650  0.48120  0.95061  1.0000
  Fe  Fe68      1.0  0.98814  0.39533  0.84225  1.0000
  H   H913      1.0  0.98694  0.33140  0.57928  1.0000
  C   C1167     1.0  0.98807  0.36435  0.88067  1.0000
  H   H914      1.0  0.98723  0.34738  0.72044  1.0000
  C   C1168     1.0  0.98696  0.46064  0.77535  1.0000
  C   C1169     1.0  0.02149  0.48286  0.62169  1.0000
  C   C1170     1.0  0.04511  0.48266  0.88702  1.0000
  H   H915      1.0  0.98659  0.40472  0.79513  1.0000
  H   H916      1.0  0.98689  0.38733  0.66524  1.0000
  H   H917      1.0  0.09056  0.24195  0.48134  1.0000
  S   S142      1.0  0.02897  0.23320  0.51703  1.0000
  S   S143      1.0  0.14253  0.52452  0.01922  1.0000
  H   H918      1.0  0.99147  0.54035  0.24234  1.0000
  Fe  Fe69      1.0  0.03461  0.53965  0.07178  1.0000
  S   S144      1.0  0.03968  0.51838  0.08270  1.0000
  S   S145      1.0  0.04793  0.55015  0.05420  1.0000
  Fe  Fe70      1.0  0.01947  0.51776  0.08167  1.0000
  S   S146      1.0  0.01239  0.50092  0.07962  1.0000
  S   S147      1.0  0.10789  0.52140  0.03774  1.0000
  H   H919      1.0  0.99147  0.67369  0.46389  1.0000
  Fe  Fe71      1.0  0.04979  0.54028  0.20540  1.0000
  S   S148      1.0  0.04683  0.51987  0.21610  1.0000
  S   S149      1.0  0.05770  0.55362  0.21276  1.0000
  Fe  Fe72      1.0  0.04303  0.53829  0.17986  1.0000
  S   S150      1.0  0.03934  0.51784  0.18888  1.0000
  S   S151      1.0  0.04176  0.54905  0.15870  1.0000
  H   H920      1.0  0.09705  0.55437  0.35604  1.0000
  Fe  Fe73      1.0  0.05753  0.51415  0.19660  1.0000
  S   S152      1.0  0.07557  0.49808  0.19300  1.0000
  C   C1171     1.0  0.19120  0.55776  0.00531  1.0000
  S   S153      1.0  0.06187  0.53411  0.18649  1.0000
  C   C1172     1.0  0.01843  0.56918  0.04397  1.0000
  C   C1173     1.0  0.99236  0.65690  0.39298  1.0000
  C   C1174     1.0  0.04881  0.51526  0.41399  1.0000
  C   C1175     1.0  0.06059  0.52874  0.36490  1.0000
  H   H921      1.0  0.01121  0.58651  0.24107  1.0000
  S   S154      1.0  0.20904  0.54066  0.01981  1.0000
  C   C1176     1.0  0.17349  0.51310  0.06605  1.0000
  H   H922      1.0  0.19869  0.56349  0.00052  1.0000
  H   H923      1.0  0.17674  0.57105  0.99461  1.0000
  C   C1177     1.0  0.18940  0.50171  0.04465  1.0000
  Fe  Fe74      1.0  0.06546  0.58257  0.46885  1.0000
  C   C1178     1.0  0.99743  0.57207  0.12293  1.0000
  S   S155      1.0  0.06193  0.57723  0.45138  1.0000
  H   H924      1.0  0.16748  0.51774  0.07417  1.0000
  H   H925      1.0  0.06598  0.49994  0.09094  1.0000
  H   H926      1.0  0.99825  0.58071  0.42224  1.0000
  P   P43       1.0  0.99823  0.56520  0.24262  1.0000
  C   C1179     1.0  0.03634  0.49056  0.06496  1.0000
  H   H927      1.0  0.98985  0.56689  0.28925  1.0000
  C   C1180     1.0  0.04553  0.54156  0.47123  1.0000
  C   C1181     1.0  0.00821  0.56799  0.03911  1.0000
  S   S156      1.0  0.10229  0.69947  0.45576  1.0000
  Fe  Fe75      1.0  0.06413  0.61360  0.35617  1.0000
  S   S157      1.0  0.05426  0.60909  0.37792  1.0000
  S   S158      1.0  0.07151  0.59926  0.34232  1.0000
  Fe  Fe76      1.0  0.06217  0.64286  0.35568  1.0000
  S   S159      1.0  0.05180  0.64086  0.37708  1.0000
  S   S160      1.0  0.06617  0.66180  0.34116  1.0000
  Fe  Fe77      1.0  0.06658  0.62156  0.38043  1.0000
  S   S161      1.0  0.07661  0.61819  0.39725  1.0000
  Fe  Fe78      1.0  0.04054  0.62867  0.37261  1.0000
  S   S162      1.0  0.01865  0.63320  0.37883  1.0000
  S   S163      1.0  0.07788  0.62436  0.35909  1.0000
  S   S164      1.0  0.04946  0.63238  0.35085  1.0000
  Fe  Fe79      1.0  0.04725  0.55327  0.28892  1.0000
  S   S165      1.0  0.04773  0.53173  0.29213  1.0000
  S   S166      1.0  0.04835  0.56772  0.26896  1.0000
  Fe  Fe80      1.0  0.04251  0.55246  0.31876  1.0000
  S   S167      1.0  0.04222  0.53076  0.32443  1.0000
  S   S168      1.0  0.03662  0.56411  0.33502  1.0000
  Fe  Fe81      1.0  0.05952  0.52880  0.30727  1.0000
  S   S169      1.0  0.07702  0.51201  0.31003  1.0000
  Fe  Fe82      1.0  0.03047  0.53540  0.30892  1.0000
  S   S170      1.0  0.01428  0.52506  0.31191  1.0000
  S   S171      1.0  0.06086  0.55024  0.30258  1.0000
  S   S172      1.0  0.02899  0.55726  0.30478  1.0000
  H   H928      1.0  0.04142  0.50976  0.42010  1.0000
  H   H929      1.0  0.00024  0.55878  0.17593  1.0000
  C   C1182     1.0  0.99493  0.52121  0.27589  1.0000
  H   H930      1.0  0.12470  0.53103  0.04793  1.0000
  C   C1183     1.0  0.98954  0.53049  0.30783  1.0000
  C   C1184     1.0  0.03083  0.55280  0.38891  1.0000
  C   C1185     1.0  0.15833  0.48365  0.99607  1.0000
  S   S173      1.0  0.06269  0.71804  0.35188  1.0000
  S   S174      1.0  0.06005  0.71158  0.39085  1.0000
  C   C1186     1.0  0.07452  0.49566  0.31524  1.0000
  C   C1187     1.0  0.18589  0.50495  0.06707  1.0000
  H   H931      1.0  0.02575  0.56688  0.23069  1.0000
  H   H932      1.0  0.99704  0.60843  0.47374  1.0000
  C   C1188     1.0  0.06407  0.49202  0.31277  1.0000
  C   C1189     1.0  0.00321  0.57348  0.10933  1.0000
  H   H933      1.0  0.01691  0.59877  0.34201  1.0000
  H   H934      1.0  0.05723  0.49939  0.30736  1.0000
  C   C1190     1.0  0.06149  0.58982  0.34027  1.0000
  C   C1191     1.0  0.04923  0.58881  0.34887  1.0000
  C   C1192     1.0  0.04180  0.58076  0.34723  1.0000
  C   C1193     1.0  0.04641  0.57389  0.33685  1.0000
  C   C1194     1.0  0.05859  0.57501  0.32818  1.0000
  C   C1195     1.0  0.06612  0.58288  0.32994  1.0000
  H   H935      1.0  0.04560  0.59403  0.35692  1.0000
  H   H936      1.0  0.03248  0.57979  0.35410  1.0000
  H   H937      1.0  0.06223  0.56976  0.32015  1.0000
  H   H938      1.0  0.07559  0.58359  0.32328  1.0000
  C   C1196     1.0  0.06547  0.67684  0.34527  1.0000
  C   C1197     1.0  0.06209  0.67868  0.35841  1.0000
  C   C1198     1.0  0.06139  0.69121  0.36078  1.0000
  C   C1199     1.0  0.06406  0.70183  0.35003  1.0000
  C   C1200     1.0  0.06742  0.69984  0.33704  1.0000
  C   C1201     1.0  0.06812  0.68748  0.33468  1.0000
  H   H939      1.0  0.06002  0.67051  0.36666  1.0000
  H   H940      1.0  0.05851  0.69278  0.37081  1.0000
  H   H941      1.0  0.06943  0.70796  0.32869  1.0000
  H   H942      1.0  0.07072  0.68619  0.32454  1.0000
  C   C1202     1.0  0.99782  0.59903  0.38954  1.0000
  H   H943      1.0  0.12124  0.62888  0.47675  1.0000
  C   C1203     1.0  0.99715  0.62246  0.38581  1.0000
  C   C1204     1.0  0.01090  0.61988  0.38293  1.0000
  C   C1205     1.0  0.01816  0.60687  0.38310  1.0000
  C   C1206     1.0  0.01163  0.59640  0.38659  1.0000
  C   C1207     1.0  0.07843  0.55075  0.07301  1.0000
  H   H944      1.0  0.99164  0.50332  0.10485  1.0000
  H   H945      1.0  0.02878  0.60488  0.38041  1.0000
  H   H946      1.0  0.01726  0.58635  0.38671  1.0000
  C   C1208     1.0  0.09804  0.70548  0.44017  1.0000
  C   C1209     1.0  0.08491  0.71037  0.43885  1.0000
  C   C1210     1.0  0.08207  0.71518  0.42605  1.0000
  C   C1211     1.0  0.09239  0.71497  0.41469  1.0000
  C   C1212     1.0  0.10543  0.71008  0.41613  1.0000
  C   C1213     1.0  0.10823  0.70533  0.42879  1.0000
  H   H947      1.0  0.07700  0.71052  0.44765  1.0000
  H   H948      1.0  0.20758  0.48845  0.98132  1.0000
  H   H949      1.0  0.11340  0.70989  0.40738  1.0000
  H   H950      1.0  0.11834  0.70149  0.42978  1.0000
  C   C1214     1.0  0.06604  0.58849  0.43628  1.0000
  C   C1215     1.0  0.07343  0.59759  0.43540  1.0000
  C   C1216     1.0  0.07661  0.60660  0.42333  1.0000
  C   C1217     1.0  0.07245  0.60658  0.41208  1.0000
  C   C1218     1.0  0.06491  0.59757  0.41297  1.0000
  C   C1219     1.0  0.06174  0.58851  0.42507  1.0000
  H   H951      1.0  0.07669  0.59770  0.44403  1.0000
  H   H952      1.0  0.08208  0.61380  0.42275  1.0000
  H   H953      1.0  0.06163  0.59752  0.40436  1.0000
  H   H954      1.0  0.05597  0.58152  0.42577  1.0000
  H   H955      1.0  0.09818  0.49552  0.20758  1.0000
  C   C1220     1.0  0.01204  0.63616  0.45798  1.0000
  C   C1221     1.0  0.99028  0.58103  0.43097  1.0000
  C   C1222     1.0  0.99259  0.57904  0.44373  1.0000
  H   H956      1.0  0.02743  0.71471  0.38606  1.0000
  C   C1223     1.0  0.98961  0.50270  0.33985  1.0000
  C   C1224     1.0  0.99450  0.66750  0.43718  1.0000
  H   H957      1.0  0.06766  0.65567  0.45922  1.0000
  C   C1225     1.0  0.99108  0.58577  0.01654  1.0000
  C   C1226     1.0  0.06794  0.52941  0.39818  1.0000
  H   H958      1.0  0.02218  0.49431  0.18840  1.0000
  H   H959      1.0  0.14604  0.49830  0.98376  1.0000
  C   C1227     1.0  0.05162  0.67003  0.46780  1.0000
  C   C1228     1.0  0.07059  0.50963  0.13047  1.0000
  C   C1229     1.0  0.05385  0.55696  0.22883  1.0000
  C   C1230     1.0  0.05497  0.56935  0.22963  1.0000
  C   C1231     1.0  0.05291  0.57246  0.24200  1.0000
  C   C1232     1.0  0.05002  0.56314  0.25383  1.0000
  C   C1233     1.0  0.04880  0.55068  0.25318  1.0000
  C   C1234     1.0  0.05062  0.54762  0.24065  1.0000
  H   H960      1.0  0.05759  0.57657  0.22058  1.0000
  H   H961      1.0  0.05392  0.58207  0.24236  1.0000
  H   H962      1.0  0.04681  0.54334  0.26227  1.0000
  H   H963      1.0  0.05006  0.53792  0.24011  1.0000
  S   S175      1.0  0.08591  0.61758  0.47225  1.0000
  C   C1235     1.0  0.98972  0.55676  0.29441  1.0000
  C   C1236     1.0  0.99050  0.58440  0.99453  1.0000
  H   H964      1.0  0.99488  0.61428  0.30536  1.0000
  C   C1237     1.0  0.99967  0.59644  0.25669  1.0000
  H   H965      1.0  0.10467  0.51018  0.13421  1.0000
  C   C1238     1.0  0.07317  0.48380  0.19010  1.0000
  H   H966      1.0  0.07006  0.51838  0.12247  1.0000
  C   C1239     1.0  0.03503  0.53980  0.12730  1.0000
  C   C1240     1.0  0.03647  0.54682  0.13590  1.0000
  C   C1241     1.0  0.03953  0.54009  0.14830  1.0000
  C   C1242     1.0  0.07567  0.50114  0.09062  1.0000
  H   H967      1.0  0.02275  0.53760  0.27727  1.0000
  H   H968      1.0  0.03260  0.54503  0.11781  1.0000
  H   H969      1.0  0.03529  0.55746  0.13295  1.0000
  C   C1243     1.0  0.03321  0.70068  0.34448  1.0000
  H   H970      1.0  0.10148  0.72274  0.46663  1.0000
  H   H971      1.0  0.09086  0.64343  0.46741  1.0000
  C   C1244     1.0  0.08927  0.54283  0.11200  1.0000
  H   H972      1.0  0.03499  0.70351  0.36296  1.0000
  Fe  Fe83      1.0  0.06989  0.72633  0.39325  1.0000
  C   C1245     1.0  0.09127  0.52956  0.04203  1.0000
  C   C1246     1.0  0.08580  0.54116  0.03376  1.0000
  C   C1247     1.0  0.07247  0.54738  0.03758  1.0000
  C   C1248     1.0  0.06454  0.54198  0.04960  1.0000
  C   C1249     1.0  0.07006  0.53043  0.05788  1.0000
  C   C1250     1.0  0.08340  0.52429  0.05413  1.0000
  H   H973      1.0  0.09183  0.54532  0.02445  1.0000
  H   H974      1.0  0.06828  0.55638  0.03118  1.0000
  H   H975      1.0  0.06411  0.52634  0.06724  1.0000
  H   H976      1.0  0.08764  0.51541  0.06063  1.0000
  H   H977      1.0  0.01026  0.50417  0.28046  1.0000
  H   H978      1.0  0.09668  0.53094  0.14262  1.0000
  C   C1251     1.0  0.00499  0.60259  0.46765  1.0000
  H   H979      1.0  0.00470  0.66400  0.43805  1.0000
  C   C1252     1.0  0.18377  0.53926  0.02167  1.0000
  C   C1253     1.0  0.00295  0.66948  0.47869  1.0000
  H   H980      1.0  0.08787  0.57691  0.36065  1.0000
  H   H981      1.0  0.18569  0.53064  0.02946  1.0000
  H   H982      1.0  0.16438  0.53703  0.02220  1.0000
  Fe  Fe84      1.0  0.22654  0.54578  0.00374  1.0000
  C   C1254     1.0  0.12953  0.72201  0.43781  1.0000
  C   C1255     1.0  0.10760  0.72498  0.47180  1.0000
  H   H983      1.0  0.00932  0.56691  0.47495  1.0000
  H   H984      1.0  0.07198  0.71901  0.42497  1.0000
  H   H985      1.0  0.99598  0.64660  0.39742  1.0000
  C   C1256     1.0  0.08328  0.48929  0.05786  1.0000
  H   H986      1.0  0.10264  0.51012  0.11193  1.0000
  H   H987      1.0  0.99989  0.50262  0.12439  1.0000
  C   C1257     1.0  0.05717  0.52967  0.39317  1.0000
  C   C1258     1.0  0.05826  0.65723  0.46623  1.0000
  H   H988      1.0  0.99577  0.49985  0.23338  1.0000
  C   C1259     1.0  0.10692  0.53478  0.07899  1.0000
  H   H989      1.0  0.13782  0.54409  0.05256  1.0000
  S   S176      1.0  0.05719  0.60279  0.47331  1.0000
  Fe  Fe85      1.0  0.04124  0.72522  0.39855  1.0000
  C   C1260     1.0  0.18926  0.52506  0.99322  1.0000
  C   C1261     1.0  0.10359  0.48835  0.27106  1.0000
  C   C1262     1.0  0.05529  0.55572  0.09239  1.0000
  C   C1263     1.0  0.20429  0.51515  0.00806  1.0000
  C   C1264     1.0  0.07806  0.54392  0.08633  1.0000
  C   C1265     1.0  0.01611  0.54082  0.24258  1.0000
  H   H990      1.0  0.98847  0.51680  0.24659  1.0000
  H   H991      1.0  0.99834  0.64584  0.33430  1.0000
  H   H992      1.0  0.00608  0.60329  0.25438  1.0000
  H   H993      1.0  0.99786  0.54188  0.33482  1.0000
  C   C1266     1.0  0.02137  0.64045  0.40718  1.0000
  H   H994      1.0  0.07336  0.49979  0.16283  1.0000
  H   H995      1.0  0.21285  0.51557  0.01106  1.0000
  H   H996      1.0  0.00164  0.54346  0.04559  1.0000
  Fe  Fe86      1.0  0.12798  0.53745  0.98777  1.0000
  C   C1267     1.0  0.17176  0.54289  0.01755  1.0000
  H   H997      1.0  0.07238  0.50639  0.33899  1.0000
  C   C1268     1.0  0.99058  0.69132  0.47018  1.0000
  H   H998      1.0  0.07546  0.53480  0.39226  1.0000
  P   P44       1.0  0.19990  0.49473  0.03074  1.0000
  C   C1269     1.0  0.07729  0.51347  0.09098  1.0000
  C   C1270     1.0  0.18182  0.51555  0.99999  1.0000
  H   H999      1.0  0.99247  0.58815  0.98383  1.0000
  H   H1000     1.0  0.01991  0.58218  0.13238  1.0000
  H   H1001     1.0  0.99139  0.63249  0.38543  1.0000
  C   C1271     1.0  0.99585  0.53304  0.21324  1.0000
  C   C1272     1.0  0.00933  0.55070  0.24982  1.0000
  H   H1002     1.0  0.00144  0.52645  0.26794  1.0000
  H   H1003     1.0  0.02853  0.56722  0.03832  1.0000
  P   P45       1.0  0.99376  0.64082  0.44231  1.0000
  C   C1273     1.0  0.01582  0.63388  0.47004  1.0000
  H   H1004     1.0  0.16208  0.64364  0.41287  1.0000
  C   C1274     1.0  0.99417  0.70468  0.34779  1.0000
  S   S177      1.0  0.00924  0.52109  0.21868  1.0000
  C   C1275     1.0  0.01493  0.57796  0.10412  1.0000
  P   P46       1.0  0.05531  0.53932  0.37676  1.0000
  H   H1005     1.0  0.03404  0.48690  0.00590  1.0000
  H   H1006     1.0  0.13993  0.58265  0.98166  1.0000
  H   H1007     1.0  0.00776  0.53515  0.18579  1.0000
  H   H1008     1.0  0.02957  0.58298  0.16525  1.0000
  H   H1009     1.0  0.00408  0.48649  0.34740  1.0000
  C   C1276     1.0  0.15113  0.48803  0.98608  1.0000
  H   H1010     1.0  0.05555  0.49271  0.23492  1.0000
  C   C1277     1.0  0.10072  0.50449  0.08931  1.0000
  C   C1278     1.0  0.02816  0.72206  0.35016  1.0000
  C   C1279     1.0  0.11201  0.66250  0.46794  1.0000
  H   H1011     1.0  0.23152  0.61890  0.98646  1.0000
  C   C1280     1.0  0.00652  0.53220  0.15543  1.0000
  C   C1281     1.0  0.99005  0.55032  0.33227  1.0000
  C   C1282     1.0  0.09595  0.53100  0.13271  1.0000
  Fe  Fe87      1.0  0.07613  0.60010  0.47933  1.0000
  C   C1283     1.0  0.01981  0.58115  0.19979  1.0000
  H   H1012     1.0  0.03712  0.57579  0.20788  1.0000
  C   C1284     1.0  0.09788  0.48829  0.24075  1.0000
  H   H1013     1.0  0.14072  0.70501  0.42970  1.0000
  C   C1285     1.0  0.99254  0.57341  0.05900  1.0000
  C   C1286     1.0  0.12468  0.48961  0.05562  1.0000
  C   C1287     1.0  0.13175  0.49812  0.05680  1.0000
  C   C1288     1.0  0.14409  0.49892  0.04840  1.0000
  C   C1289     1.0  0.14943  0.49115  0.03888  1.0000
  H   H1014     1.0  0.17297  0.51588  0.99701  1.0000
  H   H1015     1.0  0.04714  0.56946  0.07625  1.0000
  H   H1016     1.0  0.12299  0.49187  0.02078  1.0000
  C   C1290     1.0  0.05580  0.56254  0.07914  1.0000
  H   H1017     1.0  0.06185  0.54509  0.34761  1.0000
  C   C1291     1.0  0.98671  0.66622  0.40091  1.0000
  C   C1292     1.0  0.00845  0.52844  0.16844  1.0000
  C   C1293     1.0  0.21695  0.49254  0.03131  1.0000
  H   H1018     1.0  0.01945  0.57890  0.09360  1.0000
  H   H1019     1.0  0.16394  0.66717  0.40485  1.0000
  C   C1294     1.0  0.06227  0.51490  0.36918  1.0000
  H   H1020     1.0  0.11521  0.48909  0.06230  1.0000
  H   H1021     1.0  0.12758  0.50422  0.06410  1.0000
  H   H1022     1.0  0.14943  0.50570  0.04914  1.0000
  H   H1023     1.0  0.15899  0.49179  0.03233  1.0000
  C   C1295     1.0  0.01709  0.71562  0.39082  1.0000
  S   S178      1.0  0.12523  0.51799  0.00167  1.0000
  C   C1296     1.0  0.02082  0.53846  0.26761  1.0000
  H   H1024     1.0  0.06759  0.56503  0.05913  1.0000
  S   S179      1.0  0.08517  0.58065  0.47297  1.0000
  Fe  Fe88      1.0  0.02944  0.52656  0.10104  1.0000
  C   C1297     1.0  0.16892  0.51537  0.05446  1.0000
  C   C1298     1.0  0.11440  0.54219  0.08155  1.0000
  H   H1025     1.0  0.21437  0.51240  0.03405  1.0000
  H   H1026     1.0  0.05819  0.63644  0.47285  1.0000
  H   H1027     1.0  0.99347  0.59076  0.02277  1.0000
  C   C1299     1.0  0.14067  0.71485  0.43047  1.0000
  C   C1300     1.0  0.02541  0.48799  0.07515  1.0000
  C   C1301     1.0  0.01166  0.64500  0.41763  1.0000
  S   S180      1.0  0.03120  0.54677  0.19765  1.0000
  H   H1028     1.0  0.03835  0.59365  0.46035  1.0000
  H   H1029     1.0  0.02081  0.50144  0.14620  1.0000
  C   C1302     1.0  0.01747  0.55888  0.38986  1.0000
  S   S181      1.0  0.12204  0.54861  0.00421  1.0000
  H   H1030     1.0  0.05275  0.48630  0.20020  1.0000
  H   H1031     1.0  0.01186  0.56318  0.39834  1.0000
  H   H1032     1.0  0.04377  0.52098  0.16136  1.0000
  C   C1303     1.0  0.11204  0.63993  0.42867  1.0000
  C   C1304     1.0  0.99634  0.54646  0.20917  1.0000
  C   C1305     1.0  0.04761  0.52253  0.40116  1.0000
  H   H1033     1.0  0.08682  0.55180  0.12845  1.0000
  H   H1034     1.0  0.00472  0.54961  0.20974  1.0000
  H   H1035     1.0  0.01154  0.61552  0.44012  1.0000
  H   H1036     1.0  0.02503  0.58468  0.18976  1.0000
  P   P47       1.0  0.00916  0.57469  0.44643  1.0000
  C   C1306     1.0  0.02189  0.57354  0.43142  1.0000
  C   C1307     1.0  0.02228  0.58463  0.42075  1.0000
  C   C1308     1.0  0.03290  0.58448  0.40972  1.0000
  C   C1309     1.0  0.04314  0.57323  0.40915  1.0000
  C   C1310     1.0  0.04284  0.56213  0.41971  1.0000
  C   C1311     1.0  0.03236  0.56232  0.43088  1.0000
  C   C1312     1.0  0.00216  0.59487  0.46070  1.0000
  C   C1313     1.0  0.00094  0.59150  0.35660  1.0000
  C   C1314     1.0  0.16931  0.55424  0.00755  1.0000
  H   H1037     1.0  0.02605  0.63264  0.47018  1.0000
  C   C1315     1.0  0.03955  0.48767  0.28073  1.0000
  H   H1038     1.0  0.06554  0.54083  0.10621  1.0000
  C   C1316     1.0  0.00792  0.63603  0.42957  1.0000
  H   H1039     1.0  0.16035  0.71479  0.41854  1.0000
  H   H1040     1.0  0.01452  0.59353  0.42108  1.0000
  H   H1041     1.0  0.03334  0.59322  0.40174  1.0000
  H   H1042     1.0  0.05146  0.57328  0.40069  1.0000
  H   H1043     1.0  0.05098  0.55355  0.41941  1.0000
  H   H1044     1.0  0.03272  0.55389  0.43922  1.0000
  H   H1045     1.0  0.00878  0.59846  0.32285  1.0000
  Fe  Fe89      1.0  0.12129  0.52867  0.01812  1.0000
  C   C1317     1.0  0.05285  0.64639  0.47383  1.0000
  H   H1046     1.0  0.00840  0.52707  0.46095  1.0000
  C   C1318     1.0  0.99066  0.61210  0.38896  1.0000
  H   H1047     1.0  0.04142  0.50859  0.14625  1.0000
  H   H1048     1.0  0.99601  0.71788  0.42076  1.0000
  C   C1319     1.0  0.08228  0.50320  0.22251  1.0000
  C   C1320     1.0  0.07765  0.50343  0.23602  1.0000
  C   C1321     1.0  0.08560  0.49634  0.24518  1.0000
  S   S182      1.0  0.23190  0.54004  0.98403  1.0000
  P   P48       1.0  0.08012  0.49828  0.26223  1.0000
  C   C1322     1.0  0.08020  0.51489  0.26301  1.0000
  C   C1323     1.0  0.06383  0.49492  0.26863  1.0000
  C   C1324     1.0  0.05469  0.50152  0.27811  1.0000
  C   C1325     1.0  0.04256  0.49798  0.28408  1.0000
  H   H1049     1.0  0.09172  0.48952  0.00446  1.0000
  C   C1326     1.0  0.01953  0.58627  0.16383  1.0000
  C   C1327     1.0  0.12559  0.54540  0.07211  1.0000
  C   C1328     1.0  0.08117  0.51716  0.27495  1.0000
  C   C1329     1.0  0.08132  0.52985  0.27583  1.0000
  C   C1330     1.0  0.08039  0.54043  0.26482  1.0000
  C   C1331     1.0  0.07966  0.53826  0.25283  1.0000
  C   C1332     1.0  0.07954  0.52558  0.25190  1.0000
  H   H1050     1.0  0.17302  0.51151  0.03499  1.0000
  H   H1051     1.0  0.99952  0.50050  0.16261  1.0000
  H   H1052     1.0  0.03507  0.62354  0.40053  1.0000
  H   H1053     1.0  0.00847  0.52479  0.14966  1.0000
  H   H1054     1.0  0.07629  0.50901  0.21539  1.0000
  H   H1055     1.0  0.06801  0.50949  0.23924  1.0000
  C   C1333     1.0  0.98931  0.58722  0.35880  1.0000
  H   H1056     1.0  0.05708  0.50914  0.28116  1.0000
  H   H1057     1.0  0.03564  0.50312  0.29148  1.0000
  C   C1334     1.0  0.01131  0.55970  0.37971  1.0000
  C   C1335     1.0  0.99366  0.49056  0.34829  1.0000
  C   C1336     1.0  0.19662  0.50578  0.01525  1.0000
  H   H1058     1.0  0.08173  0.50913  0.28366  1.0000
  H   H1059     1.0  0.08201  0.53149  0.28512  1.0000
  H   H1060     1.0  0.08011  0.55034  0.26562  1.0000
  H   H1061     1.0  0.07886  0.54650  0.24430  1.0000
  H   H1062     1.0  0.07887  0.52441  0.24247  1.0000
  H   H1063     1.0  0.00101  0.58527  0.19456  1.0000
  S   S183      1.0  0.14969  0.53333  0.98659  1.0000
  C   C1337     1.0  0.04690  0.62750  0.42865  1.0000
  C   C1338     1.0  0.04797  0.62380  0.44191  1.0000
  C   C1339     1.0  0.04815  0.63334  0.44833  1.0000
  C   C1340     1.0  0.04694  0.64664  0.44160  1.0000
  C   C1341     1.0  0.04527  0.65053  0.42841  1.0000
  C   C1342     1.0  0.04560  0.64077  0.42189  1.0000
  P   P49       1.0  0.04560  0.66725  0.41898  1.0000
  C   C1343     1.0  0.04080  0.67891  0.42975  1.0000
  C   C1344     1.0  0.06223  0.66703  0.40918  1.0000
  C   C1345     1.0  0.07278  0.65667  0.41261  1.0000
  C   C1346     1.0  0.08535  0.65591  0.40427  1.0000
  C   C1347     1.0  0.08755  0.66557  0.39255  1.0000
  C   C1348     1.0  0.07720  0.67609  0.38925  1.0000
  C   C1349     1.0  0.06457  0.67679  0.39750  1.0000
  C   C1350     1.0  0.04664  0.68985  0.42624  1.0000
  C   C1351     1.0  0.04312  0.69883  0.43456  1.0000
  C   C1352     1.0  0.03350  0.69713  0.44633  1.0000
  C   C1353     1.0  0.02730  0.68650  0.44970  1.0000
  C   C1354     1.0  0.03087  0.67744  0.44145  1.0000
  C   C1355     1.0  0.03439  0.67212  0.40783  1.0000
  C   C1356     1.0  0.03849  0.66858  0.39538  1.0000
  C   C1357     1.0  0.02999  0.67264  0.38658  1.0000
  C   C1358     1.0  0.01721  0.68000  0.39026  1.0000
  C   C1359     1.0  0.01299  0.68339  0.40269  1.0000
  C   C1360     1.0  0.02158  0.67965  0.41136  1.0000
  H   H1064     1.0  0.04763  0.61996  0.42345  1.0000
  H   H1065     1.0  0.04914  0.61345  0.44700  1.0000
  H   H1066     1.0  0.04957  0.63033  0.45841  1.0000
  H   H1067     1.0  0.04776  0.65375  0.44656  1.0000
  H   H1068     1.0  0.04545  0.64324  0.41142  1.0000
  H   H1069     1.0  0.07135  0.64895  0.42153  1.0000
  H   H1070     1.0  0.09332  0.64769  0.40680  1.0000
  H   H1071     1.0  0.09726  0.66491  0.38603  1.0000
  H   H1072     1.0  0.07892  0.68362  0.38018  1.0000
  H   H1073     1.0  0.05656  0.68480  0.39466  1.0000
  H   H1074     1.0  0.05366  0.69167  0.41692  1.0000
  H   H1075     1.0  0.04755  0.70738  0.43167  1.0000
  H   H1076     1.0  0.03068  0.70417  0.45272  1.0000
  H   H1077     1.0  0.01971  0.68539  0.45871  1.0000
  H   H1078     1.0  0.02583  0.66937  0.44417  1.0000
  H   H1079     1.0  0.04833  0.66280  0.39237  1.0000
  H   H1080     1.0  0.03333  0.67006  0.37692  1.0000
  H   H1081     1.0  0.01061  0.68327  0.38346  1.0000
  H   H1082     1.0  0.00314  0.68927  0.40542  1.0000
  H   H1083     1.0  0.01825  0.68291  0.42066  1.0000
  C   C1361     1.0  0.04111  0.52631  0.15203  1.0000
  C   C1362     1.0  0.00281  0.57460  0.06382  1.0000
  S   S184      1.0  0.07004  0.68713  0.47664  1.0000
  H   H1084     1.0  0.15941  0.52187  0.05355  1.0000
  C   C1363     1.0  0.04103  0.55201  0.47784  1.0000
  C   C1364     1.0  0.09036  0.54275  0.12473  1.0000
  C   C1365     1.0  0.08921  0.67129  0.43644  1.0000
  Fe  Fe90      1.0  0.14644  0.51487  0.00208  1.0000
  H   H1085     1.0  0.00293  0.67492  0.32829  1.0000
  H   H1086     1.0  0.08852  0.48639  0.02882  1.0000
  H   H1087     1.0  0.06951  0.53074  0.33129  1.0000
  H   H1088     1.0  0.03687  0.50068  0.05986  1.0000
  C   C1366     1.0  0.99879  0.63742  0.45788  1.0000
  H   H1089     1.0  0.04970  0.52037  0.47342  1.0000
  C   C1367     1.0  0.03808  0.54730  0.37786  1.0000
  C   C1368     1.0  0.07233  0.49919  0.15324  1.0000
  H   H1090     1.0  0.00468  0.59150  0.36496  1.0000
  C   C1369     1.0  0.01271  0.71678  0.40411  1.0000
  H   H1091     1.0  0.00323  0.48455  0.04796  1.0000
  C   C1370     1.0  0.98811  0.49857  0.24233  1.0000
  C   C1371     1.0  0.00715  0.67363  0.34728  1.0000
  C   C1372     1.0  0.01724  0.67062  0.35422  1.0000
  C   C1373     1.0  0.03038  0.66648  0.34794  1.0000
  C   C1374     1.0  0.03362  0.66557  0.33462  1.0000
  C   C1375     1.0  0.02368  0.66860  0.32759  1.0000
  C   C1376     1.0  0.01049  0.67263  0.33388  1.0000
  C   C1377     1.0  0.99125  0.50155  0.29309  1.0000
  H   H1092     1.0  0.02638  0.48469  0.03646  1.0000
  H   H1093     1.0  0.10740  0.49592  0.26300  1.0000
  C   C1378     1.0  0.99477  0.71649  0.38975  1.0000
  C   C1379     1.0  0.00307  0.49405  0.15562  1.0000
  H   H1094     1.0  0.18605  0.53294  0.98522  1.0000
  H   H1095     1.0  0.06803  0.49751  0.11906  1.0000
  C   C1380     1.0  0.17887  0.56191  0.00182  1.0000
  C   C1381     1.0  0.99439  0.57786  0.25208  1.0000
  H   H1096     1.0  0.98948  0.52026  0.31271  1.0000
  H   H1097     1.0  0.01504  0.67137  0.36450  1.0000
  H   H1098     1.0  0.03810  0.66398  0.35341  1.0000
  H   H1099     1.0  0.04387  0.66249  0.32982  1.0000
  H   H1100     1.0  0.02622  0.66776  0.31729  1.0000
  C   C1382     1.0  0.00615  0.53808  0.17575  1.0000
  C   C1383     1.0  0.06736  0.56007  0.06948  1.0000
  C   C1384     1.0  0.02988  0.70687  0.33218  1.0000
  H   H1101     1.0  0.07743  0.52198  0.41482  1.0000
  C   C1385     1.0  0.04145  0.66323  0.27951  1.0000
  C   C1386     1.0  0.03147  0.66395  0.27324  1.0000
  C   C1387     1.0  0.02464  0.65374  0.27716  1.0000
  C   C1388     1.0  0.02780  0.64279  0.28733  1.0000
  C   C1389     1.0  0.03784  0.64196  0.29366  1.0000
  C   C1390     1.0  0.04463  0.65229  0.28968  1.0000
  P   P50       1.0  0.04162  0.62775  0.30685  1.0000
  C   C1391     1.0  0.04194  0.61315  0.30146  1.0000
  C   C1392     1.0  0.05751  0.62655  0.31002  1.0000
  C   C1393     1.0  0.06843  0.61647  0.30651  1.0000
  C   C1394     1.0  0.08056  0.61563  0.30927  1.0000
  C   C1395     1.0  0.08187  0.62477  0.31560  1.0000
  C   C1396     1.0  0.07106  0.63478  0.31918  1.0000
  C   C1397     1.0  0.05891  0.63560  0.31650  1.0000
  C   C1398     1.0  0.03624  0.60287  0.31028  1.0000
  C   C1399     1.0  0.03645  0.59172  0.30590  1.0000
  C   C1400     1.0  0.04266  0.59055  0.29285  1.0000
  C   C1401     1.0  0.04845  0.60068  0.28401  1.0000
  C   C1402     1.0  0.04805  0.61199  0.28827  1.0000
  C   C1403     1.0  0.02942  0.62921  0.32217  1.0000
  C   C1404     1.0  0.01705  0.63800  0.32220  1.0000
  C   C1405     1.0  0.00785  0.63902  0.33424  1.0000
  C   C1406     1.0  0.01092  0.63129  0.34628  1.0000
  C   C1407     1.0  0.02317  0.62252  0.34629  1.0000
  C   C1408     1.0  0.03239  0.62151  0.33432  1.0000
  H   H1102     1.0  0.04681  0.67110  0.27642  1.0000
  H   H1103     1.0  0.02908  0.67241  0.26531  1.0000
  H   H1104     1.0  0.01693  0.65429  0.27227  1.0000
  H   H1105     1.0  0.02243  0.63494  0.29027  1.0000
  H   H1106     1.0  0.05248  0.65193  0.29424  1.0000
  H   H1107     1.0  0.06761  0.60901  0.30199  1.0000
  H   H1108     1.0  0.08882  0.60759  0.30696  1.0000
  H   H1109     1.0  0.09116  0.62386  0.31812  1.0000
  H   H1110     1.0  0.07204  0.64167  0.32438  1.0000
  H   H1111     1.0  0.05054  0.64319  0.31966  1.0000
  H   H1112     1.0  0.03180  0.60328  0.32057  1.0000
  H   H1113     1.0  0.03195  0.58384  0.31268  1.0000
  H   H1114     1.0  0.04304  0.58174  0.28962  1.0000
  H   H1115     1.0  0.05335  0.59964  0.27392  1.0000
  H   H1116     1.0  0.05271  0.61970  0.28135  1.0000
  H   H1117     1.0  0.01446  0.64414  0.31304  1.0000
  P   P51       1.0  0.99710  0.48432  0.30061  1.0000
  H   H1118     1.0  0.00387  0.63213  0.35564  1.0000
  H   H1119     1.0  0.02563  0.61663  0.35562  1.0000
  H   H1120     1.0  0.04193  0.61480  0.33455  1.0000
  H   H1121     1.0  0.20631  0.53220  0.99195  1.0000
  S   S185      1.0  0.02374  0.71796  0.41276  1.0000
  H   H1122     1.0  0.03004  0.52211  0.24237  1.0000
  C   C1409     1.0  0.19366  0.54639  0.01528  1.0000
  H   H1123     1.0  0.00694  0.65540  0.41613  1.0000
  C   C1410     1.0  0.08337  0.48606  0.32216  1.0000
  H   H1124     1.0  0.05574  0.67848  0.46192  1.0000
  C   C1411     1.0  0.00896  0.60876  0.28807  1.0000
  C   C1412     1.0  0.01536  0.59858  0.28123  1.0000
  C   C1413     1.0  0.01247  0.58603  0.28635  1.0000
  C   C1414     1.0  0.00331  0.58358  0.29840  1.0000
  H   H1125     1.0  0.00132  0.57378  0.30223  1.0000
  C   C1415     1.0  0.00254  0.58689  0.24911  1.0000
  C   C1416     1.0  0.12196  0.53398  0.05741  1.0000
  C   C1417     1.0  0.06073  0.48460  0.26528  1.0000
  C   C1418     1.0  0.11081  0.53069  0.06685  1.0000
  C   C1419     1.0  0.00664  0.57127  0.22578  1.0000
  C   C1420     1.0  0.02667  0.57604  0.21002  1.0000
  C   C1421     1.0  0.18551  0.50589  0.01089  1.0000
  C   C1422     1.0  0.99973  0.60635  0.30010  1.0000
  H   H1126     1.0  0.20342  0.49302  0.05739  1.0000
  H   H1127     1.0  0.12040  0.62311  0.40371  1.0000
  C   C1423     1.0  0.00109  0.54833  0.29835  1.0000
  H   H1128     1.0  0.04626  0.55750  0.09984  1.0000
  C   C1424     1.0  0.01505  0.57977  0.12613  1.0000
  C   C1425     1.0  0.12934  0.54134  0.06002  1.0000
  C   C1426     1.0  0.09923  0.51932  0.11529  1.0000
  H   H1129     1.0  0.13124  0.55126  0.07405  1.0000
  C   C1427     1.0  0.02759  0.62703  0.40867  1.0000
  H   H1130     1.0  0.04638  0.48345  0.15910  1.0000
  H   H1131     1.0  0.17942  0.49878  0.01619  1.0000
  H   H1132     1.0  0.22658  0.49556  0.00351  1.0000
  H   H1133     1.0  0.00138  0.54820  0.13947  1.0000
  H   H1134     1.0  0.02271  0.60030  0.27205  1.0000
  H   H1135     1.0  0.01751  0.57811  0.28107  1.0000
  C   C1428     1.0  0.01550  0.49050  0.19740  1.0000
  C   C1429     1.0  0.06631  0.54634  0.09597  1.0000
  C   C1430     1.0  0.98673  0.65843  0.43882  1.0000
  C   C1431     1.0  0.01506  0.49456  0.14644  1.0000
  H   H1136     1.0  0.02819  0.49753  0.31822  1.0000
  S   S186      1.0  0.08978  0.72057  0.39839  1.0000
  H   H1137     1.0  0.00178  0.56455  0.32883  1.0000
  H   H1138     1.0  0.09445  0.61569  0.44224  1.0000
  C   C1432     1.0  0.99973  0.57674  0.21550  1.0000
  C   C1433     1.0  0.00812  0.71541  0.38372  1.0000
  C   C1434     1.0  0.07198  0.51039  0.14281  1.0000
  C   C1435     1.0  0.00037  0.55542  0.15683  1.0000
  C   C1436     1.0  0.01802  0.60208  0.46753  1.0000
  C   C1437     1.0  0.06909  0.52214  0.41102  1.0000
  H   H1139     1.0  0.99899  0.49566  0.18814  1.0000
  C   C1438     1.0  0.02084  0.58111  0.11252  1.0000
  C   C1439     1.0  0.00957  0.55821  0.47166  1.0000
  H   H1140     1.0  0.11155  0.54567  0.09071  1.0000
  S   S187      1.0  0.01524  0.53818  0.06904  1.0000
  C   C1440     1.0  0.02497  0.52975  0.24795  1.0000
  C   C1441     1.0  0.06751  0.52635  0.34188  1.0000
  H   H1141     1.0  0.06780  0.49620  0.36311  1.0000
  H   H1142     1.0  0.06868  0.52153  0.09167  1.0000
  H   H1143     1.0  0.00453  0.70025  0.34731  1.0000
  C   C1442     1.0  0.00171  0.58264  0.15661  1.0000
  C   C1443     1.0  0.02551  0.72067  0.32893  1.0000
  C   C1444     1.0  0.01457  0.57856  0.15871  1.0000
  H   H1144     1.0  0.04420  0.48746  0.09977  1.0000
  C   C1445     1.0  0.99985  0.50859  0.28305  1.0000
  H   H1145     1.0  0.08708  0.54872  0.06521  1.0000
  C   C1446     1.0  0.00988  0.55899  0.45830  1.0000
  C   C1447     1.0  0.01244  0.58643  0.45367  1.0000
  H   H1146     1.0  0.00997  0.55193  0.29594  1.0000
  S   S188      1.0  0.00976  0.52404  0.10088  1.0000
  C   C1448     1.0  0.99245  0.54116  0.04586  1.0000
  C   C1449     1.0  0.99941  0.71721  0.41040  1.0000
  S   S189      1.0  0.15434  0.55926  0.00220  1.0000
  H   H1147     1.0  0.10954  0.67126  0.47204  1.0000
  H   H1148     1.0  0.10507  0.52522  0.06450  1.0000
  C   C1450     1.0  0.06651  0.50688  0.35984  1.0000
  C   C1451     1.0  0.23451  0.50178  0.03271  1.0000
  Fe  Fe91      1.0  0.02888  0.52590  0.20723  1.0000
  C   C1452     1.0  0.08686  0.55701  0.36120  1.0000
  C   C1453     1.0  0.08984  0.51526  0.09032  1.0000
  C   C1454     1.0  0.14119  0.64839  0.42116  1.0000
  C   C1455     1.0  0.02005  0.48460  0.20912  1.0000
  H   H1149     1.0  0.01142  0.71441  0.37353  1.0000
  C   C1456     1.0  0.00634  0.58148  0.20251  1.0000
  C   C1457     1.0  0.02555  0.58624  0.45337  1.0000
  S   S190      1.0  0.02559  0.54796  0.09027  1.0000
  H   H1150     1.0  0.07737  0.49931  0.05603  1.0000
  C   C1458     1.0  0.02418  0.61812  0.42066  1.0000
  S   S191      1.0  0.98945  0.58618  0.39337  1.0000
  P   P52       1.0  0.09203  0.53119  0.09078  1.0000
  H   H1151     1.0  0.02389  0.64726  0.39777  1.0000
  C   C1459     1.0  0.11157  0.66385  0.45470  1.0000
  C   C1460     1.0  0.99697  0.59367  0.30545  1.0000
  C   C1461     1.0  0.12203  0.48392  0.00486  1.0000
  C   C1462     1.0  0.06322  0.53441  0.35117  1.0000
  H   H1152     1.0  0.00689  0.55698  0.26811  1.0000
  C   C1463     1.0  0.00782  0.59564  0.34361  1.0000
  C   C1464     1.0  0.00888  0.53573  0.46391  1.0000
  C   C1465     1.0  0.11831  0.63998  0.45727  1.0000
  H   H1153     1.0  0.10897  0.67371  0.44866  1.0000
  C   C1466     1.0  0.01434  0.62259  0.43104  1.0000
  C   C1467     1.0  0.10046  0.51932  0.12795  1.0000
  C   C1468     1.0  0.03981  0.51929  0.14341  1.0000
  C   C1469     1.0  0.02742  0.52863  0.26039  1.0000
  C   C1470     1.0  0.00925  0.54773  0.45453  1.0000
  H   H1154     1.0  0.00889  0.54831  0.44436  1.0000
  C   C1471     1.0  0.00241  0.49139  0.19730  1.0000
  C   C1472     1.0  0.20066  0.52466  0.99704  1.0000
  C   C1473     1.0  0.11441  0.65259  0.44936  1.0000
  C   C1474     1.0  0.08174  0.56966  0.36388  1.0000
  H   H1155     1.0  0.01222  0.50173  0.30420  1.0000
  C   C1475     1.0  0.03695  0.52597  0.13096  1.0000
  C   C1476     1.0  0.99467  0.67776  0.47032  1.0000
  H   H1156     1.0  0.01947  0.63690  0.44878  1.0000
  C   C1477     1.0  0.99864  0.60219  0.16526  1.0000
  C   C1478     1.0  0.11544  0.64990  0.47590  1.0000
  H   H1157     1.0  0.08510  0.55210  0.10590  1.0000
  C   C1479     1.0  0.08541  0.64115  0.47756  1.0000
  C   C1480     1.0  0.04597  0.52850  0.47853  1.0000
  C   C1481     1.0  0.09468  0.49556  0.21810  1.0000
  C   C1482     1.0  0.98984  0.50764  0.12382  1.0000
  H   H1158     1.0  0.01459  0.54167  0.23275  1.0000
  H   H1159     1.0  0.05013  0.56728  0.37861  1.0000
  H   H1160     1.0  0.12092  0.63115  0.45329  1.0000
  C   C1483     1.0  0.98917  0.68116  0.43431  1.0000
  H   H1161     1.0  0.06049  0.50942  0.42884  1.0000
  Fe  Fe92      1.0  0.14375  0.54335  0.00378  1.0000
  C   C1484     1.0  0.09195  0.68495  0.40977  1.0000
  C   C1485     1.0  0.15165  0.73298  0.42545  1.0000
  C   C1486     1.0  0.99042  0.71712  0.40318  1.0000
  H   H1162     1.0  0.01188  0.51809  0.17282  1.0000
  C   C1487     1.0  0.06919  0.49776  0.12865  1.0000
  H   H1163     1.0  0.14056  0.63807  0.42481  1.0000
  H   H1164     1.0  0.11079  0.67168  0.40626  1.0000
  C   C1488     1.0  0.00200  0.55150  0.17004  1.0000
  H   H1165     1.0  0.02998  0.58450  0.10852  1.0000
  H   H1166     1.0  0.03925  0.52259  0.39746  1.0000
  H   H1167     1.0  0.00100  0.56455  0.38037  1.0000
  H   H1168     1.0  0.09306  0.69050  0.39951  1.0000
  Fe  Fe93      1.0  0.05835  0.72503  0.37102  1.0000
  S   S192      1.0  0.03656  0.51658  0.12006  1.0000
  H   H1169     1.0  0.02376  0.57304  0.06019  1.0000
  C   C1489     1.0  0.03223  0.70826  0.35348  1.0000
  C   C1490     1.0  0.10202  0.67442  0.41368  1.0000
  S   S193      1.0  0.16016  0.49476  0.00428  1.0000
  H   H1170     1.0  0.03450  0.52021  0.26438  1.0000
  C   C1491     1.0  0.06894  0.48661  0.13927  1.0000
  C   C1492     1.0  0.00311  0.59551  0.33277  1.0000
  C   C1493     1.0  0.01412  0.49219  0.31095  1.0000
  H   H1171     1.0  0.04893  0.54362  0.46048  1.0000
  H   H1172     1.0  0.03490  0.68195  0.47855  1.0000
  H   H1173     1.0  0.03373  0.57973  0.44822  1.0000
  C   C1494     1.0  0.11867  0.63865  0.47055  1.0000
  P   P53       1.0  0.11420  0.65457  0.43213  1.0000
  S   S194      1.0  0.23026  0.56623  0.99493  1.0000
  C   C1495     1.0  0.09351  0.53106  0.10724  1.0000
  H   H1174     1.0  0.11050  0.50567  0.08866  1.0000
  S   S195      1.0  0.07109  0.71689  0.47865  1.0000
  C   C1496     1.0  0.02828  0.59410  0.46024  1.0000
  C   C1497     1.0  0.00330  0.57516  0.13147  1.0000
  C   C1498     1.0  0.05954  0.51507  0.41892  1.0000
  C   C1499     1.0  0.07912  0.68179  0.43245  1.0000
  C   C1500     1.0  0.15341  0.65151  0.41449  1.0000
  C   C1501     1.0  0.10087  0.66776  0.42711  1.0000
  C   C1502     1.0  0.06856  0.57317  0.37035  1.0000
  C   C1503     1.0  0.07880  0.54787  0.36502  1.0000
  Fe  Fe94      1.0  0.08539  0.69858  0.47346  1.0000
  C   C1504     1.0  0.99136  0.59133  0.33489  1.0000
  C   C1505     1.0  0.12205  0.48324  0.01810  1.0000
  H   H1175     1.0  0.01545  0.60417  0.17097  1.0000
  H   H1176     1.0  0.03089  0.70093  0.32514  1.0000
  H   H1177     1.0  0.03548  0.55243  0.39677  1.0000
  C   C1506     1.0  0.12989  0.65855  0.42318  1.0000
  C   C1507     1.0  0.08055  0.68866  0.41914  1.0000
  H   H1178     1.0  0.07307  0.69721  0.41610  1.0000
  H   H1179     1.0  0.06459  0.58311  0.37203  1.0000
  H   H1180     1.0  0.01382  0.55538  0.36058  1.0000
  C   C1508     1.0  0.06912  0.51260  0.34621  1.0000
  C   C1509     1.0  0.01574  0.57248  0.05632  1.0000
  P   P54       1.0  0.99588  0.57286  0.14914  1.0000
  H   H1181     1.0  0.00940  0.72176  0.47620  1.0000
  H   H1182     1.0  0.09149  0.48877  0.32402  1.0000
  C   C1510     1.0  0.10325  0.63251  0.43785  1.0000
  H   H1183     1.0  0.08298  0.53806  0.36296  1.0000
  H   H1184     1.0  0.01128  0.61846  0.28412  1.0000
  C   C1511     1.0  0.11798  0.63666  0.41620  1.0000
  H   H1185     1.0  0.09803  0.63520  0.44727  1.0000
  C   C1512     1.0  0.99191  0.52785  0.04814  1.0000
  H   H1186     1.0  0.18946  0.50319  0.07604  1.0000
  C   C1513     1.0  0.19382  0.49925  0.05644  1.0000
  H   H1187     1.0  0.02925  0.60779  0.42193  1.0000
  C   C1514     1.0  0.01180  0.54946  0.26237  1.0000
  C   C1515     1.0  0.10237  0.48788  0.22724  1.0000
  C   C1516     1.0  0.15447  0.66477  0.41001  1.0000
  C   C1517     1.0  0.11578  0.62565  0.41332  1.0000
  H   H1188     1.0  0.03705  0.54411  0.35908  1.0000
  C   C1518     1.0  0.17673  0.50951  0.04389  1.0000
  H   H1189     1.0  0.10084  0.49464  0.04457  1.0000
  C   C1519     1.0  0.10110  0.62149  0.43497  1.0000
  C   C1520     1.0  0.10745  0.61799  0.42275  1.0000
  C   C1521     1.0  0.13111  0.67183  0.41902  1.0000
  H   H1190     1.0  0.07035  0.68490  0.43972  1.0000
  H   H1191     1.0  0.08800  0.66616  0.44681  1.0000
  C   C1522     1.0  0.01849  0.55444  0.36863  1.0000
  Fe  Fe95      1.0  0.00663  0.54453  0.08845  1.0000
  C   C1523     1.0  0.03975  0.67197  0.47720  1.0000
  C   C1524     1.0  0.22124  0.50305  0.03296  1.0000
  H   H1192     1.0  0.01056  0.56515  0.02963  1.0000
  H   H1193     1.0  0.12418  0.64268  0.40863  1.0000
  C   C1525     1.0  0.01159  0.59815  0.16704  1.0000
  H   H1194     1.0  0.02081  0.56949  0.15612  1.0000
  H   H1195     1.0  0.06037  0.51023  0.37965  1.0000
  C   C1526     1.0  0.14333  0.67492  0.41234  1.0000
  H   H1196     1.0  0.10575  0.60946  0.42051  1.0000
  H   H1197     1.0  0.12265  0.67981  0.42100  1.0000
  C   C1527     1.0  0.06039  0.56415  0.37399  1.0000
  C   C1528     1.0  0.06547  0.55140  0.37138  1.0000
  C   C1529     1.0  0.00251  0.54561  0.14963  1.0000
  C   C1530     1.0  0.03178  0.54815  0.36775  1.0000
  C   C1531     1.0  0.00086  0.53531  0.30541  1.0000
  C   C1532     1.0  0.02018  0.57099  0.22293  1.0000
  H   H1198     1.0  0.07247  0.51975  0.14438  1.0000
  H   H1199     1.0  0.12305  0.49296  0.99741  1.0000
  H   H1200     1.0  0.03692  0.69006  0.34690  1.0000
  H   H1201     1.0  0.14414  0.68520  0.40903  1.0000
  H   H1202     1.0  0.99176  0.70713  0.47810  1.0000
  H   H1203     1.0  0.00074  0.57683  0.07356  1.0000
  S   S196      1.0  0.03672  0.71133  0.47722  1.0000
  C   C1533     1.0  0.02314  0.48987  0.31895  1.0000
  H   H1204     1.0  0.99868  0.57095  0.10283  1.0000
  C   C1534     1.0  0.99364  0.59059  0.00273  1.0000
  H   H1205     1.0  0.98930  0.57717  0.21735  1.0000
  C   C1535     1.0  0.99227  0.56316  0.32871  1.0000
  H   H1206     1.0  0.99513  0.68821  0.43302  1.0000
  H   H1207     1.0  0.02317  0.72516  0.31929  1.0000
  H   H1208     1.0  0.10740  0.48379  0.08855  1.0000
  C   C1536     1.0  0.99377  0.48660  0.20899  1.0000
  H   H1209     1.0  0.99805  0.59915  0.99838  1.0000
  H   H1210     1.0  0.02935  0.48603  0.13095  1.0000
  C   C1537     1.0  0.15171  0.72036  0.42423  1.0000
  H   H1211     1.0  0.02020  0.60743  0.47355  1.0000
  P   P55       1.0  0.99012  0.67887  0.35542  1.0000
  C   C1538     1.0  0.98995  0.71848  0.34576  1.0000
  C   C1539     1.0  0.99484  0.69658  0.47836  1.0000
  C   C1540     1.0  0.98854  0.67402  0.37329  1.0000
  H   H1212     1.0  0.99797  0.65358  0.37311  1.0000
  H   H1213     1.0  0.00054  0.52008  0.04984  1.0000
  H   H1214     1.0  0.02807  0.72772  0.35713  1.0000
  C   C1541     1.0  0.99515  0.57018  0.04655  1.0000
  C   C1542     1.0  0.07093  0.48730  0.15146  1.0000
  C   C1543     1.0  0.05681  0.48309  0.23284  1.0000
  C   C1544     1.0  0.08648  0.49041  0.08992  1.0000
  C   C1545     1.0  0.99369  0.59448  0.16005  1.0000
  C   C1546     1.0  0.02454  0.72841  0.33795  1.0000
  C   C1547     1.0  0.09657  0.48659  0.05139  1.0000
  C   C1548     1.0  0.99341  0.66083  0.37921  1.0000
  H   H1215     1.0  0.99692  0.50784  0.33282  1.0000
  C   C1549     1.0  0.09901  0.49209  0.08922  1.0000
  H   H1216     1.0  0.03031  0.48468  0.28561  1.0000
  H   H1217     1.0  0.04100  0.56213  0.47223  1.0000
  H   H1218     1.0  0.00627  0.65908  0.47851  1.0000
  H   H1219     1.0  0.12106  0.71758  0.44271  1.0000
  H   H1220     1.0  0.03020  0.48392  0.20912  1.0000
  H   H1221     1.0  0.99197  0.59527  0.46132  1.0000
  C   C1550     1.0  0.00887  0.53498  0.47717  1.0000
  H   H1222     1.0  0.05001  0.48974  0.11957  1.0000
  C   C1551     1.0  0.09068  0.48688  0.27288  1.0000
  H   H1223     1.0  0.99785  0.48583  0.07116  1.0000
  H   H1224     1.0  0.99547  0.48960  0.27252  1.0000
  C   C1552     1.0  0.01989  0.48588  0.13777  1.0000
  H   H1225     1.0  0.99241  0.61132  0.16787  1.0000
  C   C1553     1.0  0.23620  0.49432  0.99696  1.0000
  C   C1554     1.0  0.98937  0.63704  0.46993  1.0000
  H   H1226     1.0  0.99702  0.72454  0.34378  1.0000
  C   C1555     1.0  0.99563  0.48526  0.15571  1.0000
  H   H1227     1.0  0.03677  0.48664  0.23092  1.0000
  C   C1556     1.0  0.98870  0.59701  0.26733  1.0000
  H   H1228     1.0  0.98801  0.53689  0.07972  1.0000
  H   H1229     1.0  0.98849  0.56833  0.12685  1.0000
  H   H1230     1.0  0.98661  0.60427  0.27333  1.0000
  H   H1231     1.0  0.98649  0.48488  0.16306  1.0000
  C   C1557     1.0  0.98728  0.48802  0.07210  1.0000
  Fe  Fe96      1.0  0.05260  0.53173  0.81087  1.0000
  S   S197      1.0  0.07303  0.53590  0.80247  1.0000
  S   S198      1.0  0.03455  0.54843  0.81197  1.0000
  Fe  Fe97      1.0  0.06226  0.50245  0.81627  1.0000
  S   S199      1.0  0.08335  0.50398  0.80848  1.0000
  H   H1232     1.0  0.18342  0.51921  0.97090  1.0000
  Fe  Fe98      1.0  0.07882  0.51992  0.81985  1.0000
  S   S200      1.0  0.09596  0.51682  0.82982  1.0000
  Fe  Fe99      1.0  0.07622  0.51966  0.79172  1.0000
  S   S201      1.0  0.08998  0.51980  0.77140  1.0000
  S   S202      1.0  0.05810  0.51702  0.82909  1.0000
  S   S203      1.0  0.05540  0.51689  0.79865  1.0000
  Fe  Fe100     1.0  0.12465  0.53754  0.87839  1.0000
  S   S204      1.0  0.13150  0.51668  0.88897  1.0000
  S   S205      1.0  0.10530  0.54382  0.87143  1.0000
  Fe  Fe101     1.0  0.14911  0.54581  0.87993  1.0000
  S   S206      1.0  0.15804  0.52550  0.89036  1.0000
  S   S207      1.0  0.15758  0.56413  0.87432  1.0000
  Fe  Fe102     1.0  0.15135  0.51854  0.87609  1.0000
  S   S208      1.0  0.16348  0.50189  0.86647  1.0000
  Fe  Fe103     1.0  0.13749  0.52529  0.90261  1.0000
  S   S209      1.0  0.13593  0.51437  0.92414  1.0000
  S   S210      1.0  0.14422  0.53876  0.86441  1.0000
  S   S211      1.0  0.12881  0.54627  0.89330  1.0000
  P   P56       1.0  0.10767  0.49770  0.62821  1.0000
  H   H1233     1.0  0.18714  0.51818  0.85583  1.0000
  S   S212      1.0  0.21529  0.57282  0.86691  1.0000
  C   C1558     1.0  0.02518  0.57236  0.53031  1.0000
  H   H1234     1.0  0.03385  0.55758  0.49666  1.0000
  C   C1559     1.0  0.99926  0.55766  0.80207  1.0000
  C   C1560     1.0  0.01805  0.62800  0.52224  1.0000
  H   H1235     1.0  0.99972  0.67684  0.51721  1.0000
  S   S213      1.0  0.12056  0.54730  0.96892  1.0000
  H   H1236     1.0  0.99825  0.53397  0.69916  1.0000
  H   H1237     1.0  0.22621  0.55139  0.90433  1.0000
  C   C1561     1.0  0.02087  0.54845  0.63182  1.0000
  C   C1562     1.0  0.99300  0.58750  0.60864  1.0000
  C   C1563     1.0  0.18506  0.57505  0.92869  1.0000
  C   C1564     1.0  0.99844  0.71910  0.49663  1.0000
  C   C1565     1.0  0.06884  0.50345  0.53159  1.0000
  C   C1566     1.0  0.05613  0.50144  0.53776  1.0000
  C   C1567     1.0  0.07407  0.62636  0.49568  1.0000
  S   S214      1.0  0.04628  0.52033  0.58667  1.0000
  S   S215      1.0  0.07345  0.53804  0.56791  1.0000
  C   C1568     1.0  0.04037  0.55243  0.52459  1.0000
  C   C1569     1.0  0.10439  0.58082  0.50163  1.0000
  C   C1570     1.0  0.03794  0.56449  0.52836  1.0000
  C   C1571     1.0  0.17525  0.53074  0.84213  1.0000
  H   H1238     1.0  0.00047  0.52469  0.81410  1.0000
  C   C1572     1.0  0.19358  0.58454  0.90133  1.0000
  H   H1239     1.0  0.01977  0.55508  0.63822  1.0000
  S   S216      1.0  0.07137  0.65911  0.50887  1.0000
  H   H1240     1.0  0.08823  0.53490  0.59523  1.0000
  S   S217      1.0  0.03073  0.60169  0.50540  1.0000
  C   C1573     1.0  0.09863  0.58685  0.56085  1.0000
  C   C1574     1.0  0.02999  0.54816  0.52272  1.0000
  Fe  Fe104     1.0  0.07071  0.52142  0.70447  1.0000
  S   S218      1.0  0.06539  0.50211  0.71556  1.0000
  S   S219      1.0  0.07889  0.53313  0.71345  1.0000
  Fe  Fe105     1.0  0.06369  0.52045  0.67892  1.0000
  P   P57       1.0  0.03292  0.53294  0.51717  1.0000
  S   S220      1.0  0.06398  0.53042  0.65724  1.0000
  Fe  Fe106     1.0  0.04798  0.50973  0.70611  1.0000
  S   S221      1.0  0.02808  0.50791  0.71884  1.0000
  S   S222      1.0  0.05239  0.52983  0.69631  1.0000
  S   S223      1.0  0.08258  0.51395  0.68609  1.0000
  C   C1575     1.0  0.21464  0.49674  0.91972  1.0000
  C   C1576     1.0  0.18581  0.56436  0.96739  1.0000
  C   C1577     1.0  0.00512  0.50674  0.71440  1.0000
  C   C1578     1.0  0.01868  0.50170  0.71207  1.0000
  C   C1579     1.0  0.07967  0.49269  0.86525  1.0000
  C   C1580     1.0  0.02426  0.49155  0.70502  1.0000
  C   C1581     1.0  0.21705  0.51837  0.96220  1.0000
  C   C1582     1.0  0.10214  0.49454  0.71465  1.0000
  C   C1583     1.0  0.02972  0.54980  0.61943  1.0000
  C   C1584     1.0  0.04698  0.59354  0.53680  1.0000
  S   S224      1.0  0.05762  0.50108  0.68814  1.0000
  Fe  Fe107     1.0  0.07271  0.48816  0.58431  1.0000
  C   C1585     1.0  0.02296  0.70856  0.50332  1.0000
  C   C1586     1.0  0.99780  0.58743  0.49859  1.0000
  C   C1587     1.0  0.99333  0.51952  0.53359  1.0000
  C   C1588     1.0  0.18032  0.58403  0.90671  1.0000
  C   C1589     1.0  0.16074  0.52876  0.81009  1.0000
  H   H1241     1.0  0.01210  0.70678  0.52370  1.0000
  C   C1590     1.0  0.09529  0.61442  0.53467  1.0000
  C   C1591     1.0  0.09533  0.56072  0.57031  1.0000
  H   H1242     1.0  0.11814  0.49469  0.69738  1.0000
  Fe  Fe108     1.0  0.06776  0.51825  0.57721  1.0000
  H   H1243     1.0  0.03666  0.63976  0.48843  1.0000
  C   C1592     1.0  0.20732  0.50937  0.87462  1.0000
  C   C1593     1.0  0.00915  0.54625  0.48104  1.0000
  H   H1244     1.0  0.06543  0.63342  0.51390  1.0000
  C   C1594     1.0  0.20253  0.58051  0.90965  1.0000
  C   C1595     1.0  0.15653  0.53226  0.82256  1.0000
  C   C1596     1.0  0.06833  0.48663  0.76889  1.0000
  C   C1597     1.0  0.03735  0.53637  0.49915  1.0000
  H   H1245     1.0  0.10886  0.57795  0.49216  1.0000
  C   C1598     1.0  0.03190  0.52288  0.90733  1.0000
  C   C1599     1.0  0.01224  0.52291  0.51547  1.0000
  C   C1600     1.0  0.07637  0.54169  0.55039  1.0000
  C   C1601     1.0  0.08389  0.53201  0.54327  1.0000
  C   C1602     1.0  0.08684  0.53522  0.52928  1.0000
  C   C1603     1.0  0.08201  0.54802  0.52234  1.0000
  C   C1604     1.0  0.07415  0.55762  0.52946  1.0000
  C   C1605     1.0  0.07142  0.55448  0.54346  1.0000
  H   H1246     1.0  0.08776  0.52213  0.54853  1.0000
  H   H1247     1.0  0.09300  0.52780  0.52381  1.0000
  H   H1248     1.0  0.07045  0.56752  0.52418  1.0000
  H   H1249     1.0  0.06539  0.56194  0.54892  1.0000
  C   C1606     1.0  0.05823  0.52255  0.64825  1.0000
  C   C1607     1.0  0.06165  0.52552  0.63426  1.0000
  C   C1608     1.0  0.05708  0.51941  0.62694  1.0000
  C   C1609     1.0  0.14326  0.58227  0.97119  1.0000
  C   C1610     1.0  0.07177  0.63289  0.54069  1.0000
  H   H1250     1.0  0.06788  0.53251  0.62909  1.0000
  H   H1251     1.0  0.05982  0.52165  0.61617  1.0000
  C   C1611     1.0  0.08007  0.48495  0.66048  1.0000
  C   C1612     1.0  0.01861  0.49997  0.57707  1.0000
  H   H1252     1.0  0.99455  0.48568  0.81065  1.0000
  H   H1253     1.0  0.18265  0.57257  0.97232  1.0000
  C   C1613     1.0  0.10472  0.50586  0.61177  1.0000
  H   H1254     1.0  0.22823  0.48854  0.85541  1.0000
  H   H1255     1.0  0.07880  0.52768  0.89860  1.0000
  C   C1614     1.0  0.03645  0.51964  0.89481  1.0000
  C   C1615     1.0  0.99870  0.55513  0.76572  1.0000
  H   H1256     1.0  0.19107  0.49665  0.84875  1.0000
  H   H1257     1.0  0.02857  0.53589  0.65468  1.0000
  C   C1616     1.0  0.07100  0.63560  0.50374  1.0000
  C   C1617     1.0  0.21918  0.49274  0.86166  1.0000
  H   H1258     1.0  0.07499  0.48734  0.86146  1.0000
  H   H1259     1.0  0.03538  0.51909  0.92704  1.0000
  H   H1260     1.0  0.05209  0.49648  0.85372  1.0000
  C   C1618     1.0  0.04883  0.51053  0.63361  1.0000
  C   C1619     1.0  0.00494  0.60325  0.50576  1.0000
  C   C1620     1.0  0.13118  0.52355  0.93661  1.0000
  C   C1621     1.0  0.13309  0.51708  0.94947  1.0000
  C   C1622     1.0  0.12994  0.52429  0.95947  1.0000
  C   C1623     1.0  0.12461  0.53795  0.95668  1.0000
  C   C1624     1.0  0.12247  0.54435  0.94388  1.0000
  C   C1625     1.0  0.12582  0.53718  0.93383  1.0000
  H   H1261     1.0  0.13718  0.50651  0.95165  1.0000
  H   H1262     1.0  0.13158  0.51929  0.96933  1.0000
  H   H1263     1.0  0.11837  0.55491  0.94169  1.0000
  H   H1264     1.0  0.12436  0.54224  0.92393  1.0000
  C   C1626     1.0  0.17402  0.56533  0.87246  1.0000
  C   C1627     1.0  0.17642  0.57810  0.86905  1.0000
  C   C1628     1.0  0.18911  0.58000  0.86731  1.0000
  C   C1629     1.0  0.19972  0.56918  0.86894  1.0000
  C   C1630     1.0  0.19746  0.55626  0.87233  1.0000
  C   C1631     1.0  0.18456  0.55433  0.87420  1.0000
  H   H1265     1.0  0.16839  0.58664  0.86770  1.0000
  H   H1266     1.0  0.19071  0.58999  0.86468  1.0000
  H   H1267     1.0  0.20560  0.54781  0.87355  1.0000
  H   H1268     1.0  0.18278  0.54442  0.87687  1.0000
  C   C1632     1.0  0.15993  0.48735  0.87769  1.0000
  C   C1633     1.0  0.98741  0.56427  0.77017  1.0000
  C   C1634     1.0  0.09545  0.48669  0.72576  1.0000
  C   C1635     1.0  0.00237  0.49124  0.70332  1.0000
  H   H1269     1.0  0.15318  0.49598  0.89499  1.0000
  C   C1636     1.0  0.14404  0.55654  0.83306  1.0000
  C   C1637     1.0  0.09861  0.52523  0.84061  1.0000
  C   C1638     1.0  0.11061  0.52104  0.84479  1.0000
  C   C1639     1.0  0.11290  0.52680  0.85401  1.0000
  C   C1640     1.0  0.10313  0.53683  0.85921  1.0000
  C   C1641     1.0  0.09126  0.54129  0.85476  1.0000
  C   C1642     1.0  0.08906  0.53561  0.84540  1.0000
  H   H1270     1.0  0.11805  0.51306  0.84108  1.0000
  H   H1271     1.0  0.12209  0.52332  0.85731  1.0000
  H   H1272     1.0  0.08372  0.54915  0.85858  1.0000
  H   H1273     1.0  0.07999  0.53917  0.84193  1.0000
  C   C1643     1.0  0.08633  0.52235  0.75564  1.0000
  C   C1644     1.0  0.09584  0.52637  0.74442  1.0000
  C   C1645     1.0  0.09354  0.52915  0.73159  1.0000
  C   C1646     1.0  0.08193  0.52742  0.72969  1.0000
  C   C1647     1.0  0.07256  0.52277  0.74084  1.0000
  C   C1648     1.0  0.07463  0.52052  0.75386  1.0000
  H   H1274     1.0  0.10490  0.52778  0.74565  1.0000
  H   H1275     1.0  0.10076  0.53285  0.72309  1.0000
  H   H1276     1.0  0.06344  0.52166  0.73947  1.0000
  H   H1277     1.0  0.06707  0.51770  0.76245  1.0000
  H   H1278     1.0  0.07080  0.61716  0.49962  1.0000
  C   C1649     1.0  0.13187  0.55492  0.83222  1.0000
  Fe  Fe109     1.0  0.05046  0.59218  0.49426  1.0000
  C   C1650     1.0  0.09116  0.48598  0.76750  1.0000
  C   C1651     1.0  0.14731  0.51256  0.83184  1.0000
  H   H1279     1.0  0.20947  0.52259  0.96980  1.0000
  C   C1652     1.0  0.04074  0.64831  0.48291  1.0000
  C   C1653     1.0  0.21870  0.50397  0.86608  1.0000
  C   C1654     1.0  0.04530  0.50770  0.64754  1.0000
  H   H1280     1.0  0.09238  0.54087  0.90219  1.0000
  C   C1655     1.0  0.03108  0.54147  0.61097  1.0000
  C   C1656     1.0  0.01124  0.55826  0.80418  1.0000
  C   C1657     1.0  0.01967  0.54676  0.80950  1.0000
  C   C1658     1.0  0.01583  0.53456  0.81301  1.0000
  C   C1659     1.0  0.00350  0.53404  0.81130  1.0000
  H   H1281     1.0  0.11058  0.50008  0.58063  1.0000
  H   H1282     1.0  0.01406  0.56771  0.80153  1.0000
  H   H1283     1.0  0.02225  0.52563  0.81723  1.0000
  C   C1660     1.0  0.01715  0.51399  0.78589  1.0000
  C   C1661     1.0  0.10326  0.57112  0.51343  1.0000
  H   H1284     1.0  0.00878  0.54588  0.49136  1.0000
  H   H1285     1.0  0.09865  0.50524  0.71256  1.0000
  C   C1662     1.0  0.12007  0.56156  0.83920  1.0000
  C   C1663     1.0  0.14414  0.56533  0.84058  1.0000
  H   H1286     1.0  0.10000  0.59692  0.55746  1.0000
  Fe  Fe110     1.0  0.04739  0.50438  0.57660  1.0000
  H   H1287     1.0  0.09840  0.48948  0.77006  1.0000
  C   C1664     1.0  0.09312  0.59786  0.51420  1.0000
  C   C1665     1.0  0.98783  0.55063  0.64872  1.0000
  H   H1288     1.0  0.00259  0.61215  0.50948  1.0000
  C   C1666     1.0  0.19642  0.50350  0.87876  1.0000
  H   H1289     1.0  0.17577  0.56324  0.82791  1.0000
  C   C1667     1.0  0.05976  0.52303  0.51643  1.0000
  H   H1290     1.0  0.18536  0.54738  0.80682  1.0000
  H   H1291     1.0  0.04710  0.51144  0.66555  1.0000
  H   H1292     1.0  0.11432  0.51255  0.80412  1.0000
  H   H1293     1.0  0.20533  0.57215  0.92968  1.0000
  C   C1668     1.0  0.14234  0.61425  0.90627  1.0000
  C   C1669     1.0  0.13145  0.61165  0.90369  1.0000
  C   C1670     1.0  0.12880  0.59896  0.90840  1.0000
  C   C1671     1.0  0.13709  0.58883  0.91559  1.0000
  C   C1672     1.0  0.14827  0.59128  0.91786  1.0000
  C   C1673     1.0  0.15066  0.60413  0.91344  1.0000
  P   P58       1.0  0.15884  0.57834  0.92734  1.0000
  C   C1674     1.0  0.15267  0.58009  0.94445  1.0000
  C   C1675     1.0  0.15822  0.56251  0.92515  1.0000
  C   C1676     1.0  0.15679  0.55174  0.93604  1.0000
  C   C1677     1.0  0.15620  0.53964  0.93410  1.0000
  C   C1678     1.0  0.15753  0.53801  0.92126  1.0000
  C   C1679     1.0  0.15921  0.54860  0.91036  1.0000
  C   C1680     1.0  0.15952  0.56082  0.91227  1.0000
  C   C1681     1.0  0.15835  0.58706  0.94984  1.0000
  C   C1682     1.0  0.08213  0.65048  0.48550  1.0000
  H   H1294     1.0  0.00168  0.58896  0.76943  1.0000
  C   C1683     1.0  0.13713  0.57590  0.96572  1.0000
  C   C1684     1.0  0.14162  0.57506  0.95234  1.0000
  C   C1685     1.0  0.17588  0.57954  0.92051  1.0000
  H   H1295     1.0  0.14432  0.62412  0.90273  1.0000
  H   H1296     1.0  0.12503  0.61947  0.89810  1.0000
  H   H1297     1.0  0.12032  0.59694  0.90649  1.0000
  H   H1298     1.0  0.13476  0.57911  0.91931  1.0000
  H   H1299     1.0  0.15899  0.60632  0.91548  1.0000
  H   H1300     1.0  0.15609  0.55253  0.94606  1.0000
  H   H1301     1.0  0.15450  0.53159  0.94262  1.0000
  H   H1302     1.0  0.15703  0.52861  0.91980  1.0000
  H   H1303     1.0  0.16013  0.54744  0.90041  1.0000
  H   H1304     1.0  0.16074  0.56892  0.90365  1.0000
  H   H1305     1.0  0.16639  0.59170  0.94381  1.0000
  H   H1306     1.0  0.02463  0.52524  0.60847  1.0000
  C   C1686     1.0  0.09339  0.49164  0.63849  1.0000
  H   H1307     1.0  0.99485  0.55954  0.72275  1.0000
  H   H1308     1.0  0.13654  0.57025  0.94830  1.0000
  H   H1309     1.0  0.17363  0.58690  0.90003  1.0000
  H   H1310     1.0  0.18206  0.57089  0.93919  1.0000
  H   H1311     1.0  0.11775  0.49544  0.89743  1.0000
  C   C1687     1.0  0.03231  0.50582  0.76709  1.0000
  C   C1688     1.0  0.02455  0.50337  0.78000  1.0000
  S   S225      1.0  0.05710  0.57202  0.48941  1.0000
  C   C1689     1.0  0.99320  0.63447  0.48201  1.0000
  C   C1690     1.0  0.02487  0.52955  0.76575  1.0000
  C   C1691     1.0  0.03263  0.51884  0.76006  1.0000
  P   P59       1.0  0.02566  0.54629  0.75675  1.0000
  C   C1692     1.0  0.02557  0.54842  0.73944  1.0000
  C   C1693     1.0  0.01118  0.55803  0.76277  1.0000
  C   C1694     1.0  0.22948  0.51216  0.96484  1.0000
  H   H1312     1.0  0.20629  0.56539  0.96207  1.0000
  H   H1313     1.0  0.08233  0.50352  0.90801  1.0000
  C   C1695     1.0  0.10924  0.48591  0.94557  1.0000
  H   H1314     1.0  0.05569  0.50174  0.92280  1.0000
  C   C1696     1.0  0.03001  0.55907  0.72987  1.0000
  C   C1697     1.0  0.02979  0.56082  0.71648  1.0000
  C   C1698     1.0  0.02477  0.55217  0.71263  1.0000
  C   C1699     1.0  0.01982  0.54189  0.72220  1.0000
  C   C1700     1.0  0.02013  0.54005  0.73555  1.0000
  C   C1701     1.0  0.04016  0.54926  0.75955  1.0000
  C   C1702     1.0  0.05165  0.54982  0.74945  1.0000
  C   C1703     1.0  0.06289  0.55169  0.75205  1.0000
  C   C1704     1.0  0.06288  0.55258  0.76482  1.0000
  C   C1705     1.0  0.05154  0.55187  0.77495  1.0000
  C   C1706     1.0  0.04023  0.55019  0.77235  1.0000
  H   H1315     1.0  0.03819  0.49770  0.76250  1.0000
  H   H1316     1.0  0.04271  0.51571  0.49803  1.0000
  H   H1317     1.0  0.01560  0.49472  0.54834  1.0000
  C   C1707     1.0  0.22185  0.50370  0.90821  1.0000
  H   H1318     1.0  0.03891  0.52054  0.75016  1.0000
  C   C1708     1.0  0.00966  0.48774  0.81890  1.0000
  C   C1709     1.0  0.99778  0.57400  0.61344  1.0000
  C   C1710     1.0  0.04693  0.52124  0.52277  1.0000
  Fe  Fe111     1.0  0.07435  0.70764  0.49932  1.0000
  H   H1319     1.0  0.00475  0.49769  0.82027  1.0000
  H   H1320     1.0  0.03378  0.56596  0.73272  1.0000
  H   H1321     1.0  0.03366  0.56878  0.70906  1.0000
  H   H1322     1.0  0.02479  0.55340  0.70223  1.0000
  H   H1323     1.0  0.01583  0.53520  0.71930  1.0000
  H   H1324     1.0  0.01617  0.53203  0.74274  1.0000
  H   H1325     1.0  0.05222  0.54833  0.73970  1.0000
  H   H1326     1.0  0.07183  0.55180  0.74430  1.0000
  H   H1327     1.0  0.07179  0.55344  0.76694  1.0000
  H   H1328     1.0  0.05156  0.55239  0.78491  1.0000
  H   H1329     1.0  0.03161  0.54939  0.78042  1.0000
  C   C1711     1.0  0.01723  0.55626  0.52455  1.0000
  C   C1712     1.0  0.17820  0.55513  0.80210  1.0000
  C   C1713     1.0  0.11963  0.48973  0.78567  1.0000
  C   C1714     1.0  0.16479  0.55741  0.80849  1.0000
  H   H1330     1.0  0.22400  0.60110  0.90477  1.0000
  H   H1331     1.0  0.03098  0.52485  0.88713  1.0000
  C   C1715     1.0  0.09704  0.51884  0.60948  1.0000
  H   H1332     1.0  0.00911  0.55356  0.52267  1.0000
  H   H1333     1.0  0.16589  0.53488  0.80151  1.0000
  H   H1334     1.0  0.08894  0.60825  0.51412  1.0000
  C   C1716     1.0  0.99272  0.51853  0.76364  1.0000
  H   H1335     1.0  0.14910  0.50059  0.81807  1.0000
  C   C1717     1.0  0.09539  0.62785  0.53228  1.0000
  H   H1336     1.0  0.08363  0.64756  0.53299  1.0000
  C   C1718     1.0  0.03425  0.66112  0.48487  1.0000
  C   C1719     1.0  0.00647  0.63272  0.48206  1.0000
  H   H1337     1.0  0.17048  0.52294  0.84282  1.0000
  S   S226      1.0  0.05798  0.69673  0.50519  1.0000
  C   C1720     1.0  0.15133  0.50928  0.81936  1.0000
  C   C1721     1.0  0.00118  0.52983  0.59619  1.0000
  H   H1338     1.0  0.15327  0.56677  0.84156  1.0000
  H   H1339     1.0  0.00276  0.55441  0.60978  1.0000
  C   C1722     1.0  0.17827  0.55331  0.83383  1.0000
  C   C1723     1.0  0.99696  0.50142  0.71027  1.0000
  H   H1340     1.0  0.11050  0.58201  0.57541  1.0000
  C   C1724     1.0  0.18480  0.52795  0.84958  1.0000
  C   C1725     1.0  0.99764  0.51883  0.60580  1.0000
  H   H1341     1.0  0.15292  0.58277  0.78456  1.0000
  C   C1726     1.0  0.12279  0.51017  0.63629  1.0000
  H   H1342     1.0  0.99368  0.52331  0.55211  1.0000
  C   C1727     1.0  0.99600  0.63750  0.51847  1.0000
  H   H1343     1.0  0.10680  0.56072  0.51307  1.0000
  C   C1728     1.0  0.01800  0.59624  0.50288  1.0000
  C   C1729     1.0  0.09250  0.50631  0.87458  1.0000
  C   C1730     1.0  0.99574  0.56907  0.59337  1.0000
  H   H1344     1.0  0.99313  0.65647  0.50506  1.0000
  H   H1345     1.0  0.19700  0.58772  0.89064  1.0000
  H   H1346     1.0  0.07668  0.48510  0.80161  1.0000
  H   H1347     1.0  0.99478  0.48987  0.56363  1.0000
  H   H1348     1.0  0.11559  0.51110  0.78109  1.0000
  H   H1349     1.0  0.18619  0.48521  0.98001  1.0000
  H   H1350     1.0  0.13142  0.54837  0.82640  1.0000
  C   C1731     1.0  0.04646  0.58561  0.56038  1.0000
  C   C1732     1.0  0.00487  0.62726  0.52481  1.0000
  C   C1733     1.0  0.09966  0.51841  0.58637  1.0000
  C   C1734     1.0  0.07504  0.64769  0.49865  1.0000
  C   C1735     1.0  0.08931  0.56914  0.56013  1.0000
  C   C1736     1.0  0.12366  0.72983  0.48552  1.0000
  H   H1351     1.0  0.06487  0.59897  0.52453  1.0000
  P   P60       1.0  0.15932  0.54733  0.82465  1.0000
  C   C1737     1.0  0.15809  0.51734  0.80851  1.0000
  Fe  Fe112     1.0  0.07615  0.57147  0.49402  1.0000
  H   H1352     1.0  0.10444  0.60742  0.53200  1.0000
  C   C1738     1.0  0.99916  0.71457  0.51006  1.0000
  P   P61       1.0  0.08324  0.59292  0.54183  1.0000
  C   C1739     1.0  0.19829  0.57569  0.92331  1.0000
  H   H1353     1.0  0.10117  0.49447  0.94646  1.0000
  H   H1354     1.0  0.10452  0.63120  0.52782  1.0000
  C   C1740     1.0  0.99917  0.56483  0.60584  1.0000
  H   H1355     1.0  0.02495  0.62002  0.52707  1.0000
  H   H1356     1.0  0.03910  0.50069  0.65274  1.0000
  H   H1357     1.0  0.99847  0.49843  0.77400  1.0000
  H   H1358     1.0  0.01655  0.51043  0.65996  1.0000
  C   C1741     1.0  0.09942  0.59419  0.50203  1.0000
  H   H1359     1.0  0.07477  0.49741  0.77919  1.0000
  H   H1360     1.0  0.19008  0.49273  0.91315  1.0000
  S   S227      1.0  0.04289  0.50264  0.62490  1.0000
  C   C1742     1.0  0.01492  0.53027  0.62736  1.0000
  C   C1743     1.0  0.99526  0.50111  0.58590  1.0000
  C   C1744     1.0  0.19911  0.56036  0.96154  1.0000
  C   C1745     1.0  0.20320  0.54982  0.95505  1.0000
  C   C1746     1.0  0.19399  0.54314  0.95445  1.0000
  C   C1747     1.0  0.18059  0.54746  0.96007  1.0000
  P   P62       1.0  0.19945  0.52998  0.94546  1.0000
  C   C1748     1.0  0.21469  0.51969  0.94963  1.0000
  C   C1749     1.0  0.18758  0.51972  0.94983  1.0000
  C   C1750     1.0  0.18086  0.51647  0.96313  1.0000
  C   C1751     1.0  0.17048  0.51003  0.96646  1.0000
  C   C1752     1.0  0.16702  0.50631  0.95663  1.0000
  C   C1753     1.0  0.17415  0.50881  0.94349  1.0000
  C   C1754     1.0  0.18453  0.51531  0.94010  1.0000
  C   C1755     1.0  0.22476  0.51394  0.94005  1.0000
  C   C1756     1.0  0.20820  0.48693  0.86558  1.0000
  C   C1757     1.0  0.11336  0.52748  0.64886  1.0000
  C   C1758     1.0  0.99003  0.49675  0.66679  1.0000
  C   C1759     1.0  0.02167  0.53619  0.66415  1.0000
  C   C1760     1.0  0.20227  0.53852  0.92826  1.0000
  C   C1761     1.0  0.19230  0.54248  0.92105  1.0000
  C   C1762     1.0  0.19482  0.54905  0.90767  1.0000
  C   C1763     1.0  0.20715  0.55202  0.90163  1.0000
  C   C1764     1.0  0.21682  0.54874  0.90893  1.0000
  C   C1765     1.0  0.21433  0.54219  0.92224  1.0000
  H   H1361     1.0  0.98656  0.53757  0.75108  1.0000
  H   H1362     1.0  0.12894  0.57149  0.97188  1.0000
  C   C1766     1.0  0.03727  0.72536  0.52214  1.0000
  H   H1363     1.0  0.21357  0.54692  0.95052  1.0000
  H   H1364     1.0  0.17318  0.54288  0.95937  1.0000
  S   S228      1.0  0.05161  0.48806  0.59405  1.0000
  H   H1365     1.0  0.01129  0.51215  0.79596  1.0000
  H   H1366     1.0  0.15887  0.50146  0.95915  1.0000
  H   H1367     1.0  0.17127  0.50610  0.93591  1.0000
  H   H1368     1.0  0.18986  0.51716  0.92984  1.0000
  H   H1369     1.0  0.22331  0.51494  0.93023  1.0000
  H   H1370     1.0  0.09753  0.51179  0.87792  1.0000
  C   C1767     1.0  0.08150  0.62902  0.48261  1.0000
  H   H1371     1.0  0.06400  0.58459  0.56652  1.0000
  H   H1372     1.0  0.02437  0.49329  0.78551  1.0000
  H   H1373     1.0  0.18262  0.54060  0.92573  1.0000
  H   H1374     1.0  0.18721  0.55201  0.90201  1.0000
  H   H1375     1.0  0.11456  0.53429  0.65399  1.0000
  H   H1376     1.0  0.99611  0.72875  0.54559  1.0000
  H   H1377     1.0  0.22183  0.54006  0.92785  1.0000
  C   C1768     1.0  0.03707  0.55324  0.56930  1.0000
  C   C1769     1.0  0.03965  0.54545  0.56001  1.0000
  C   C1770     1.0  0.02942  0.54138  0.55788  1.0000
  C   C1771     1.0  0.01651  0.54517  0.56493  1.0000
  C   C1772     1.0  0.01381  0.55290  0.57438  1.0000
  C   C1773     1.0  0.02418  0.55692  0.57655  1.0000
  H   H1378     1.0  0.00338  0.51629  0.57061  1.0000
  C   C1774     1.0  0.23416  0.59920  0.89932  1.0000
  C   C1775     1.0  0.10945  0.49907  0.60131  1.0000
  C   C1776     1.0  0.98798  0.50777  0.74491  1.0000
  C   C1777     1.0  0.99901  0.52302  0.54194  1.0000
  C   C1778     1.0  0.03884  0.51644  0.91740  1.0000
  C   C1779     1.0  0.01484  0.56822  0.52845  1.0000
  H   H1379     1.0  0.98643  0.50507  0.71271  1.0000
  H   H1380     1.0  0.22706  0.48512  0.96294  1.0000
  H   H1381     1.0  0.09400  0.55061  0.57387  1.0000
  C   C1780     1.0  0.99528  0.54562  0.80560  1.0000
  H   H1382     1.0  0.99182  0.59458  0.61459  1.0000
  C   C1781     1.0  0.09368  0.53034  0.90669  1.0000
  H   H1383     1.0  0.06601  0.48340  0.63647  1.0000
  H   H1384     1.0  0.07725  0.49675  0.53522  1.0000
  H   H1385     1.0  0.03085  0.57941  0.49582  1.0000
  H   H1386     1.0  0.06264  0.64016  0.54263  1.0000
  H   H1387     1.0  0.10762  0.55880  0.58374  1.0000
  C   C1782     1.0  0.09450  0.52505  0.59684  1.0000
  H   H1388     1.0  0.04518  0.55601  0.57113  1.0000
  H   H1389     1.0  0.04965  0.54219  0.55470  1.0000
  H   H1390     1.0  0.03160  0.53496  0.55100  1.0000
  H   H1391     1.0  0.00870  0.54173  0.56332  1.0000
  H   H1392     1.0  0.02242  0.56270  0.58392  1.0000
  H   H1393     1.0  0.01049  0.52832  0.58907  1.0000
  H   H1394     1.0  0.16115  0.51483  0.79882  1.0000
  H   H1395     1.0  0.10157  0.71116  0.48998  1.0000
  H   H1396     1.0  0.02339  0.58190  0.53277  1.0000
  P   P63       1.0  0.00176  0.53716  0.65165  1.0000
  H   H1397     1.0  0.14216  0.50630  0.84034  1.0000
  Fe  Fe113     1.0  0.07296  0.67993  0.49755  1.0000
  C   C1783     1.0  0.10460  0.57841  0.57111  1.0000
  C   C1784     1.0  0.07874  0.50940  0.87687  1.0000
  C   C1785     1.0  0.01088  0.68003  0.52927  1.0000
  H   H1398     1.0  0.99552  0.51665  0.51395  1.0000
  H   H1399     1.0  0.05467  0.49324  0.54623  1.0000
  C   C1786     1.0  0.17022  0.49025  0.91881  1.0000
  H   H1400     1.0  0.22318  0.51341  0.90790  1.0000
  C   C1787     1.0  0.02142  0.48758  0.58565  1.0000
  C   C1788     1.0  0.10073  0.52696  0.64850  1.0000
  C   C1789     1.0  0.00475  0.53495  0.68935  1.0000
  C   C1790     1.0  0.01218  0.57040  0.76389  1.0000
  C   C1791     1.0  0.13346  0.48537  0.61789  1.0000
  C   C1792     1.0  0.11010  0.50949  0.63602  1.0000
  C   C1793     1.0  0.09910  0.51808  0.64206  1.0000
  H   H1401     1.0  0.03478  0.48755  0.70322  1.0000
  H   H1402     1.0  0.09211  0.53331  0.65338  1.0000
  C   C1794     1.0  0.15371  0.58805  0.96320  1.0000
  H   H1403     1.0  0.00933  0.52262  0.63021  1.0000
  C   C1795     1.0  0.00708  0.67467  0.48710  1.0000
  H   H1404     1.0  0.08918  0.51776  0.64206  1.0000
  C   C1796     1.0  0.17336  0.57282  0.78321  1.0000
  H   H1405     1.0  0.00152  0.61871  0.53163  1.0000
  C   C1797     1.0  0.05023  0.54192  0.84923  1.0000
  C   C1798     1.0  0.03845  0.54301  0.84566  1.0000
  C   C1799     1.0  0.03144  0.53295  0.85129  1.0000
  C   C1800     1.0  0.03624  0.52174  0.86043  1.0000
  C   C1801     1.0  0.04830  0.52037  0.86377  1.0000
  C   C1802     1.0  0.05511  0.53068  0.85830  1.0000
  P   P64       1.0  0.05432  0.50612  0.87593  1.0000
  C   C1803     1.0  0.04801  0.50990  0.89228  1.0000
  C   C1804     1.0  0.99056  0.57304  0.56029  1.0000
  C   C1805     1.0  0.99099  0.58268  0.58859  1.0000
  C   C1806     1.0  0.14978  0.52405  0.83340  1.0000
  C   C1807     1.0  0.15569  0.56737  0.80205  1.0000
  C   C1808     1.0  0.07065  0.51420  0.52087  1.0000
  H   H1406     1.0  0.08528  0.65975  0.48151  1.0000
  C   C1809     1.0  0.05480  0.50329  0.90253  1.0000
  C   C1810     1.0  0.05028  0.50664  0.91501  1.0000
  C   C1811     1.0  0.01795  0.52663  0.52375  1.0000
  H   H1407     1.0  0.03225  0.70421  0.50607  1.0000
  H   H1408     1.0  0.05037  0.54664  0.52306  1.0000
  C   C1812     1.0  0.07218  0.50250  0.87236  1.0000
  Fe  Fe114     1.0  0.05592  0.70451  0.48400  1.0000
  H   H1409     1.0  0.98701  0.48742  0.67141  1.0000
  H   H1410     1.0  0.01707  0.52295  0.50518  1.0000
  C   C1813     1.0  0.07162  0.61945  0.54315  1.0000
  H   H1411     1.0  0.98940  0.53686  0.67946  1.0000
  H   H1412     1.0  0.05568  0.54971  0.84477  1.0000
  H   H1413     1.0  0.03484  0.55157  0.83838  1.0000
  H   H1414     1.0  0.02239  0.53379  0.84833  1.0000
  H   H1415     1.0  0.03058  0.51412  0.86474  1.0000
  H   H1416     1.0  0.06423  0.53004  0.86093  1.0000
  H   H1417     1.0  0.16752  0.49706  0.90993  1.0000
  H   H1418     1.0  0.14528  0.56923  0.80670  1.0000
  H   H1419     1.0  0.00953  0.49636  0.63415  1.0000
  C   C1814     1.0  0.01132  0.52640  0.53712  1.0000
  H   H1420     1.0  0.23080  0.57689  0.92853  1.0000
  H   H1421     1.0  0.99297  0.56664  0.79780  1.0000
  H   H1422     1.0  0.03562  0.55719  0.61646  1.0000
  H   H1423     1.0  0.04600  0.56782  0.52957  1.0000
  H   H1424     1.0  0.03549  0.50853  0.53833  1.0000
  C   C1815     1.0  0.04028  0.58875  0.54971  1.0000
  H   H1425     1.0  0.00024  0.57063  0.62315  1.0000
  C   C1816     1.0  0.08363  0.63708  0.53524  1.0000
  H   H1426     1.0  0.00036  0.57498  0.55766  1.0000
  S   S229      1.0  0.06885  0.59075  0.50072  1.0000
  S   S230      1.0  0.07414  0.50297  0.59480  1.0000
  H   H1427     1.0  0.20917  0.55724  0.89142  1.0000
  C   C1817     1.0  0.98964  0.59183  0.59621  1.0000
  H   H1428     1.0  0.00636  0.69256  0.49298  1.0000
  C   C1818     1.0  0.99974  0.53666  0.67815  1.0000
  H   H1429     1.0  0.00409  0.50908  0.60586  1.0000
  C   C1819     1.0  0.08603  0.52287  0.90466  1.0000
  P   P65       1.0  0.01884  0.66412  0.49678  1.0000
  H   H1430     1.0  0.17682  0.50095  0.83309  1.0000
  C   C1820     1.0  0.01356  0.64922  0.50675  1.0000
  C   C1821     1.0  0.00029  0.64848  0.50951  1.0000
  C   C1822     1.0  0.02087  0.58482  0.49796  1.0000
  H   H1431     1.0  0.07326  0.51730  0.88200  1.0000
  C   C1823     1.0  0.99291  0.49932  0.75578  1.0000
  C   C1824     1.0  0.02234  0.63904  0.51343  1.0000
  H   H1432     1.0  0.01001  0.48889  0.66926  1.0000
  C   C1825     1.0  0.18246  0.56285  0.78952  1.0000
  H   H1433     1.0  0.02301  0.48453  0.74162  1.0000
  H   H1434     1.0  0.01189  0.53511  0.78369  1.0000
  C   C1826     1.0  0.19684  0.49235  0.87425  1.0000
  C   C1827     1.0  0.02074  0.67135  0.50922  1.0000
  C   C1828     1.0  0.03333  0.67041  0.51111  1.0000
  C   C1829     1.0  0.03464  0.67435  0.52196  1.0000
  C   C1830     1.0  0.02344  0.67913  0.53106  1.0000
  H   H1435     1.0  0.02304  0.53050  0.90917  1.0000
  C   C1831     1.0  0.00953  0.67617  0.51838  1.0000
  H   H1436     1.0  0.06226  0.61651  0.54715  1.0000
  C   C1832     1.0  0.15442  0.48731  0.89120  1.0000
  P   P66       1.0  0.10139  0.48503  0.92308  1.0000
  H   H1437     1.0  0.08688  0.49155  0.73213  1.0000
  H   H1438     1.0  0.08332  0.56535  0.55616  1.0000
  C   C1833     1.0  0.12439  0.51913  0.64271  1.0000
  H   H1439     1.0  0.09613  0.56696  0.53450  1.0000
  H   H1440     1.0  0.00506  0.57457  0.52938  1.0000
  C   C1834     1.0  0.08339  0.61011  0.54006  1.0000
  H   H1441     1.0  0.03248  0.63970  0.51196  1.0000
  C   C1835     1.0  0.09711  0.57475  0.52564  1.0000
  C   C1836     1.0  0.11658  0.50291  0.80167  1.0000
  H   H1442     1.0  0.09754  0.52317  0.57662  1.0000
  C   C1837     1.0  0.17191  0.54344  0.83414  1.0000
  H   H1443     1.0  0.06139  0.53139  0.50818  1.0000
  H   H1444     1.0  0.04219  0.66638  0.50445  1.0000
  H   H1445     1.0  0.04440  0.67361  0.52332  1.0000
  H   H1446     1.0  0.02447  0.68232  0.53937  1.0000
  H   H1447     1.0  0.99418  0.52264  0.77114  1.0000
  C   C1838     1.0  0.98845  0.57648  0.77146  1.0000
  H   H1448     1.0  0.98945  0.57221  0.74040  1.0000
  H   H1449     1.0  0.11536  0.71575  0.50225  1.0000
  C   C1839     1.0  0.04198  0.52589  0.49245  1.0000
  C   C1840     1.0  0.99803  0.48887  0.59471  1.0000
  P   P67       1.0  0.99718  0.55698  0.58391  1.0000
  H   H1450     1.0  0.16513  0.50797  0.97669  1.0000
  H   H1451     1.0  0.01309  0.57124  0.49258  1.0000
  C   C1841     1.0  0.05992  0.59497  0.53452  1.0000
  H   H1452     1.0  0.02221  0.53186  0.69669  1.0000
  H   H1453     1.0  0.04218  0.59614  0.52850  1.0000
  H   H1454     1.0  0.14638  0.52651  0.84311  1.0000
  H   H1455     1.0  0.20700  0.51802  0.87810  1.0000
  C   C1842     1.0  0.18779  0.55048  0.84134  1.0000
  H   H1456     1.0  0.00092  0.51489  0.71937  1.0000
  H   H1457     1.0  0.19844  0.53565  0.85502  1.0000
  C   C1843     1.0  0.01147  0.70983  0.51335  1.0000
  H   H1458     1.0  0.03028  0.58758  0.55146  1.0000
  H   H1459     1.0  0.19283  0.56110  0.78467  1.0000
  H   H1460     1.0  0.11074  0.55993  0.83889  1.0000
  S   S231      1.0  0.07595  0.71930  0.51329  1.0000
  C   C1844     1.0  0.21762  0.48428  0.96204  1.0000
  C   C1845     1.0  0.19111  0.53779  0.84916  1.0000
  H   H1461     1.0  0.11113  0.57459  0.85285  1.0000
  H   H1462     1.0  0.17667  0.57881  0.77348  1.0000
  C   C1846     1.0  0.15999  0.57506  0.78946  1.0000
  C   C1847     1.0  0.01079  0.58024  0.49608  1.0000
  C   C1848     1.0  0.03165  0.73062  0.51101  1.0000
  C   C1849     1.0  0.03059  0.72893  0.53425  1.0000
  C   C1850     1.0  0.01003  0.71841  0.48656  1.0000
  C   C1851     1.0  0.18237  0.49097  0.83615  1.0000
  C   C1852     1.0  0.10334  0.52416  0.91411  1.0000
  C   C1853     1.0  0.05944  0.58698  0.55811  1.0000
  H   H1463     1.0  0.98900  0.72283  0.49393  1.0000
  H   H1464     1.0  0.09814  0.49095  0.65710  1.0000
  C   C1854     1.0  0.19464  0.48419  0.97173  1.0000
  C   C1855     1.0  0.11726  0.50211  0.78870  1.0000
  C   C1856     1.0  0.99999  0.51935  0.52039  1.0000
  H   H1465     1.0  0.12964  0.48594  0.87789  1.0000
  S   S232      1.0  0.03127  0.50723  0.56620  1.0000
  H   H1466     1.0  0.21285  0.58064  0.90542  1.0000
  S   S233      1.0  0.08972  0.68985  0.49385  1.0000
  H   H1467     1.0  0.08048  0.51585  0.51611  1.0000
  H   H1468     1.0  0.18829  0.48793  0.87750  1.0000
  C   C1857     1.0  0.04522  0.51025  0.53332  1.0000
  C   C1858     1.0  0.10298  0.56534  0.57582  1.0000
  C   C1859     1.0  0.09197  0.58816  0.52616  1.0000
  H   H1469     1.0  0.11359  0.50585  0.92431  1.0000
  H   H1470     1.0  0.09276  0.52409  0.61748  1.0000
  C   C1860     1.0  0.17658  0.55779  0.96683  1.0000
  H   H1471     1.0  0.08566  0.49105  0.62207  1.0000
  C   C1861     1.0  0.09093  0.58227  0.55525  1.0000
  H   H1472     1.0  0.18757  0.50765  0.88536  1.0000
  S   S234      1.0  0.08637  0.55179  0.50482  1.0000
  H   H1473     1.0  0.03809  0.54234  0.60147  1.0000
  C   C1862     1.0  0.07779  0.49052  0.77263  1.0000
  H   H1474     1.0  0.01551  0.52913  0.54377  1.0000
  H   H1475     1.0  0.02169  0.57296  0.76148  1.0000
  H   H1476     1.0  0.11547  0.64887  0.48626  1.0000
  H   H1477     1.0  0.13251  0.57812  0.85391  1.0000
  C   C1863     1.0  0.99504  0.50478  0.76528  1.0000
  Fe  Fe115     1.0  0.07569  0.49517  0.69657  1.0000
  C   C1864     1.0  0.99488  0.59899  0.50339  1.0000
  H   H1478     1.0  0.00952  0.63051  0.49141  1.0000
  S   S235      1.0  0.06848  0.50330  0.56584  1.0000
  C   C1865     1.0  0.06637  0.59137  0.54508  1.0000
  S   S236      1.0  0.23302  0.57150  0.95575  1.0000
  C   C1866     1.0  0.10781  0.71815  0.48496  1.0000
  C   C1867     1.0  0.05006  0.51361  0.65484  1.0000
  H   H1479     1.0  0.19247  0.55820  0.84130  1.0000
  H   H1480     1.0  0.04122  0.58206  0.57042  1.0000
  C   C1868     1.0  0.01743  0.52703  0.77886  1.0000
  Fe  Fe116     1.0  0.05262  0.50394  0.60323  1.0000
  C   C1869     1.0  0.12028  0.56990  0.84703  1.0000
  C   C1870     1.0  0.13230  0.57187  0.84763  1.0000
  C   C1871     1.0  0.02355  0.53184  0.61488  1.0000
  H   H1481     1.0  0.11995  0.48917  0.77563  1.0000
  C   C1872     1.0  0.00555  0.50666  0.57712  1.0000
  H   H1482     1.0  0.21035  0.50116  0.92829  1.0000
  C   C1873     1.0  0.02663  0.53456  0.67537  1.0000
  H   H1483     1.0  0.00216  0.68403  0.53612  1.0000
  H   H1484     1.0  0.04689  0.71863  0.52134  1.0000
  C   C1874     1.0  0.18302  0.48776  0.92076  1.0000
  H   H1485     1.0  0.02501  0.49062  0.61365  1.0000
  S   S237      1.0  0.05559  0.48316  0.82467  1.0000
  C   C1875     1.0  0.02233  0.71288  0.48991  1.0000
  H   H1486     1.0  0.16631  0.56069  0.97168  1.0000
  C   C1876     1.0  0.23576  0.56662  0.93121  1.0000
  C   C1877     1.0  0.11314  0.48860  0.70614  1.0000
  H   H1487     1.0  0.10012  0.60172  0.49285  1.0000
  C   C1878     1.0  0.11806  0.49137  0.81167  1.0000
  H   H1488     1.0  0.10947  0.52988  0.91549  1.0000
  C   C1879     1.0  0.11563  0.72074  0.49190  1.0000
  C   C1880     1.0  0.98844  0.52691  0.75240  1.0000
  C   C1881     1.0  0.00299  0.49760  0.66557  1.0000
  H   H1489     1.0  0.00841  0.52574  0.48446  1.0000
  C   C1882     1.0  0.08804  0.50920  0.91006  1.0000
  H   H1490     1.0  0.03711  0.53339  0.67433  1.0000
  H   H1491     1.0  0.07839  0.48361  0.67114  1.0000
  H   H1492     1.0  0.11543  0.48679  0.96272  1.0000
  H   H1493     1.0  0.03686  0.72786  0.50160  1.0000
  C   C1883     1.0  0.07318  0.48478  0.64094  1.0000
  C   C1884     1.0  0.00083  0.57957  0.76827  1.0000
  H   H1494     1.0  0.13418  0.51951  0.64304  1.0000
  C   C1885     1.0  0.21298  0.48414  0.92013  1.0000
  H   H1495     1.0  0.11476  0.48883  0.60294  1.0000
  C   C1886     1.0  0.09778  0.50290  0.91750  1.0000
  C   C1887     1.0  0.99733  0.52127  0.65639  1.0000
  C   C1888     1.0  0.01363  0.53848  0.63599  1.0000
  H   H1496     1.0  0.09705  0.48354  0.82901  1.0000
  H   H1497     1.0  0.98790  0.56025  0.66399  1.0000
  H   H1498     1.0  0.15833  0.59312  0.96745  1.0000
  C   C1889     1.0  0.03695  0.54942  0.49173  1.0000
  C   C1890     1.0  0.22739  0.49812  0.89703  1.0000
  H   H1499     1.0  0.22729  0.50833  0.86304  1.0000
  C   C1891     1.0  0.04898  0.48966  0.86295  1.0000
  C   C1892     1.0  0.22555  0.48571  0.89725  1.0000
  H   H1500     1.0  0.11691  0.49232  0.82176  1.0000
  H   H1501     1.0  0.02596  0.48673  0.82724  1.0000
  H   H1502     1.0  0.98814  0.58631  0.57910  1.0000
  Fe  Fe117     1.0  0.23453  0.55943  0.87169  1.0000
  C   C1893     1.0  0.10706  0.50540  0.58863  1.0000
  C   C1894     1.0  0.04901  0.49184  0.87528  1.0000
  C   C1895     1.0  0.01821  0.53380  0.68797  1.0000
  C   C1896     1.0  0.10553  0.51048  0.91930  1.0000
  C   C1897     1.0  0.00814  0.53742  0.66543  1.0000
  C   C1898     1.0  0.19043  0.48847  0.84514  1.0000
  H   H1503     1.0  0.11050  0.49457  0.86522  1.0000
  C   C1899     1.0  0.99270  0.54244  0.59585  1.0000
  H   H1504     1.0  0.23134  0.51184  0.97430  1.0000
  C   C1900     1.0  0.20664  0.48606  0.97247  1.0000
  H   H1505     1.0  0.13422  0.49489  0.61117  1.0000
  H   H1506     1.0  0.12978  0.73178  0.49089  1.0000
  H   H1507     1.0  0.05799  0.49050  0.77265  1.0000
  C   C1901     1.0  0.01547  0.48489  0.55460  1.0000
  H   H1508     1.0  0.13146  0.50371  0.63179  1.0000
  H   H1509     1.0  0.04510  0.48403  0.89664  1.0000
  H   H1510     1.0  0.23302  0.50348  0.88813  1.0000
  C   C1902     1.0  0.09127  0.48927  0.65241  1.0000
  C   C1903     1.0  0.11692  0.48568  0.89738  1.0000
  C   C1904     1.0  0.00664  0.50981  0.66035  1.0000
  H   H1511     1.0  0.15088  0.48600  0.92687  1.0000
  H   H1512     1.0  0.06367  0.49567  0.90081  1.0000
  H   H1513     1.0  0.99770  0.54570  0.76486  1.0000
  S   S238      1.0  0.99187  0.48486  0.69809  1.0000
  C   C1905     1.0  0.09343  0.48979  0.86279  1.0000
  H   H1514     1.0  0.22913  0.60142  0.88057  1.0000
  C   C1906     1.0  0.01272  0.48611  0.63321  1.0000
  C   C1907     1.0  0.09984  0.49657  0.86747  1.0000
  C   C1908     1.0  0.01607  0.48634  0.70060  1.0000
  C   C1909     1.0  0.00304  0.68829  0.48682  1.0000
  H   H1515     1.0  0.03503  0.72491  0.54285  1.0000
  C   C1910     1.0  0.12171  0.48382  0.62734  1.0000
  C   C1911     1.0  0.08433  0.48925  0.63278  1.0000
  C   C1912     1.0  0.16083  0.48399  0.92835  1.0000
  C   C1913     1.0  0.98645  0.56418  0.57225  1.0000
  H   H1516     1.0  0.22470  0.48321  0.83503  1.0000
  H   H1517     1.0  0.08684  0.74701  0.46178  1.0000
  C   C1914     1.0  0.18818  0.90239  0.47352  1.0000
  H   H1518     1.0  0.11814  0.76435  0.42448  1.0000
  C   C1915     1.0  0.20574  0.91122  0.39553  1.0000
  C   C1916     1.0  0.11230  0.95391  0.45205  1.0000
  C   C1917     1.0  0.14450  0.98034  0.39175  1.0000
  H   H1519     1.0  0.12407  0.97510  0.41829  1.0000
  Fe  Fe118     1.0  0.04770  0.83597  0.40381  1.0000
  S   S239      1.0  0.05603  0.84626  0.38308  1.0000
  S   S240      1.0  0.02664  0.83460  0.41397  1.0000
  Fe  Fe119     1.0  0.07508  0.82540  0.41045  1.0000
  S   S241      1.0  0.08549  0.83446  0.39022  1.0000
  S   S242      1.0  0.08664  0.81304  0.42576  1.0000
  Fe  Fe120     1.0  0.06906  0.85238  0.39257  1.0000
  S   S243      1.0  0.07115  0.87314  0.39153  1.0000
  Fe  Fe121     1.0  0.07164  0.82728  0.38294  1.0000
  S   S244      1.0  0.07845  0.81394  0.36824  1.0000
  S   S245      1.0  0.05930  0.84350  0.41326  1.0000
  S   S246      1.0  0.06260  0.81687  0.40312  1.0000
  Fe  Fe122     1.0  0.12801  0.90031  0.40128  1.0000
  S   S247      1.0  0.11228  0.91575  0.41055  1.0000
  S   S248      1.0  0.12537  0.88695  0.38951  1.0000
  Fe  Fe123     1.0  0.14931  0.90415  0.41301  1.0000
  S   S249      1.0  0.13520  0.92008  0.42290  1.0000
  S   S250      1.0  0.16880  0.89562  0.41949  1.0000
  Fe  Fe124     1.0  0.12098  0.90685  0.42853  1.0000
  S   S251      1.0  0.10975  0.90388  0.44968  1.0000
  Fe  Fe125     1.0  0.12784  0.92785  0.40403  1.0000
  S   S252      1.0  0.12015  0.94988  0.39691  1.0000
  S   S253      1.0  0.13539  0.89035  0.42002  1.0000
  S   S254      1.0  0.14325  0.91299  0.39331  1.0000
  H   H1520     1.0  0.18739  0.93614  0.41380  1.0000
  C   C1918     1.0  0.09642  0.85092  0.46788  1.0000
  C   C1919     1.0  0.12581  0.83605  0.38667  1.0000
  C   C1920     1.0  0.14441  0.89253  0.46126  1.0000
  C   C1921     1.0  0.11348  0.78030  0.45427  1.0000
  C   C1922     1.0  0.05675  0.77704  0.47324  1.0000
  C   C1923     1.0  0.16815  0.97601  0.45455  1.0000
  C   C1924     1.0  0.15792  0.85849  0.45307  1.0000
  H   H1521     1.0  0.02228  0.89856  0.42363  1.0000
  H   H1522     1.0  0.01251  0.88173  0.44181  1.0000
  C   C1925     1.0  0.14296  0.84619  0.41515  1.0000
  H   H1523     1.0  0.03475  0.83763  0.43538  1.0000
  S   S255      1.0  0.22761  0.94020  0.43747  1.0000
  H   H1524     1.0  0.20850  0.96038  0.41963  1.0000
  H   H1525     1.0  0.12406  0.86183  0.43682  1.0000
  H   H1526     1.0  0.04113  0.86055  0.46673  1.0000
  H   H1527     1.0  0.01871  0.81765  0.46581  1.0000
  H   H1528     1.0  0.22834  0.96932  0.37966  1.0000
  C   C1926     1.0  0.12948  0.96145  0.39553  1.0000
  H   H1529     1.0  0.13140  0.96355  0.36575  1.0000
  H   H1530     1.0  0.14776  0.92314  0.36222  1.0000
  C   C1927     1.0  0.00368  0.79385  0.33005  1.0000
  H   H1531     1.0  0.18100  0.87545  0.44574  1.0000
  C   C1928     1.0  0.14237  0.95731  0.39743  1.0000
  P   P68       1.0  0.17971  0.94880  0.36091  1.0000
  C   C1929     1.0  0.11699  0.76867  0.43286  1.0000
  H   H1532     1.0  0.02385  0.76450  0.27778  1.0000
  H   H1533     1.0  0.14651  0.94684  0.40030  1.0000
  C   C1930     1.0  0.14916  0.93275  0.36214  1.0000
  H   H1534     1.0  0.15351  0.96682  0.36369  1.0000
  H   H1535     1.0  0.19151  0.89731  0.42713  1.0000
  C   C1931     1.0  0.12174  0.90104  0.45884  1.0000
  C   C1932     1.0  0.13475  0.89475  0.45405  1.0000
  H   H1536     1.0  0.99627  0.81031  0.42639  1.0000
  H   H1537     1.0  0.13740  0.89145  0.44487  1.0000
  C   C1933     1.0  0.98667  0.84790  0.44564  1.0000
  C   C1934     1.0  0.08628  0.87629  0.39186  1.0000
  C   C1935     1.0  0.08615  0.88717  0.39678  1.0000
  C   C1936     1.0  0.09803  0.89029  0.39659  1.0000
  C   C1937     1.0  0.11014  0.88288  0.39096  1.0000
  C   C1938     1.0  0.11022  0.87219  0.38581  1.0000
  C   C1939     1.0  0.09840  0.86868  0.38655  1.0000
  H   H1538     1.0  0.07682  0.89320  0.40077  1.0000
  H   H1539     1.0  0.09781  0.89865  0.40045  1.0000
  H   H1540     1.0  0.11949  0.86672  0.38102  1.0000
  H   H1541     1.0  0.09866  0.86041  0.38254  1.0000
  C   C1940     1.0  0.06870  0.80209  0.37187  1.0000
  C   C1941     1.0  0.07462  0.78893  0.37068  1.0000
  C   C1942     1.0  0.06682  0.77960  0.37310  1.0000
  C   C1943     1.0  0.05305  0.78355  0.37617  1.0000
  C   C1944     1.0  0.04721  0.79674  0.37705  1.0000
  C   C1945     1.0  0.05495  0.80588  0.37530  1.0000
  H   H1542     1.0  0.08525  0.78593  0.36797  1.0000
  H   H1543     1.0  0.07146  0.76947  0.37228  1.0000
  H   H1544     1.0  0.03663  0.79990  0.37898  1.0000
  H   H1545     1.0  0.05027  0.81597  0.37622  1.0000
  C   C1946     1.0  0.07625  0.83159  0.46161  1.0000
  C   C1947     1.0  0.08223  0.81817  0.46252  1.0000
  C   C1948     1.0  0.08624  0.81286  0.45117  1.0000
  C   C1949     1.0  0.08378  0.82074  0.43901  1.0000
  C   C1950     1.0  0.07849  0.83436  0.43787  1.0000
  C   C1951     1.0  0.07472  0.83981  0.44921  1.0000
  C   C1952     1.0  0.12401  0.97507  0.39201  1.0000
  H   H1546     1.0  0.09074  0.80251  0.45190  1.0000
  H   H1547     1.0  0.07726  0.84066  0.42833  1.0000
  H   H1548     1.0  0.07037  0.85028  0.44845  1.0000
  C   C1953     1.0  0.99349  0.85070  0.39112  1.0000
  C   C1954     1.0  0.00625  0.85255  0.38474  1.0000
  C   C1955     1.0  0.01657  0.84759  0.39160  1.0000
  C   C1956     1.0  0.01413  0.84070  0.40488  1.0000
  C   C1957     1.0  0.00140  0.83872  0.41121  1.0000
  C   C1958     1.0  0.99109  0.84373  0.40438  1.0000
  H   H1549     1.0  0.00806  0.85794  0.37450  1.0000
  H   H1550     1.0  0.02635  0.84920  0.38670  1.0000
  H   H1551     1.0  0.99947  0.83345  0.42150  1.0000
  C   C1959     1.0  0.00618  0.85712  0.43818  1.0000
  H   H1552     1.0  0.16011  0.96343  0.39619  1.0000
  C   C1960     1.0  0.12853  0.81069  0.46277  1.0000
  C   C1961     1.0  0.13935  0.82526  0.44378  1.0000
  C   C1962     1.0  0.12822  0.97698  0.42549  1.0000
  H   H1553     1.0  0.18152  0.97903  0.39359  1.0000
  C   C1963     1.0  0.16177  0.93446  0.36112  1.0000
  H   H1554     1.0  0.17219  0.97268  0.37162  1.0000
  H   H1555     1.0  0.10759  0.82801  0.44237  1.0000
  C   C1964     1.0  0.19276  0.90124  0.41652  1.0000
  H   H1556     1.0  0.08777  0.89196  0.46418  1.0000
  H   H1557     1.0  0.11830  0.78808  0.42049  1.0000
  H   H1558     1.0  0.16027  0.73718  0.42073  1.0000
  C   C1965     1.0  0.15495  0.86359  0.40325  1.0000
  H   H1559     1.0  0.04941  0.73428  0.46805  1.0000
  C   C1966     1.0  0.11611  0.81916  0.40350  1.0000
  C   C1967     1.0  0.19248  0.93806  0.35130  1.0000
  H   H1560     1.0  0.20444  0.97117  0.39701  1.0000
  H   H1561     1.0  0.18289  0.93788  0.43693  1.0000
  H   H1562     1.0  0.04740  0.73861  0.33347  1.0000
  C   C1968     1.0  0.07783  0.74521  0.43450  1.0000
  H   H1563     1.0  0.18822  0.85091  0.45146  1.0000
  H   H1564     1.0  0.10626  0.93648  0.43315  1.0000
  C   C1969     1.0  0.19399  0.94556  0.39342  1.0000
  C   C1970     1.0  0.11500  0.86314  0.43369  1.0000
  C   C1971     1.0  0.10532  0.94048  0.44170  1.0000
  H   H1565     1.0  0.08855  0.93858  0.47384  1.0000
  H   H1566     1.0  0.15788  0.94703  0.46851  1.0000
  C   C1972     1.0  0.02288  0.76114  0.28847  1.0000
  H   H1567     1.0  0.18180  0.93605  0.46468  1.0000
  C   C1973     1.0  0.11974  0.82534  0.39012  1.0000
  C   C1974     1.0  0.16599  0.97041  0.47846  1.0000
  C   C1975     1.0  0.19192  0.94894  0.38051  1.0000
  C   C1976     1.0  0.09140  0.86672  0.42601  1.0000
  H   H1568     1.0  0.99934  0.86213  0.47484  1.0000
  H   H1569     1.0  0.12043  0.95146  0.43175  1.0000
  H   H1570     1.0  0.00288  0.84051  0.47065  1.0000
  C   C1977     1.0  0.98735  0.79493  0.31349  1.0000
  P   P69       1.0  0.12749  0.84102  0.42263  1.0000
  C   C1978     1.0  0.03177  0.76321  0.29455  1.0000
  H   H1571     1.0  0.13420  0.86722  0.41145  1.0000
  P   P70       1.0  0.21084  0.88278  0.46925  1.0000
  H   H1572     1.0  0.17778  0.90572  0.39113  1.0000
  C   C1979     1.0  0.20041  0.92326  0.45877  1.0000
  H   H1573     1.0  0.16561  0.86448  0.47362  1.0000
  H   H1574     1.0  0.09786  0.84873  0.45823  1.0000
  H   H1575     1.0  0.11103  0.81111  0.40615  1.0000
  H   H1576     1.0  0.20490  0.84032  0.46528  1.0000
  H   H1577     1.0  0.03708  0.83604  0.47539  1.0000
  C   C1980     1.0  0.04803  0.82075  0.44420  1.0000
  H   H1578     1.0  0.13173  0.85422  0.46258  1.0000
  C   C1981     1.0  0.00891  0.85229  0.45097  1.0000
  H   H1579     1.0  0.10841  0.81120  0.46337  1.0000
  C   C1982     1.0  0.03071  0.86680  0.44113  1.0000
  H   H1580     1.0  0.12871  0.80337  0.47207  1.0000
  H   H1581     1.0  0.18914  0.96259  0.33317  1.0000
  C   C1983     1.0  0.02976  0.87703  0.39496  1.0000
  C   C1984     1.0  0.01622  0.87825  0.39682  1.0000
  C   C1985     1.0  0.01065  0.88089  0.38581  1.0000
  C   C1986     1.0  0.01865  0.88204  0.37296  1.0000
  C   C1987     1.0  0.03228  0.88101  0.37095  1.0000
  C   C1988     1.0  0.03773  0.87852  0.38210  1.0000
  P   P71       1.0  0.04285  0.88115  0.35446  1.0000
  C   C1989     1.0  0.04814  0.86426  0.35220  1.0000
  C   C1990     1.0  0.03361  0.89112  0.34206  1.0000
  C   C1991     1.0  0.02470  0.90305  0.34418  1.0000
  C   C1992     1.0  0.01747  0.91073  0.33462  1.0000
  C   C1993     1.0  0.01916  0.90663  0.32285  1.0000
  C   C1994     1.0  0.02812  0.89486  0.32061  1.0000
  C   C1995     1.0  0.03534  0.88713  0.33015  1.0000
  C   C1996     1.0  0.03925  0.85581  0.35714  1.0000
  C   C1997     1.0  0.04333  0.84256  0.35603  1.0000
  C   C1998     1.0  0.05631  0.83768  0.34981  1.0000
  C   C1999     1.0  0.06513  0.84612  0.34448  1.0000
  C   C2000     1.0  0.06104  0.85942  0.34550  1.0000
  C   C2001     1.0  0.05682  0.88807  0.35288  1.0000
  C   C2002     1.0  0.05719  0.90122  0.34597  1.0000
  C   C2003     1.0  0.06796  0.90651  0.34494  1.0000
  C   C2004     1.0  0.07844  0.89875  0.35079  1.0000
  C   C2005     1.0  0.07819  0.88568  0.35759  1.0000
  C   C2006     1.0  0.06744  0.88036  0.35868  1.0000
  H   H1582     1.0  0.03419  0.87458  0.40349  1.0000
  H   H1583     1.0  0.01009  0.87680  0.40680  1.0000
  H   H1584     1.0  0.00020  0.88139  0.38729  1.0000
  H   H1585     1.0  0.01420  0.88334  0.36467  1.0000
  H   H1586     1.0  0.04818  0.87736  0.38100  1.0000
  H   H1587     1.0  0.02333  0.90639  0.35322  1.0000
  H   H1588     1.0  0.01054  0.91987  0.33636  1.0000
  H   H1589     1.0  0.01353  0.91258  0.31547  1.0000
  H   H1590     1.0  0.02945  0.89170  0.31147  1.0000
  H   H1591     1.0  0.04226  0.87806  0.32821  1.0000
  H   H1592     1.0  0.02922  0.85937  0.36208  1.0000
  H   H1593     1.0  0.03654  0.83597  0.36027  1.0000
  H   H1594     1.0  0.05963  0.82730  0.34932  1.0000
  H   H1595     1.0  0.07523  0.84222  0.33982  1.0000
  H   H1596     1.0  0.06803  0.86577  0.34122  1.0000
  H   H1597     1.0  0.04921  0.90747  0.34140  1.0000
  H   H1598     1.0  0.06814  0.91667  0.33970  1.0000
  H   H1599     1.0  0.08670  0.90287  0.35018  1.0000
  H   H1600     1.0  0.08620  0.87971  0.36234  1.0000
  H   H1601     1.0  0.06738  0.87027  0.36425  1.0000
  P   P72       1.0  0.01910  0.74631  0.33398  1.0000
  C   C2007     1.0  0.04233  0.74245  0.47182  1.0000
  C   C2008     1.0  0.11332  0.94895  0.44094  1.0000
  C   C2009     1.0  0.03065  0.75877  0.30832  1.0000
  H   H1602     1.0  0.03775  0.76039  0.31274  1.0000
  H   H1603     1.0  0.01957  0.78513  0.31566  1.0000
  C   C2010     1.0  0.03998  0.83197  0.46659  1.0000
  H   H1604     1.0  0.19026  0.88931  0.45375  1.0000
  C   C2011     1.0  0.02969  0.75312  0.33939  1.0000
  C   C2012     1.0  0.04323  0.74731  0.33773  1.0000
  C   C2013     1.0  0.05153  0.75250  0.34185  1.0000
  C   C2014     1.0  0.04643  0.76361  0.34750  1.0000
  C   C2015     1.0  0.03302  0.76955  0.34902  1.0000
  C   C2016     1.0  0.02463  0.76431  0.34505  1.0000
  C   C2017     1.0  0.02056  0.86048  0.46931  1.0000
  H   H1605     1.0  0.21112  0.90672  0.41445  1.0000
  C   C2018     1.0  0.05473  0.89336  0.47178  1.0000
  C   C2019     1.0  0.17492  0.96563  0.42694  1.0000
  H   H1606     1.0  0.11547  0.79827  0.43947  1.0000
  C   C2020     1.0  0.00224  0.75103  0.34305  1.0000
  C   C2021     1.0  0.99260  0.76014  0.33660  1.0000
  P   P73       1.0  0.02353  0.85454  0.45433  1.0000
  C   C2022     1.0  0.18788  0.96178  0.42889  1.0000
  H   H1607     1.0  0.00508  0.78599  0.30096  1.0000
  C   C2023     1.0  0.99860  0.74564  0.35675  1.0000
  H   H1608     1.0  0.15201  0.86689  0.45722  1.0000
  H   H1609     1.0  0.01018  0.79363  0.33622  1.0000
  C   C2024     1.0  0.12828  0.84055  0.39659  1.0000
  C   C2025     1.0  0.02053  0.75230  0.31617  1.0000
  H   H1610     1.0  0.99805  0.76131  0.37636  1.0000
  C   C2026     1.0  0.99496  0.85516  0.43563  1.0000
  H   H1611     1.0  0.08452  0.88356  0.43514  1.0000
  H   H1612     1.0  0.05283  0.76747  0.35093  1.0000
  H   H1613     1.0  0.02917  0.77808  0.35354  1.0000
  H   H1614     1.0  0.01425  0.76890  0.34652  1.0000
  C   C2027     1.0  0.14019  0.96900  0.42828  1.0000
  C   C2028     1.0  0.00071  0.84470  0.46086  1.0000
  H   H1615     1.0  0.17931  0.82885  0.43743  1.0000
  C   C2029     1.0  0.07670  0.74641  0.44745  1.0000
  C   C2030     1.0  0.22544  0.96029  0.36558  1.0000
  H   H1616     1.0  0.99510  0.76501  0.32625  1.0000
  C   C2031     1.0  0.00905  0.78909  0.31835  1.0000
  H   H1617     1.0  0.11177  0.78485  0.46264  1.0000
  C   C2032     1.0  0.13824  0.94327  0.36368  1.0000
  H   H1618     1.0  0.01284  0.86210  0.43004  1.0000
  C   C2033     1.0  0.18083  0.96579  0.35324  1.0000
  C   C2034     1.0  0.03123  0.86266  0.47280  1.0000
  C   C2035     1.0  0.04422  0.86414  0.43521  1.0000
  C   C2036     1.0  0.11522  0.76092  0.44591  1.0000
  C   C2037     1.0  0.09633  0.93692  0.45356  1.0000
  C   C2038     1.0  0.21568  0.97512  0.34765  1.0000
  H   H1619     1.0  0.08229  0.90681  0.44343  1.0000
  C   C2039     1.0  0.99347  0.84126  0.32979  1.0000
  C   C2040     1.0  0.18333  0.97416  0.40344  1.0000
  C   C2041     1.0  0.07762  0.89477  0.46316  1.0000
  C   C2042     1.0  0.07455  0.90310  0.45133  1.0000
  C   C2043     1.0  0.06159  0.90646  0.44966  1.0000
  C   C2044     1.0  0.05170  0.90156  0.45985  1.0000
  C   C2045     1.0  0.20269  0.87273  0.46468  1.0000
  C   C2046     1.0  0.04179  0.88607  0.42076  1.0000
  C   C2047     1.0  0.02910  0.79843  0.47466  1.0000
  C   C2048     1.0  0.17628  0.97538  0.36102  1.0000
  C   C2049     1.0  0.14318  0.85967  0.41033  1.0000
  S   S256      1.0  0.05124  0.73867  0.40305  1.0000
  Fe  Fe126     1.0  0.05039  0.75034  0.38222  1.0000
  S   S257      1.0  0.04266  0.77260  0.37854  1.0000
  H   H1620     1.0  0.06947  0.77740  0.44016  1.0000
  H   H1621     1.0  0.05057  0.85466  0.43836  1.0000
  H   H1622     1.0  0.14831  0.81291  0.46001  1.0000
  C   C2050     1.0  0.12930  0.73479  0.43887  1.0000
  H   H1623     1.0  0.06914  0.74557  0.43116  1.0000
  H   H1624     1.0  0.11757  0.82201  0.38247  1.0000
  H   H1625     1.0  0.21942  0.88711  0.44034  1.0000
  C   C2051     1.0  0.12867  0.85881  0.47107  1.0000
  C   C2052     1.0  0.17328  0.83711  0.44182  1.0000
  H   H1626     1.0  0.05925  0.91280  0.44041  1.0000
  H   H1627     1.0  0.04168  0.90404  0.45849  1.0000
  C   C2053     1.0  0.16359  0.94687  0.36118  1.0000
  H   H1628     1.0  0.06189  0.74767  0.34094  1.0000
  H   H1629     1.0  0.17001  0.92600  0.36062  1.0000
  H   H1630     1.0  0.08143  0.86827  0.46399  1.0000
  H   H1631     1.0  0.00608  0.75284  0.29142  1.0000
  H   H1632     1.0  0.17062  0.91748  0.47736  1.0000
  C   C2054     1.0  0.11852  0.82366  0.41347  1.0000
  C   C2055     1.0  0.19335  0.87864  0.45669  1.0000
  H   H1633     1.0  0.00404  0.74487  0.31574  1.0000
  C   C2056     1.0  0.20461  0.93212  0.35502  1.0000
  C   C2057     1.0  0.99094  0.78089  0.36527  1.0000
  C   C2058     1.0  0.19621  0.96981  0.40538  1.0000
  C   C2059     1.0  0.99890  0.77157  0.37339  1.0000
  C   C2060     1.0  0.01929  0.81007  0.47488  1.0000
  C   C2061     1.0  0.12824  0.90327  0.47783  1.0000
  C   C2062     1.0  0.02840  0.88895  0.42688  1.0000
  C   C2063     1.0  0.16117  0.95588  0.46771  1.0000
  H   H1634     1.0  0.11080  0.76159  0.46686  1.0000
  C   C2064     1.0  0.05341  0.81446  0.45536  1.0000
  C   C2065     1.0  0.10312  0.84205  0.47732  1.0000
  C   C2066     1.0  0.11555  0.78785  0.44124  1.0000
  H   H1635     1.0  0.04607  0.89332  0.41265  1.0000
  C   C2067     1.0  0.11716  0.78208  0.43055  1.0000
  C   C2068     1.0  0.07921  0.78117  0.45314  1.0000
  C   C2069     1.0  0.04926  0.81995  0.46662  1.0000
  C   C2070     1.0  0.01174  0.75011  0.30993  1.0000
  H   H1636     1.0  0.03965  0.76814  0.28857  1.0000
  C   C2071     1.0  0.14996  0.96671  0.39521  1.0000
  H   H1637     1.0  0.99287  0.85726  0.33858  1.0000
  C   C2072     1.0  0.13994  0.95556  0.36403  1.0000
  C   C2073     1.0  0.11708  0.81504  0.45781  1.0000
  H   H1638     1.0  0.19854  0.92544  0.32371  1.0000
  H   H1639     1.0  0.10031  0.97852  0.45544  1.0000
  C   C2074     1.0  0.98966  0.84251  0.45819  1.0000
  C   C2075     1.0  0.18572  0.96972  0.33946  1.0000
  S   S258      1.0  0.06971  0.73891  0.37262  1.0000
  H   H1640     1.0  0.03591  0.79717  0.46533  1.0000
  P   P74       1.0  0.16148  0.96147  0.44062  1.0000
  H   H1641     1.0  0.16231  0.87056  0.43330  1.0000
  H   H1642     1.0  0.17011  0.98297  0.44509  1.0000
  C   C2076     1.0  0.20764  0.91018  0.45964  1.0000
  H   H1643     1.0  0.11877  0.96023  0.45143  1.0000
  H   H1644     1.0  0.09046  0.93001  0.45419  1.0000
  C   C2077     1.0  0.19042  0.93569  0.33986  1.0000
  H   H1645     1.0  0.99482  0.74834  0.44725  1.0000
  C   C2078     1.0  0.11307  0.76696  0.45663  1.0000
  C   C2079     1.0  0.10318  0.95052  0.46397  1.0000
  C   C2080     1.0  0.17150  0.84994  0.43386  1.0000
  H   H1646     1.0  0.05132  0.81655  0.43542  1.0000
  C   C2081     1.0  0.20023  0.92733  0.33245  1.0000
  C   C2082     1.0  0.18505  0.90583  0.39623  1.0000
  P   P75       1.0  0.11487  0.74365  0.44862  1.0000
  H   H1647     1.0  0.08646  0.78443  0.46847  1.0000
  H   H1648     1.0  0.16285  0.97541  0.41238  1.0000
  C   C2083     1.0  0.16162  0.94412  0.44294  1.0000
  C   C2084     1.0  0.14979  0.93965  0.44739  1.0000
  C   C2085     1.0  0.14986  0.92644  0.44813  1.0000
  C   C2086     1.0  0.16177  0.91756  0.44468  1.0000
  C   C2087     1.0  0.17361  0.92177  0.44088  1.0000
  C   C2088     1.0  0.17355  0.93496  0.44000  1.0000
  H   H1649     1.0  0.16889  0.82495  0.46134  1.0000
  C   C2089     1.0  0.18172  0.94514  0.37783  1.0000
  C   C2090     1.0  0.09528  0.94185  0.46468  1.0000
  C   C2091     1.0  0.13958  0.81598  0.45590  1.0000
  C   C2092     1.0  0.20392  0.90644  0.40934  1.0000
  H   H1650     1.0  0.15452  0.82618  0.41524  1.0000
  S   S259      1.0  0.07036  0.83783  0.47608  1.0000
  H   H1651     1.0  0.15492  0.87406  0.39940  1.0000
  H   H1652     1.0  0.11404  0.97834  0.39048  1.0000
  H   H1653     1.0  0.14052  0.94636  0.45013  1.0000
  C   C2093     1.0  0.14117  0.89664  0.47323  1.0000
  H   H1654     1.0  0.16188  0.90742  0.44487  1.0000
  H   H1655     1.0  0.18285  0.91483  0.43848  1.0000
  C   C2094     1.0  0.23419  0.92766  0.44988  1.0000
  H   H1656     1.0  0.20509  0.93138  0.45307  1.0000
  C   C2095     1.0  0.01092  0.75244  0.41469  1.0000
  C   C2096     1.0  0.00398  0.74660  0.42704  1.0000
  C   C2097     1.0  0.00032  0.75290  0.43771  1.0000
  C   C2098     1.0  0.00387  0.76489  0.43613  1.0000
  C   C2099     1.0  0.01107  0.77072  0.42377  1.0000
  C   C2100     1.0  0.01422  0.76456  0.41299  1.0000
  P   P76       1.0  0.01634  0.78592  0.42156  1.0000
  C   C2101     1.0  0.00908  0.79302  0.43605  1.0000
  C   C2102     1.0  0.03409  0.78306  0.41906  1.0000
  C   C2103     1.0  0.03957  0.79112  0.42336  1.0000
  C   C2104     1.0  0.05322  0.78898  0.42156  1.0000
  C   C2105     1.0  0.06159  0.77917  0.41500  1.0000
  C   C2106     1.0  0.05627  0.77126  0.41051  1.0000
  C   C2107     1.0  0.04260  0.77311  0.41261  1.0000
  C   C2108     1.0  0.99981  0.80518  0.43537  1.0000
  C   C2109     1.0  0.23085  0.96875  0.46498  1.0000
  C   C2110     1.0  0.21218  0.92130  0.33638  1.0000
  C   C2111     1.0  0.00856  0.79272  0.45891  1.0000
  C   C2112     1.0  0.01339  0.78679  0.44794  1.0000
  C   C2113     1.0  0.01080  0.79781  0.40756  1.0000
  C   C2114     1.0  0.99837  0.79861  0.40542  1.0000
  C   C2115     1.0  0.99342  0.80857  0.39535  1.0000
  C   C2116     1.0  0.00086  0.81778  0.38734  1.0000
  C   C2117     1.0  0.01325  0.81701  0.38940  1.0000
  C   C2118     1.0  0.01811  0.80723  0.39964  1.0000
  H   H1657     1.0  0.01383  0.74746  0.40646  1.0000
  C   C2119     1.0  0.06725  0.78013  0.47610  1.0000
  C   C2120     1.0  0.00785  0.86337  0.47733  1.0000
  C   C2121     1.0  0.14571  0.97145  0.43751  1.0000
  H   H1658     1.0  0.01948  0.76903  0.40331  1.0000
  H   H1659     1.0  0.03334  0.79925  0.42786  1.0000
  H   H1660     1.0  0.05733  0.79522  0.42494  1.0000
  H   H1661     1.0  0.07220  0.77789  0.41314  1.0000
  H   H1662     1.0  0.06274  0.76386  0.40511  1.0000
  H   H1663     1.0  0.03887  0.76692  0.40887  1.0000
  H   H1664     1.0  0.98808  0.82050  0.44574  1.0000
  C   C2122     1.0  0.15955  0.84565  0.46118  1.0000
  C   C2123     1.0  0.07840  0.78217  0.46608  1.0000
  H   H1665     1.0  0.01182  0.78800  0.46805  1.0000
  H   H1666     1.0  0.02059  0.77745  0.44864  1.0000
  C   C2124     1.0  0.23401  0.91777  0.47324  1.0000
  C   C2125     1.0  0.20156  0.89966  0.46705  1.0000
  H   H1667     1.0  0.99689  0.82571  0.37977  1.0000
  H   H1668     1.0  0.01897  0.82423  0.38332  1.0000
  H   H1669     1.0  0.02750  0.80719  0.40142  1.0000
  H   H1670     1.0  0.19856  0.95410  0.37254  1.0000
  C   C2126     1.0  0.08709  0.86211  0.47122  1.0000
  C   C2127     1.0  0.16656  0.85405  0.40072  1.0000
  C   C2128     1.0  0.16735  0.83495  0.45543  1.0000
  H   H1671     1.0  0.20658  0.93366  0.36375  1.0000
  H   H1672     1.0  0.99232  0.79187  0.41192  1.0000
  H   H1673     1.0  0.12839  0.94181  0.36506  1.0000
  H   H1674     1.0  0.08787  0.78281  0.44538  1.0000
  C   C2129     1.0  0.19646  0.91052  0.38898  1.0000
  C   C2130     1.0  0.06772  0.88998  0.47355  1.0000
  H   H1675     1.0  0.13276  0.84905  0.39369  1.0000
  C   C2131     1.0  0.11851  0.90539  0.47071  1.0000
  H   H1676     1.0  0.00994  0.75715  0.47475  1.0000
  C   C2132     1.0  0.00949  0.78854  0.37340  1.0000
  C   C2133     1.0  0.00815  0.77540  0.37748  1.0000
  H   H1677     1.0  0.14069  0.92308  0.45121  1.0000
  C   C2134     1.0  0.05748  0.77636  0.46011  1.0000
  H   H1678     1.0  0.18122  0.94029  0.33668  1.0000
  C   C2135     1.0  0.00178  0.79781  0.36500  1.0000
  H   H1679     1.0  0.18987  0.95696  0.43867  1.0000
  C   C2136     1.0  0.15254  0.95736  0.36286  1.0000
  C   C2137     1.0  0.08793  0.74578  0.45181  1.0000
  C   C2138     1.0  0.12805  0.82919  0.43837  1.0000
  H   H1680     1.0  0.19790  0.91394  0.37831  1.0000
  H   H1681     1.0  0.06710  0.74788  0.45408  1.0000
  H   H1682     1.0  0.15444  0.88768  0.45750  1.0000
  C   C2139     1.0  0.12476  0.83434  0.41010  1.0000
  H   H1683     1.0  0.99284  0.82410  0.32382  1.0000
  C   C2140     1.0  0.03869  0.83271  0.44417  1.0000
  C   C2141     1.0  0.04618  0.75048  0.47762  1.0000
  H   H1684     1.0  0.17621  0.85169  0.42337  1.0000
  C   C2142     1.0  0.19849  0.96369  0.41811  1.0000
  H   H1685     1.0  0.11522  0.81890  0.42369  1.0000
  C   C2143     1.0  0.03481  0.83856  0.45523  1.0000
  C   C2144     1.0  0.99517  0.81110  0.44633  1.0000
  C   C2145     1.0  0.02929  0.74500  0.47067  1.0000
  P   P77       1.0  0.15178  0.84316  0.47878  1.0000
  C   C2146     1.0  0.10199  0.85642  0.42268  1.0000
  H   H1686     1.0  0.01684  0.79143  0.37644  1.0000
  H   H1687     1.0  0.01456  0.76810  0.38347  1.0000
  C   C2147     1.0  0.04968  0.87370  0.42498  1.0000
  C   C2148     1.0  0.17328  0.93840  0.38839  1.0000
  H   H1688     1.0  0.00363  0.80768  0.36148  1.0000
  C   C2149     1.0  0.10045  0.74356  0.44334  1.0000
  H   H1689     1.0  0.12838  0.84105  0.37631  1.0000
  C   C2150     1.0  0.99963  0.80494  0.45804  1.0000
  H   H1690     1.0  0.10078  0.84994  0.41718  1.0000
  C   C2151     1.0  0.11673  0.82445  0.44582  1.0000
  C   C2152     1.0  0.16403  0.96450  0.45533  1.0000
  Fe  Fe127     1.0  0.23245  0.92322  0.39643  1.0000
  C   C2153     1.0  0.02000  0.75534  0.47564  1.0000
  C   C2154     1.0  0.21436  0.92371  0.34766  1.0000
  C   C2155     1.0  0.22702  0.88135  0.45830  1.0000
  H   H1691     1.0  0.20245  0.94763  0.39524  1.0000
  C   C2156     1.0  0.15463  0.83665  0.41230  1.0000
  C   C2157     1.0  0.18098  0.91548  0.47252  1.0000
  H   H1692     1.0  0.14792  0.82940  0.43885  1.0000
  S   S260      1.0  0.03883  0.73787  0.37850  1.0000
  H   H1693     1.0  0.04942  0.77422  0.45754  1.0000
  H   H1694     1.0  0.08229  0.86809  0.42297  1.0000
  C   C2158     1.0  0.17271  0.97204  0.41417  1.0000
  S   S261      1.0  0.21926  0.91838  0.38617  1.0000
  C   C2159     1.0  0.18550  0.93901  0.40390  1.0000
  H   H1695     1.0  0.06002  0.87142  0.42015  1.0000
  H   H1696     1.0  0.10549  0.88049  0.44192  1.0000
  H   H1697     1.0  0.16546  0.93514  0.38663  1.0000
  H   H1698     1.0  0.17535  0.83318  0.40299  1.0000
  C   C2160     1.0  0.18309  0.90135  0.41004  1.0000
  C   C2161     1.0  0.01288  0.75458  0.29616  1.0000
  C   C2162     1.0  0.10447  0.87365  0.43671  1.0000
  C   C2163     1.0  0.16375  0.86060  0.43948  1.0000
  C   C2164     1.0  0.02289  0.87939  0.43711  1.0000
  C   C2165     1.0  0.20695  0.85887  0.46756  1.0000
  C   C2166     1.0  0.20159  0.85102  0.46298  1.0000
  H   H1699     1.0  0.10996  0.83313  0.47493  1.0000
  C   C2167     1.0  0.99117  0.82854  0.33220  1.0000
  C   C2168     1.0  0.17501  0.93560  0.40144  1.0000
  C   C2169     1.0  0.22012  0.96474  0.46371  1.0000
  C   C2170     1.0  0.11393  0.85462  0.42639  1.0000
  C   C2171     1.0  0.09266  0.87541  0.43289  1.0000
  C   C2172     1.0  0.06874  0.77827  0.45017  1.0000
  H   H1700     1.0  0.05642  0.74856  0.47818  1.0000
  C   C2173     1.0  0.16641  0.84057  0.40524  1.0000
  C   C2174     1.0  0.12661  0.93674  0.47908  1.0000
  H   H1701     1.0  0.17561  0.85715  0.39505  1.0000
  H   H1702     1.0  0.22087  0.93594  0.46608  1.0000
  H   H1703     1.0  0.16859  0.93022  0.40955  1.0000
  H   H1704     1.0  0.06094  0.80544  0.45522  1.0000
  H   H1705     1.0  0.00094  0.76951  0.44457  1.0000
  H   H1706     1.0  0.18330  0.89440  0.47932  1.0000
  C   C2175     1.0  0.19221  0.85697  0.45518  1.0000
  H   H1707     1.0  0.99288  0.85898  0.42577  1.0000
  C   C2176     1.0  0.13891  0.98183  0.44408  1.0000
  H   H1708     1.0  0.05348  0.81509  0.47527  1.0000
  C   C2177     1.0  0.99221  0.79414  0.36100  1.0000
  H   H1709     1.0  0.00579  0.73890  0.36215  1.0000
  C   C2178     1.0  0.18811  0.87078  0.45200  1.0000
  H   H1710     1.0  0.11193  0.87239  0.46413  1.0000
  H   H1711     1.0  0.14076  0.74980  0.43387  1.0000
  H   H1712     1.0  0.99031  0.75970  0.39996  1.0000
  H   H1713     1.0  0.22178  0.95387  0.34992  1.0000
  H   H1714     1.0  0.22988  0.95036  0.37032  1.0000
  H   H1715     1.0  0.21238  0.97669  0.33857  1.0000
  C   C2179     1.0  0.22814  0.88390  0.44447  1.0000
  C   C2180     1.0  0.09021  0.74342  0.42587  1.0000
  H   H1716     1.0  0.08344  0.81174  0.47204  1.0000
  H   H1717     1.0  0.14521  0.96100  0.42315  1.0000
  H   H1718     1.0  0.99609  0.80964  0.46648  1.0000
  H   H1719     1.0  0.21924  0.96452  0.45394  1.0000
  H   H1720     1.0  0.21798  0.90837  0.45471  1.0000
  H   H1721     1.0  0.13005  0.74341  0.46746  1.0000
  C   C2181     1.0  0.18719  0.92590  0.46533  1.0000
  C   C2182     1.0  0.16898  0.97903  0.46613  1.0000
  C   C2183     1.0  0.09881  0.97362  0.47683  1.0000
  H   H1722     1.0  0.10857  0.91059  0.47425  1.0000
  H   H1723     1.0  0.00150  0.73715  0.42835  1.0000
  C   C2184     1.0  0.11739  0.86900  0.47195  1.0000
  C   C2185     1.0  0.11513  0.73462  0.46555  1.0000
  C   C2186     1.0  0.16253  0.95867  0.47918  1.0000
  H   H1724     1.0  0.12326  0.93201  0.47335  1.0000
  H   H1725     1.0  0.02636  0.73880  0.46607  1.0000
  H   H1726     1.0  0.99691  0.84645  0.31969  1.0000
  H   H1727     1.0  0.20221  0.95811  0.47387  1.0000
  C   C2187     1.0  0.99122  0.84736  0.34040  1.0000
  S   S262      1.0  0.22916  0.94384  0.39946  1.0000
  H   H1728     1.0  0.11095  0.74124  0.42333  1.0000
  C   C2188     1.0  0.98666  0.84075  0.35341  1.0000
  H   H1729     1.0  0.09109  0.74241  0.41583  1.0000
  C   C2189     1.0  0.21059  0.96095  0.47505  1.0000
  H   H1730     1.0  0.21460  0.85416  0.47315  1.0000
  C   C2190     1.0  0.14052  0.74016  0.43282  1.0000
  H   H1731     1.0  0.21973  0.91470  0.33075  1.0000
  H   H1732     1.0  0.04695  0.88957  0.47947  1.0000
  C   C2191     1.0  0.22098  0.96229  0.35400  1.0000
  H   H1733     1.0  0.22354  0.91893  0.35088  1.0000
  C   C2192     1.0  0.22894  0.92795  0.46333  1.0000
  C   C2193     1.0  0.22451  0.97111  0.37089  1.0000
  P   P78       1.0  0.10311  0.95575  0.47867  1.0000
  C   C2194     1.0  0.10148  0.74262  0.43023  1.0000
  C   C2195     1.0  0.99007  0.79903  0.33366  1.0000
  C   C2196     1.0  0.98663  0.82182  0.34530  1.0000
  C   C2197     1.0  0.00089  0.78961  0.31007  1.0000
  H   H1734     1.0  0.08952  0.75692  0.47857  1.0000
  C   C2198     1.0  0.12361  0.73655  0.47231  1.0000
  H   H1735     1.0  0.23399  0.97759  0.41287  1.0000
  C   C2199     1.0  0.23226  0.96859  0.47759  1.0000
  C   C2200     1.0  0.09846  0.98226  0.46430  1.0000
  C   C2201     1.0  0.09578  0.97904  0.48814  1.0000
  Fe  Fe128     1.0  0.09183  0.81118  0.51450  1.0000
  S   S263      1.0  0.07206  0.82494  0.51355  1.0000
  S   S264      1.0  0.10915  0.81494  0.51990  1.0000
  C   C2202     1.0  0.01923  0.73922  0.51203  1.0000
  H   H1736     1.0  0.19045  0.92113  0.54346  1.0000
  C   C2203     1.0  0.20097  0.93362  0.49547  1.0000
  C   C2204     1.0  0.14885  0.92248  0.60760  1.0000
  C   C2205     1.0  0.20479  0.88029  0.58739  1.0000
  Fe  Fe129     1.0  0.06417  0.80637  0.51998  1.0000
  S   S265      1.0  0.04421  0.80521  0.53357  1.0000
  C   C2206     1.0  0.01102  0.80216  0.49843  1.0000
  S   S266      1.0  0.08366  0.79259  0.52294  1.0000
  Fe  Fe130     1.0  0.12655  0.87902  0.52805  1.0000
  S   S267      1.0  0.12333  0.89787  0.51274  1.0000
  S   S268      1.0  0.10974  0.86826  0.53440  1.0000
  Fe  Fe131     1.0  0.15221  0.88411  0.53046  1.0000
  S   S269      1.0  0.15095  0.90338  0.51529  1.0000
  S   S270      1.0  0.16888  0.87408  0.54114  1.0000
  Fe  Fe132     1.0  0.12946  0.90738  0.52541  1.0000
  S   S271      1.0  0.11589  0.92707  0.52798  1.0000
  Fe  Fe133     1.0  0.14487  0.89234  0.50391  1.0000
  C   C2207     1.0  0.00804  0.77031  0.53332  1.0000
  S   S272      1.0  0.13105  0.88897  0.54167  1.0000
  S   S273      1.0  0.14775  0.87265  0.51821  1.0000
  P   P79       1.0  0.19879  0.95743  0.50224  1.0000
  C   C2208     1.0  0.14109  0.91420  0.59289  1.0000
  C   C2209     1.0  0.16946  0.84232  0.50830  1.0000
  H   H1737     1.0  0.07569  0.87189  0.51596  1.0000
  C   C2210     1.0  0.07879  0.88113  0.51101  1.0000
  H   H1738     1.0  0.11073  0.88362  0.58502  1.0000
  H   H1739     1.0  0.08791  0.75800  0.51875  1.0000
  C   C2211     1.0  0.19641  0.92269  0.49545  1.0000
  H   H1740     1.0  0.11844  0.96371  0.49296  1.0000
  C   C2212     1.0  0.05017  0.77330  0.52175  1.0000
  C   C2213     1.0  0.12019  0.87081  0.49296  1.0000
  C   C2214     1.0  0.08653  0.75325  0.51172  1.0000
  C   C2215     1.0  0.17371  0.86130  0.49059  1.0000
  C   C2216     1.0  0.17926  0.94320  0.50715  1.0000
  H   H1741     1.0  0.99007  0.74469  0.50584  1.0000
  C   C2217     1.0  0.11923  0.94883  0.48242  1.0000
  H   H1742     1.0  0.17250  0.95097  0.51183  1.0000
  H   H1743     1.0  0.08977  0.85725  0.50330  1.0000
  H   H1744     1.0  0.09564  0.97265  0.49798  1.0000
  C   C2218     1.0  0.04741  0.77741  0.50906  1.0000
  S   S274      1.0  0.09616  0.80894  0.49337  1.0000
  H   H1745     1.0  0.21124  0.93388  0.49120  1.0000
  H   H1746     1.0  0.05468  0.75669  0.53772  1.0000
  C   C2219     1.0  0.09531  0.93888  0.50323  1.0000
  P   P80       1.0  0.99647  0.75428  0.52563  1.0000
  C   C2220     1.0  0.03653  0.86347  0.51798  1.0000
  H   H1747     1.0  0.14382  0.79044  0.49965  1.0000
  C   C2221     1.0  0.17475  0.93217  0.50725  1.0000
  C   C2222     1.0  0.08297  0.74073  0.49367  1.0000
  C   C2223     1.0  0.02994  0.78859  0.48636  1.0000
  H   H1748     1.0  0.21916  0.88796  0.57083  1.0000
  C   C2224     1.0  0.12257  0.94051  0.52705  1.0000
  C   C2225     1.0  0.13567  0.93868  0.52777  1.0000
  C   C2226     1.0  0.14048  0.94957  0.52768  1.0000
  C   C2227     1.0  0.13221  0.96227  0.52701  1.0000
  C   C2228     1.0  0.11920  0.96411  0.52602  1.0000
  C   C2229     1.0  0.11439  0.95326  0.52604  1.0000
  H   H1749     1.0  0.14198  0.92885  0.52865  1.0000
  H   H1750     1.0  0.15055  0.94819  0.52835  1.0000
  H   H1751     1.0  0.19988  0.85906  0.51657  1.0000
  H   H1752     1.0  0.10424  0.95471  0.52548  1.0000
  C   C2230     1.0  0.18181  0.88110  0.54108  1.0000
  C   C2231     1.0  0.18885  0.87511  0.55115  1.0000
  C   C2232     1.0  0.19920  0.88012  0.55180  1.0000
  C   C2233     1.0  0.20301  0.89094  0.54212  1.0000
  C   C2234     1.0  0.19618  0.89690  0.53180  1.0000
  C   C2235     1.0  0.18545  0.89206  0.53137  1.0000
  H   H1753     1.0  0.18611  0.86665  0.55866  1.0000
  H   H1754     1.0  0.20420  0.87562  0.55993  1.0000
  H   H1755     1.0  0.19886  0.90547  0.52445  1.0000
  H   H1756     1.0  0.18007  0.89670  0.52355  1.0000
  C   C2236     1.0  0.02280  0.82985  0.50715  1.0000
  S   S275      1.0  0.09544  0.77364  0.49192  1.0000
  H   H1757     1.0  0.17804  0.96637  0.52428  1.0000
  H   H1758     1.0  0.19975  0.86360  0.49269  1.0000
  C   C2237     1.0  0.22283  0.96467  0.48893  1.0000
  C   C2238     1.0  0.10918  0.83021  0.52313  1.0000
  C   C2239     1.0  0.09743  0.83895  0.52739  1.0000
  C   C2240     1.0  0.09780  0.85062  0.53065  1.0000
  C   C2241     1.0  0.10988  0.85386  0.52936  1.0000
  C   C2242     1.0  0.12163  0.84530  0.52475  1.0000
  C   C2243     1.0  0.12127  0.83348  0.52173  1.0000
  H   H1759     1.0  0.08808  0.83650  0.52860  1.0000
  H   H1760     1.0  0.08867  0.85704  0.53445  1.0000
  H   H1761     1.0  0.13098  0.84757  0.52393  1.0000
  H   H1762     1.0  0.13040  0.82674  0.51847  1.0000
  H   H1763     1.0  0.12830  0.86600  0.57587  1.0000
  C   C2244     1.0  0.20736  0.93983  0.52446  1.0000
  C   C2245     1.0  0.00772  0.81898  0.52539  1.0000
  C   C2246     1.0  0.01826  0.81209  0.53168  1.0000
  C   C2247     1.0  0.03112  0.81385  0.52556  1.0000
  C   C2248     1.0  0.18588  0.97225  0.50303  1.0000
  C   C2249     1.0  0.19244  0.94397  0.50127  1.0000
  H   H1764     1.0  0.08145  0.73607  0.48668  1.0000
  H   H1765     1.0  0.01647  0.80551  0.54136  1.0000
  Fe  Fe134     1.0  0.08661  0.79139  0.50165  1.0000
  C   C2250     1.0  0.99272  0.76246  0.50949  1.0000
  H   H1766     1.0  0.23366  0.92163  0.57288  1.0000
  C   C2251     1.0  0.13509  0.90640  0.61695  1.0000
  C   C2252     1.0  0.21334  0.86290  0.60470  1.0000
  C   C2253     1.0  0.21181  0.96102  0.48776  1.0000
  C   C2254     1.0  0.16002  0.81577  0.48746  1.0000
  H   H1767     1.0  0.17984  0.91334  0.50156  1.0000
  H   H1768     1.0  0.05084  0.78051  0.52670  1.0000
  H   H1769     1.0  0.01640  0.77119  0.48554  1.0000
  H   H1770     1.0  0.22414  0.96467  0.49856  1.0000
  H   H1771     1.0  0.04321  0.82415  0.50843  1.0000
  C   C2255     1.0  0.13451  0.90622  0.60411  1.0000
  C   C2256     1.0  0.18432  0.98219  0.49151  1.0000
  H   H1772     1.0  0.10387  0.93749  0.55291  1.0000
  C   C2257     1.0  0.98972  0.75524  0.50211  1.0000
  H   H1773     1.0  0.10565  0.93467  0.50318  1.0000
  C   C2258     1.0  0.17732  0.97400  0.51528  1.0000
  H   H1774     1.0  0.12891  0.89984  0.60307  1.0000
  S   S276      1.0  0.06659  0.80370  0.49938  1.0000
  H   H1775     1.0  0.21535  0.94427  0.55123  1.0000
  H   H1776     1.0  0.22939  0.89919  0.58119  1.0000
  C   C2259     1.0  0.21767  0.88560  0.49128  1.0000
  C   C2260     1.0  0.21765  0.88100  0.58034  1.0000
  H   H1777     1.0  0.13842  0.95228  0.50095  1.0000
  C   C2261     1.0  0.14830  0.92231  0.59476  1.0000
  C   C2262     1.0  0.08903  0.75908  0.49811  1.0000
  H   H1778     1.0  0.20639  0.93189  0.52069  1.0000
  H   H1779     1.0  0.13720  0.85810  0.49968  1.0000
  C   C2263     1.0  0.00999  0.82798  0.51316  1.0000
  C   C2264     1.0  0.03337  0.82265  0.51320  1.0000
  C   C2265     1.0  0.21229  0.94672  0.54187  1.0000
  C   C2266     1.0  0.01670  0.86963  0.49252  1.0000
  H   H1780     1.0  0.12580  0.90719  0.48661  1.0000
  C   C2267     1.0  0.13481  0.81091  0.49294  1.0000
  C   C2268     1.0  0.16940  0.92739  0.54550  1.0000
  C   C2269     1.0  0.16780  0.90855  0.56959  1.0000
  H   H1781     1.0  0.20308  0.91472  0.49096  1.0000
  H   H1782     1.0  0.10196  0.95923  0.55781  1.0000
  C   C2270     1.0  0.18010  0.91043  0.56167  1.0000
  C   C2271     1.0  0.98829  0.78245  0.49240  1.0000
  C   C2272     1.0  0.08278  0.74094  0.51621  1.0000
  C   C2273     1.0  0.14348  0.87700  0.57091  1.0000
  H   H1783     1.0  0.13304  0.94199  0.57897  1.0000
  H   H1784     1.0  0.06537  0.93549  0.52327  1.0000
  C   C2274     1.0  0.08785  0.89891  0.51203  1.0000
  H   H1785     1.0  0.01494  0.74271  0.50338  1.0000
  C   C2275     1.0  0.13817  0.93031  0.48364  1.0000
  C   C2276     1.0  0.11972  0.92739  0.56301  1.0000
  C   C2277     1.0  0.12785  0.92839  0.57070  1.0000
  H   H1786     1.0  0.15782  0.83074  0.50532  1.0000
  H   H1787     1.0  0.12085  0.91826  0.55999  1.0000
  H   H1788     1.0  0.02455  0.83693  0.49778  1.0000
  C   C2278     1.0  0.12371  0.89690  0.58118  1.0000
  C   C2279     1.0  0.14545  0.80040  0.49537  1.0000
  H   H1789     1.0  0.16992  0.83662  0.51832  1.0000
  S   S277      1.0  0.15350  0.89366  0.48206  1.0000
  C   C2280     1.0  0.03737  0.87662  0.51612  1.0000
  C   C2281     1.0  0.10904  0.95061  0.56157  1.0000
  C   C2282     1.0  0.16270  0.83894  0.50080  1.0000
  C   C2283     1.0  0.17498  0.85348  0.50319  1.0000
  H   H1790     1.0  0.16734  0.90116  0.57885  1.0000
  C   C2284     1.0  0.18331  0.92193  0.50139  1.0000
  C   C2285     1.0  0.12073  0.88505  0.58119  1.0000
  H   H1791     1.0  0.08930  0.92642  0.52237  1.0000
  H   H1792     1.0  0.06450  0.85290  0.49617  1.0000
  P   P81       1.0  0.14032  0.91426  0.57621  1.0000
  H   H1793     1.0  0.09201  0.90321  0.51748  1.0000
  C   C2286     1.0  0.07770  0.95430  0.49339  1.0000
  H   H1794     1.0  0.06705  0.78073  0.48608  1.0000
  C   C2287     1.0  0.14647  0.88890  0.57072  1.0000
  C   C2288     1.0  0.13172  0.86090  0.49192  1.0000
  H   H1795     1.0  0.11590  0.90452  0.58517  1.0000
  H   H1796     1.0  0.15109  0.86936  0.56672  1.0000
  H   H1797     1.0  0.15346  0.92859  0.58629  1.0000
  C   C2289     1.0  0.11734  0.95182  0.56885  1.0000
  C   C2290     1.0  0.01249  0.74298  0.52412  1.0000
  C   C2291     1.0  0.15707  0.92555  0.55339  1.0000
  H   H1798     1.0  0.08458  0.88227  0.52826  1.0000
  C   C2292     1.0  0.22623  0.86353  0.59762  1.0000
  C   C2293     1.0  0.04919  0.75458  0.50867  1.0000
  C   C2294     1.0  0.13660  0.89896  0.57589  1.0000
  H   H1799     1.0  0.15645  0.89018  0.56628  1.0000
  C   C2295     1.0  0.12665  0.94075  0.57348  1.0000
  C   C2296     1.0  0.11014  0.93837  0.55879  1.0000
  H   H1800     1.0  0.14828  0.93152  0.55005  1.0000
  H   H1801     1.0  0.22974  0.91785  0.48356  1.0000
  H   H1802     1.0  0.17007  0.93467  0.53618  1.0000
  C   C2297     1.0  0.16170  0.84655  0.48795  1.0000
  C   C2298     1.0  0.15618  0.91615  0.56551  1.0000
  H   H1803     1.0  0.14261  0.91472  0.62865  1.0000
  H   H1804     1.0  0.17963  0.85645  0.50931  1.0000
  S   S278      1.0  0.21475  0.89793  0.54475  1.0000
  C   C2299     1.0  0.18089  0.91985  0.54965  1.0000
  C   C2300     1.0  0.14224  0.91454  0.61870  1.0000
  H   H1805     1.0  0.15435  0.92883  0.60895  1.0000
  H   H1806     1.0  0.12995  0.90025  0.62555  1.0000
  C   C2301     1.0  0.07255  0.93924  0.51472  1.0000
  C   C2302     1.0  0.13063  0.87510  0.57608  1.0000
  C   C2303     1.0  0.08372  0.88704  0.51809  1.0000
  H   H1807     1.0  0.11666  0.96141  0.57073  1.0000
  H   H1808     1.0  0.01331  0.74055  0.54466  1.0000
  C   C2304     1.0  0.99570  0.78825  0.54440  1.0000
  C   C2305     1.0  0.21124  0.93667  0.53658  1.0000
  H   H1809     1.0  0.08983  0.91438  0.49432  1.0000
  C   C2306     1.0  0.20615  0.96308  0.52267  1.0000
  C   C2307     1.0  0.05228  0.75988  0.52799  1.0000
  H   H1810     1.0  0.18907  0.90449  0.56470  1.0000
  H   H1811     1.0  0.16464  0.93147  0.51203  1.0000
  C   C2308     1.0  0.20975  0.95992  0.53491  1.0000
  C   C2309     1.0  0.08600  0.93406  0.51419  1.0000
  C   C2310     1.0  0.20477  0.95307  0.51740  1.0000
  H   H1812     1.0  0.21346  0.92640  0.54185  1.0000
  C   C2311     1.0  0.09123  0.94910  0.49276  1.0000
  C   C2312     1.0  0.05806  0.87280  0.49985  1.0000
  C   C2313     1.0  0.15808  0.80282  0.49259  1.0000
  H   H1813     1.0  0.22242  0.89328  0.48441  1.0000
  C   C2314     1.0  0.13671  0.82385  0.48783  1.0000
  H   H1814     1.0  0.02829  0.85977  0.52503  1.0000
  H   H1815     1.0  0.01525  0.87278  0.50168  1.0000
  C   C2315     1.0  0.00776  0.78084  0.53870  1.0000
  H   H1816     1.0  0.21082  0.96770  0.53889  1.0000
  H   H1817     1.0  0.21166  0.85582  0.61412  1.0000
  Fe  Fe135     1.0  0.07578  0.82128  0.49311  1.0000
  H   H1818     1.0  0.20437  0.97336  0.51736  1.0000
  H   H1819     1.0  0.02978  0.88315  0.52180  1.0000
  H   H1820     1.0  0.10559  0.83742  0.49747  1.0000
  C   C2316     1.0  0.99624  0.76699  0.53375  1.0000
  C   C2317     1.0  0.11319  0.87500  0.48286  1.0000
  H   H1821     1.0  0.99781  0.81768  0.53016  1.0000
  C   C2318     1.0  0.06840  0.94934  0.50431  1.0000
  H   H1822     1.0  0.11685  0.87541  0.50149  1.0000
  H   H1823     1.0  0.01749  0.76498  0.52862  1.0000
  C   C2319     1.0  0.10064  0.84446  0.49004  1.0000
  H   H1824     1.0  0.23434  0.85684  0.60175  1.0000
  H   H1825     1.0  0.21162  0.87114  0.52433  1.0000
  C   C2320     1.0  0.20262  0.87124  0.59957  1.0000
  C   C2321     1.0  0.01831  0.73778  0.53522  1.0000
  C   C2322     1.0  0.12381  0.95450  0.49009  1.0000
  C   C2323     1.0  0.09156  0.85579  0.49333  1.0000
  P   P82       1.0  0.07207  0.87884  0.48856  1.0000
  C   C2324     1.0  0.08739  0.75266  0.48911  1.0000
  C   C2325     1.0  0.08667  0.90512  0.49897  1.0000
  Fe  Fe136     1.0  0.23273  0.90184  0.52874  1.0000
  P   P83       1.0  0.04263  0.77357  0.48629  1.0000
  H   H1826     1.0  0.11277  0.97384  0.52544  1.0000
  C   C2326     1.0  0.04810  0.88128  0.50709  1.0000
  H   H1827     1.0  0.05797  0.95341  0.50478  1.0000
  C   C2327     1.0  0.21787  0.88285  0.50478  1.0000
  C   C2328     1.0  0.22851  0.87262  0.58536  1.0000
  H   H1828     1.0  0.05396  0.74008  0.52609  1.0000
  C   C2329     1.0  0.08165  0.89930  0.49185  1.0000
  C   C2330     1.0  0.07798  0.88702  0.49770  1.0000
  C   C2331     1.0  0.20500  0.86889  0.49586  1.0000
  H   H1829     1.0  0.00423  0.80375  0.50771  1.0000
  H   H1830     1.0  0.16601  0.97289  0.48756  1.0000
  H   H1831     1.0  0.02099  0.78297  0.50732  1.0000
  H   H1832     1.0  0.04578  0.78789  0.50442  1.0000
  C   C2332     1.0  0.05176  0.75054  0.52146  1.0000
  C   C2333     1.0  0.99198  0.77615  0.50454  1.0000
  H   H1833     1.0  0.12498  0.80905  0.49535  1.0000
  H   H1834     1.0  0.04934  0.74712  0.50364  1.0000
  H   H1835     1.0  0.04872  0.89145  0.50586  1.0000
  C   C2334     1.0  0.21149  0.87845  0.48666  1.0000
  H   H1836     1.0  0.07438  0.96221  0.48544  1.0000
  H   H1837     1.0  0.04566  0.84484  0.51215  1.0000
  H   H1838     1.0  0.19264  0.87063  0.60498  1.0000
  H   H1839     1.0  0.99403  0.78208  0.51005  1.0000
  H   H1840     1.0  0.98759  0.79303  0.48869  1.0000
  H   H1841     1.0  0.01691  0.78336  0.53831  1.0000
  C   C2335     1.0  0.04635  0.85502  0.51074  1.0000
  C   C2336     1.0  0.05706  0.85965  0.50168  1.0000
  H   H1842     1.0  0.22283  0.88831  0.50821  1.0000
  C   C2337     1.0  0.14232  0.93574  0.49174  1.0000
  H   H1843     1.0  0.19651  0.88664  0.58329  1.0000
  H   H1844     1.0  0.00267  0.82092  0.48701  1.0000
  C   C2338     1.0  0.04680  0.76807  0.50245  1.0000
  C   C2339     1.0  0.21161  0.87316  0.51384  1.0000
  S   S279      1.0  0.13849  0.97549  0.52758  1.0000
  H   H1845     1.0  0.19060  0.98110  0.48190  1.0000
  H   H1846     1.0  0.99547  0.79647  0.54849  1.0000
  C   C2340     1.0  0.02068  0.79045  0.49820  1.0000
  H   H1847     1.0  0.12828  0.83184  0.48633  1.0000
  S   S280      1.0  0.99704  0.83758  0.50534  1.0000
  C   C2341     1.0  0.00599  0.86776  0.48898  1.0000
  C   C2342     1.0  0.08094  0.73464  0.50722  1.0000
  C   C2343     1.0  0.20506  0.86628  0.50942  1.0000
  H   H1848     1.0  0.15103  0.93052  0.49563  1.0000
  H   H1849     1.0  0.99625  0.86936  0.49544  1.0000
  H   H1850     1.0  0.16630  0.79468  0.49464  1.0000
  S   S281      1.0  0.23189  0.91579  0.50901  1.0000
  C   C2344     1.0  0.13525  0.94794  0.49474  1.0000
  H   H1851     1.0  0.16059  0.95193  0.48872  1.0000
  H   H1852     1.0  0.03761  0.86865  0.48702  1.0000
  H   H1853     1.0  0.16982  0.81753  0.48555  1.0000
  H   H1854     1.0  0.10461  0.88302  0.48337  1.0000
  C   C2345     1.0  0.14932  0.82640  0.48507  1.0000
  C   C2346     1.0  0.02929  0.86723  0.48433  1.0000
  C   C2347     1.0  0.16707  0.85788  0.48302  1.0000
  H   H1855     1.0  0.17731  0.87038  0.48690  1.0000
  C   C2348     1.0  0.08472  0.86479  0.48393  1.0000
  H   H1856     1.0  0.22790  0.86877  0.56062  1.0000
  C   C2349     1.0  0.01025  0.81192  0.48676  1.0000
  C   C2350     1.0  0.02376  0.76333  0.48158  1.0000
  H   H1857     1.0  0.08095  0.90434  0.48175  1.0000
  H   H1858     1.0  0.08117  0.73634  0.52673  1.0000
  H   H1859     1.0  0.23266  0.85861  0.54158  1.0000
  C   C2351     1.0  0.03699  0.76131  0.48208  1.0000
  S   S282      1.0  0.23458  0.98006  0.54727  1.0000
  H   H1860     1.0  0.14373  0.92093  0.48116  1.0000
  C   C2352     1.0  0.98627  0.73328  0.54407  1.0000
  C   C2353     1.0  0.13616  0.85495  0.48086  1.0000
  Fe  Fe137     1.0  0.36577  0.02613  0.43803  1.0000
  S   S283      1.0  0.34564  0.02426  0.43798  1.0000
  S   S284      1.0  0.37299  0.02899  0.45468  1.0000
  Fe  Fe138     1.0  0.37793  0.01881  0.41080  1.0000
  S   S285      1.0  0.35885  0.01663  0.40836  1.0000
  S   S286      1.0  0.39768  0.01174  0.39810  1.0000
  Fe  Fe139     1.0  0.35009  0.03497  0.41654  1.0000
  S   S287      1.0  0.33591  0.05230  0.40720  1.0000
  Fe  Fe140     1.0  0.35614  0.00600  0.42981  1.0000
  H   H1861     1.0  0.32174  0.03876  0.37902  1.0000
  S   S288      1.0  0.36962  0.03822  0.41709  1.0000
  S   S289      1.0  0.37579  0.00695  0.43175  1.0000
  Fe  Fe141     1.0  0.46745  0.03718  0.32435  1.0000
  H   H1862     1.0  0.39866  0.02436  0.42185  1.0000
  Fe  Fe142     1.0  0.43878  0.03508  0.32992  1.0000
  S   S290      1.0  0.44331  0.02147  0.31601  1.0000
  S   S291      1.0  0.41764  0.04299  0.33960  1.0000
  H   H1863     1.0  0.35554  0.04683  0.19575  1.0000
  H   H1864     1.0  0.28263  0.03900  0.38384  1.0000
  Fe  Fe143     1.0  0.45629  0.03492  0.30221  1.0000
  C   C2354     1.0  0.24211  0.00073  0.35281  1.0000
  S   S292      1.0  0.45550  0.02370  0.33986  1.0000
  S   S293      1.0  0.45028  0.04948  0.31540  1.0000
  Fe  Fe144     1.0  0.43934  0.01079  0.10525  1.0000
  S   S294      1.0  0.44665  0.00911  0.12343  1.0000
  Fe  Fe145     1.0  0.45906  0.02690  0.08683  1.0000
  H   H1865     1.0  0.47008  0.03239  0.13334  1.0000
  S   S295      1.0  0.46593  0.03477  0.06487  1.0000
  H   H1866     1.0  0.36867  0.07768  0.07451  1.0000
  H   H1867     1.0  0.41629  0.04513  0.38618  1.0000
  Fe  Fe146     1.0  0.44737  0.03052  0.11537  1.0000
  S   S296      1.0  0.43975  0.04634  0.12735  1.0000
  S   S297      1.0  0.45941  0.00513  0.09263  1.0000
  S   S298      1.0  0.43841  0.03264  0.09818  1.0000
  Fe  Fe147     1.0  0.45466  0.10447  0.02141  1.0000
  C   C2355     1.0  0.41906  0.06695  0.06764  1.0000
  S   S299      1.0  0.45147  0.09697  0.04376  1.0000
  S   S300      1.0  0.46913  0.11765  0.01223  1.0000
  H   H1868     1.0  0.41944  0.04616  0.43377  1.0000
  C   C2356     1.0  0.47274  0.98819  0.06315  1.0000
  C   C2357     1.0  0.30865  0.09162  0.42163  1.0000
  Fe  Fe148     1.0  0.45392  0.13060  0.00094  1.0000
  S   S301      1.0  0.44642  0.15264  0.99982  1.0000
  H   H1869     1.0  0.27893  0.01125  0.46547  1.0000
  S   S302      1.0  0.43883  0.11824  0.01127  1.0000
  C   C2358     1.0  0.34364  0.00472  0.35355  1.0000
  C   C2359     1.0  0.47377  0.07306  0.29809  1.0000
  Fe  Fe149     1.0  0.45685  0.03254  0.20979  1.0000
  S   S303      1.0  0.43492  0.03893  0.21635  1.0000
  H   H1870     1.0  0.48068  0.03367  0.02033  1.0000
  Fe  Fe150     1.0  0.43686  0.02004  0.23192  1.0000
  S   S304      1.0  0.42733  0.01766  0.25367  1.0000
  Fe  Fe151     1.0  0.43426  0.02624  0.20312  1.0000
  S   S305      1.0  0.41950  0.03272  0.19011  1.0000
  C   C2360     1.0  0.42945  0.03876  0.41593  1.0000
  S   S306      1.0  0.45608  0.02120  0.19529  1.0000
  H   H1871     1.0  0.42706  0.06815  0.23396  1.0000
  H   H1872     1.0  0.37694  0.99944  0.47993  1.0000
  C   C2361     1.0  0.40810  0.99016  0.36477  1.0000
  C   C2362     1.0  0.43438  0.02152  0.06957  1.0000
  C   C2363     1.0  0.43134  0.03531  0.06528  1.0000
  H   H1873     1.0  0.39105  0.12225  0.26771  1.0000
  C   C2364     1.0  0.42365  0.07846  0.08598  1.0000
  C   C2365     1.0  0.48066  0.03521  0.39777  1.0000
  Fe  Fe152     1.0  0.27058  0.00800  0.40237  1.0000
  S   S307      1.0  0.25855  0.02890  0.39973  1.0000
  H   H1874     1.0  0.25923  0.06459  0.46839  1.0000
  Fe  Fe153     1.0  0.27060  0.03132  0.41254  1.0000
  S   S308      1.0  0.27798  0.05011  0.40736  1.0000
  S   S309      1.0  0.28336  0.01090  0.41410  1.0000
  C   C2366     1.0  0.48567  0.00403  0.06118  1.0000
  H   H1875     1.0  0.25930  0.02706  0.45951  1.0000
  C   C2367     1.0  0.41864  0.98723  0.31566  1.0000
  H   H1876     1.0  0.45297  0.01867  0.36831  1.0000
  H   H1877     1.0  0.41487  0.05099  0.08470  1.0000
  C   C2368     1.0  0.47974  0.19367  0.02585  1.0000
  H   H1878     1.0  0.43106  0.99995  0.16071  1.0000
  H   H1879     1.0  0.46491  0.98592  0.06034  1.0000
  H   H1880     1.0  0.38441  0.99576  0.31646  1.0000
  H   H1881     1.0  0.23979  0.99479  0.34748  1.0000
  C   C2369     1.0  0.46175  0.05205  0.05928  1.0000
  C   C2370     1.0  0.46171  0.05732  0.04578  1.0000
  C   C2371     1.0  0.45848  0.07108  0.04097  1.0000
  C   C2372     1.0  0.45562  0.07966  0.04957  1.0000
  C   C2373     1.0  0.45595  0.07436  0.06306  1.0000
  C   C2374     1.0  0.45881  0.06056  0.06797  1.0000
  H   H1882     1.0  0.46391  0.05076  0.03907  1.0000
  H   H1883     1.0  0.45808  0.07500  0.03064  1.0000
  H   H1884     1.0  0.45378  0.08095  0.06977  1.0000
  H   H1885     1.0  0.45885  0.05653  0.07842  1.0000
  C   C2375     1.0  0.42574  0.03610  0.17274  1.0000
  C   C2376     1.0  0.43661  0.02754  0.16653  1.0000
  C   C2377     1.0  0.44076  0.03027  0.15251  1.0000
  C   C2378     1.0  0.43437  0.04179  0.14479  1.0000
  C   C2379     1.0  0.42360  0.05030  0.15108  1.0000
  C   C2380     1.0  0.41913  0.04731  0.16494  1.0000
  H   H1886     1.0  0.44168  0.01879  0.17250  1.0000
  H   H1887     1.0  0.44905  0.02367  0.14771  1.0000
  H   H1888     1.0  0.41861  0.05919  0.14518  1.0000
  H   H1889     1.0  0.41066  0.05387  0.16966  1.0000
  C   C2381     1.0  0.44994  0.03430  0.27296  1.0000
  C   C2382     1.0  0.44149  0.02596  0.28086  1.0000
  C   C2383     1.0  0.43460  0.02072  0.27496  1.0000
  C   C2384     1.0  0.43619  0.02380  0.26111  1.0000
  C   C2385     1.0  0.42477  0.08507  0.07262  1.0000
  C   C2386     1.0  0.48553  0.00142  0.14676  1.0000
  H   H1890     1.0  0.43997  0.02377  0.29150  1.0000
  H   H1891     1.0  0.42799  0.01438  0.28113  1.0000
  H   H1892     1.0  0.42541  0.09100  0.01275  1.0000
  C   C2387     1.0  0.33762  0.02132  0.37730  1.0000
  C   C2388     1.0  0.40299  0.02128  0.38225  1.0000
  C   C2389     1.0  0.41621  0.01787  0.37578  1.0000
  C   C2390     1.0  0.42087  0.02494  0.36296  1.0000
  C   C2391     1.0  0.41221  0.03509  0.35628  1.0000
  C   C2392     1.0  0.39897  0.03866  0.36283  1.0000
  C   C2393     1.0  0.39438  0.03185  0.37589  1.0000
  H   H1893     1.0  0.42281  0.00960  0.38062  1.0000
  H   H1894     1.0  0.43105  0.02216  0.35806  1.0000
  H   H1895     1.0  0.39224  0.04661  0.35776  1.0000
  H   H1896     1.0  0.38418  0.03457  0.38093  1.0000
  C   C2394     1.0  0.32021  0.05074  0.40697  1.0000
  C   C2395     1.0  0.31135  0.06224  0.40235  1.0000
  C   C2396     1.0  0.29855  0.06177  0.40248  1.0000
  C   C2397     1.0  0.29451  0.04973  0.40687  1.0000
  C   C2398     1.0  0.30352  0.03804  0.41095  1.0000
  C   C2399     1.0  0.31633  0.03856  0.41121  1.0000
  H   H1897     1.0  0.31432  0.07165  0.39892  1.0000
  H   H1898     1.0  0.29171  0.07083  0.39921  1.0000
  H   H1899     1.0  0.30057  0.02865  0.41414  1.0000
  H   H1900     1.0  0.32317  0.02961  0.41471  1.0000
  S   S310      1.0  0.46785  0.98917  0.33008  1.0000
  C   C2400     1.0  0.36179  0.03534  0.46813  1.0000
  C   C2401     1.0  0.34876  0.04190  0.46751  1.0000
  H   H1901     1.0  0.43291  0.00083  0.19358  1.0000
  H   H1902     1.0  0.34539  0.04345  0.45847  1.0000
  C   C2402     1.0  0.47567  0.00075  0.05770  1.0000
  Fe  Fe154     1.0  0.26767  0.00497  0.43191  1.0000
  H   H1903     1.0  0.41692  0.02125  0.40237  1.0000
  C   C2403     1.0  0.46499  0.20930  0.03871  1.0000
  H   H1904     1.0  0.23707  0.06892  0.46431  1.0000
  C   C2404     1.0  0.41903  0.04058  0.42696  1.0000
  C   C2405     1.0  0.24556  0.06858  0.45602  1.0000
  H   H1905     1.0  0.39932  0.00963  0.35471  1.0000
  H   H1906     1.0  0.40623  0.01468  0.06771  1.0000
  C   C2406     1.0  0.25389  0.00519  0.34789  1.0000
  H   H1907     1.0  0.48148  0.99701  0.18118  1.0000
  C   C2407     1.0  0.40065  0.00730  0.16281  1.0000
  C   C2408     1.0  0.45857  0.05233  0.17369  1.0000
  C   C2409     1.0  0.48611  0.07446  0.29840  1.0000
  C   C2410     1.0  0.28908  0.03528  0.36403  1.0000
  C   C2411     1.0  0.47166  0.05153  0.15129  1.0000
  C   C2412     1.0  0.32204  0.99556  0.41772  1.0000
  H   H1908     1.0  0.30978  0.99213  0.38839  1.0000
  H   H1909     1.0  0.43834  0.04096  0.06487  1.0000
  C   C2413     1.0  0.39839  0.06551  0.05560  1.0000
  H   H1910     1.0  0.39987  0.99039  0.15595  1.0000
  H   H1911     1.0  0.37628  0.02907  0.48013  1.0000
  C   C2414     1.0  0.41767  0.02651  0.40927  1.0000
  S   S311      1.0  0.25606  0.02590  0.43146  1.0000
  H   H1912     1.0  0.30295  0.02567  0.39090  1.0000
  C   C2415     1.0  0.29320  0.06860  0.46943  1.0000
  H   H1913     1.0  0.41109  0.98632  0.39112  1.0000
  H   H1914     1.0  0.46996  0.00809  0.05102  1.0000
  H   H1915     1.0  0.35835  0.99311  0.46228  1.0000
  C   C2416     1.0  0.46103  0.99115  0.26151  1.0000
  H   H1916     1.0  0.48508  0.04241  0.22970  1.0000
  H   H1917     1.0  0.27585  0.06687  0.42633  1.0000
  C   C2417     1.0  0.28035  0.05169  0.47785  1.0000
  S   S312      1.0  0.47823  0.04756  0.33204  1.0000
  H   H1918     1.0  0.42033  0.04682  0.24945  1.0000
  H   H1919     1.0  0.34211  0.01537  0.34979  1.0000
  C   C2418     1.0  0.47008  0.98535  0.26962  1.0000
  C   C2419     1.0  0.31376  0.98691  0.41992  1.0000
  H   H1920     1.0  0.44445  0.07510  0.00287  1.0000
  C   C2420     1.0  0.47932  0.16662  0.99364  1.0000
  C   C2421     1.0  0.38813  0.00044  0.30623  1.0000
  S   S313      1.0  0.28074  0.00021  0.38385  1.0000
  C   C2422     1.0  0.37157  0.07438  0.05485  1.0000
  H   H1921     1.0  0.40273  0.02568  0.16587  1.0000
  C   C2423     1.0  0.40428  0.99571  0.19061  1.0000
  H   H1922     1.0  0.42057  0.01436  0.34056  1.0000
  C   C2424     1.0  0.41199  0.01678  0.13599  1.0000
  C   C2425     1.0  0.48174  0.05283  0.00732  1.0000
  S   S314      1.0  0.27096  0.99180  0.45167  1.0000
  C   C2426     1.0  0.39795  0.01298  0.28009  1.0000
  C   C2427     1.0  0.32623  0.00279  0.40486  1.0000
  H   H1923     1.0  0.43978  0.06767  0.15076  1.0000
  C   C2428     1.0  0.40729  0.02831  0.42028  1.0000
  C   C2429     1.0  0.33737  0.99947  0.36661  1.0000
  H   H1924     1.0  0.39981  0.03680  0.43763  1.0000
  C   C2430     1.0  0.42011  0.06618  0.09026  1.0000
  C   C2431     1.0  0.41546  0.00107  0.18756  1.0000
  C   C2432     1.0  0.29541  0.09547  0.42779  1.0000
  C   C2433     1.0  0.29208  0.02405  0.44160  1.0000
  C   C2434     1.0  0.30437  0.01767  0.44450  1.0000
  C   C2435     1.0  0.31097  0.02412  0.44932  1.0000
  C   C2436     1.0  0.30544  0.03713  0.45092  1.0000
  C   C2437     1.0  0.29318  0.04377  0.44777  1.0000
  C   C2438     1.0  0.28650  0.03705  0.44316  1.0000
  H   H1925     1.0  0.44145  0.99825  0.34359  1.0000
  C   C2439     1.0  0.42260  0.07930  0.06345  1.0000
  C   C2440     1.0  0.30814  0.06865  0.43228  1.0000
  C   C2441     1.0  0.26931  0.06520  0.44767  1.0000
  H   H1926     1.0  0.37418  0.02312  0.16653  1.0000
  H   H1927     1.0  0.38481  0.01149  0.20482  1.0000
  H   H1928     1.0  0.28687  0.01894  0.43806  1.0000
  H   H1929     1.0  0.30875  0.00772  0.44299  1.0000
  H   H1930     1.0  0.32037  0.01898  0.45185  1.0000
  H   H1931     1.0  0.31070  0.04198  0.45470  1.0000
  H   H1932     1.0  0.27700  0.04165  0.44073  1.0000
  H   H1933     1.0  0.32526  0.07521  0.41908  1.0000
  H   H1934     1.0  0.31330  0.05836  0.43362  1.0000
  H   H1935     1.0  0.30003  0.02598  0.47724  1.0000
  C   C2442     1.0  0.43442  0.18321  0.08180  1.0000
  S   S315      1.0  0.46966  0.04684  0.20674  1.0000
  C   C2443     1.0  0.46182  0.14543  0.03054  1.0000
  C   C2444     1.0  0.46095  0.13589  0.04248  1.0000
  H   H1936     1.0  0.45101  0.98358  0.29425  1.0000
  C   C2445     1.0  0.45167  0.15339  0.05481  1.0000
  C   C2446     1.0  0.45226  0.16303  0.04280  1.0000
  C   C2447     1.0  0.45756  0.15891  0.03070  1.0000
  P   P84       1.0  0.44536  0.18045  0.04267  1.0000
  C   C2448     1.0  0.43563  0.18222  0.05907  1.0000
  C   C2449     1.0  0.45801  0.18992  0.03804  1.0000
  C   C2450     1.0  0.47023  0.18601  0.02960  1.0000
  C   C2451     1.0  0.47712  0.20531  0.03038  1.0000
  H   H1937     1.0  0.46510  0.01071  0.40112  1.0000
  H   H1938     1.0  0.40103  0.06201  0.03594  1.0000
  C   C2452     1.0  0.45545  0.20172  0.04246  1.0000
  C   C2453     1.0  0.44187  0.18181  0.06909  1.0000
  H   H1939     1.0  0.45781  0.04985  0.18436  1.0000
  C   C2454     1.0  0.45223  0.17660  0.99611  1.0000
  H   H1940     1.0  0.41432  0.99683  0.31024  1.0000
  C   C2455     1.0  0.42186  0.18384  0.06202  1.0000
  C   C2456     1.0  0.43468  0.18708  0.03096  1.0000
  C   C2457     1.0  0.42843  0.17879  0.02796  1.0000
  C   C2458     1.0  0.41999  0.18402  0.01908  1.0000
  H   H1941     1.0  0.45625  0.19538  0.99497  1.0000
  H   H1942     1.0  0.43003  0.99565  0.32334  1.0000
  H   H1943     1.0  0.40382  0.18656  0.07694  1.0000
  H   H1944     1.0  0.46541  0.14239  0.02111  1.0000
  H   H1945     1.0  0.45839  0.04317  0.25283  1.0000
  P   P85       1.0  0.32738  0.01060  0.37737  1.0000
  C   C2459     1.0  0.45177  0.03697  0.25909  1.0000
  H   H1946     1.0  0.45795  0.16616  0.02136  1.0000
  H   H1947     1.0  0.47240  0.17728  0.02560  1.0000
  C   C2460     1.0  0.24887  0.01551  0.36665  1.0000
  C   C2461     1.0  0.25628  0.99433  0.47683  1.0000
  H   H1948     1.0  0.36006  0.04422  0.37663  1.0000
  C   C2462     1.0  0.44750  0.05943  0.16851  1.0000
  H   H1949     1.0  0.45249  0.18046  0.06705  1.0000
  H   H1950     1.0  0.45145  0.05254  0.01629  1.0000
  C   C2463     1.0  0.42838  0.08112  0.01863  1.0000
  H   H1951     1.0  0.40091  0.03896  0.05962  1.0000
  C   C2464     1.0  0.45230  0.99813  0.37415  1.0000
  H   H1952     1.0  0.43007  0.16826  0.03240  1.0000
  H   H1953     1.0  0.37544  0.01956  0.30810  1.0000
  H   H1954     1.0  0.32547  0.99649  0.42593  1.0000
  H   H1955     1.0  0.40995  0.99875  0.13261  1.0000
  C   C2465     1.0  0.40717  0.98854  0.10346  1.0000
  H   H1956     1.0  0.33276  0.00931  0.40340  1.0000
  C   C2466     1.0  0.29485  0.07244  0.43855  1.0000
  C   C2467     1.0  0.32210  0.00143  0.39410  1.0000
  H   H1957     1.0  0.42876  0.98363  0.21420  1.0000
  H   H1958     1.0  0.46151  0.07086  0.25473  1.0000
  C   C2468     1.0  0.41771  0.06048  0.08116  1.0000
  C   C2469     1.0  0.35123  0.01630  0.37645  1.0000
  H   H1959     1.0  0.45518  0.13246  0.06386  1.0000
  H   H1960     1.0  0.42781  0.06672  0.34626  1.0000
  C   C2470     1.0  0.25640  0.99648  0.46327  1.0000
  H   H1961     1.0  0.35556  0.00594  0.37638  1.0000
  C   C2471     1.0  0.35389  0.03788  0.37654  1.0000
  C   C2472     1.0  0.29053  0.03413  0.37687  1.0000
  C   C2473     1.0  0.38307  0.01393  0.30155  1.0000
  C   C2474     1.0  0.31251  0.02031  0.37189  1.0000
  H   H1962     1.0  0.43813  0.06226  0.17519  1.0000
  H   H1963     1.0  0.45133  0.05657  0.34650  1.0000
  H   H1964     1.0  0.33609  0.05309  0.37843  1.0000
  C   C2475     1.0  0.25823  0.06602  0.45831  1.0000
  C   C2476     1.0  0.34035  0.04289  0.37755  1.0000
  C   C2477     1.0  0.41445  0.18522  0.07475  1.0000
  C   C2478     1.0  0.31564  0.99027  0.34628  1.0000
  C   C2479     1.0  0.33222  0.03466  0.37796  1.0000
  S   S316      1.0  0.47458  0.02386  0.30983  1.0000
  H   H1965     1.0  0.24480  0.00502  0.44836  1.0000
  H   H1966     1.0  0.46285  0.21852  0.04196  1.0000
  H   H1967     1.0  0.36123  0.07784  0.05454  1.0000
  H   H1968     1.0  0.25359  0.07114  0.42243  1.0000
  C   C2480     1.0  0.24521  0.00404  0.45855  1.0000
  C   C2481     1.0  0.37898  0.01808  0.19789  1.0000
  H   H1969     1.0  0.47011  0.00899  0.13581  1.0000
  H   H1970     1.0  0.28214  0.99257  0.36012  1.0000
  Fe  Fe155     1.0  0.45595  0.00391  0.21286  1.0000
  H   H1971     1.0  0.26658  0.01564  0.35127  1.0000
  H   H1972     1.0  0.47523  0.05233  0.00151  1.0000
  H   H1973     1.0  0.40914  0.11786  0.24821  1.0000
  H   H1974     1.0  0.26057  0.00261  0.33891  1.0000
  C   C2482     1.0  0.30074  0.99554  0.47706  1.0000
  H   H1975     1.0  0.41044  0.06110  0.36622  1.0000
  H   H1976     1.0  0.30590  0.99631  0.36486  1.0000
  C   C2483     1.0  0.45702  0.03171  0.39471  1.0000
  Fe  Fe156     1.0  0.47386  0.21211  0.99174  1.0000
  S   S317      1.0  0.45787  0.04196  0.28006  1.0000
  H   H1977     1.0  0.45445  0.00062  0.26249  1.0000
  C   C2484     1.0  0.40996  0.02431  0.14539  1.0000
  H   H1978     1.0  0.34808  0.01585  0.46522  1.0000
  Fe  Fe157     1.0  0.46115  0.01136  0.32453  1.0000
  H   H1979     1.0  0.46517  0.07617  0.30555  1.0000
  C   C2485     1.0  0.25726  0.01256  0.35482  1.0000
  H   H1980     1.0  0.25169  0.02082  0.37227  1.0000
  H   H1981     1.0  0.41494  0.18609  0.09446  1.0000
  C   C2486     1.0  0.45918  0.98655  0.30916  1.0000
  H   H1982     1.0  0.41626  0.02050  0.12561  1.0000
  H   H1983     1.0  0.40183  0.01787  0.26998  1.0000
  C   C2487     1.0  0.40837  0.00224  0.35556  1.0000
  H   H1984     1.0  0.44965  0.06798  0.22076  1.0000
  H   H1985     1.0  0.44176  0.18053  0.99706  1.0000
  P   P86       1.0  0.39262  0.00164  0.17993  1.0000
  C   C2488     1.0  0.42141  0.07736  0.03169  1.0000
  C   C2489     1.0  0.40796  0.03534  0.42915  1.0000
  C   C2490     1.0  0.31501  0.07824  0.42393  1.0000
  C   C2491     1.0  0.29644  0.98921  0.46974  1.0000
  C   C2492     1.0  0.44382  0.98980  0.39758  1.0000
  C   C2493     1.0  0.39555  0.11214  0.26666  1.0000
  H   H1986     1.0  0.45633  0.99651  0.36410  1.0000
  H   H1987     1.0  0.37747  0.06999  0.03531  1.0000
  S   S318      1.0  0.43391  0.00799  0.21949  1.0000
  C   C2494     1.0  0.43613  0.05565  0.03369  1.0000
  C   C2495     1.0  0.28855  0.08594  0.43628  1.0000
  C   C2496     1.0  0.45698  0.06962  0.23681  1.0000
  C   C2497     1.0  0.44724  0.06869  0.23112  1.0000
  C   C2498     1.0  0.43446  0.06849  0.23878  1.0000
  C   C2499     1.0  0.43144  0.06865  0.25241  1.0000
  C   C2500     1.0  0.44128  0.06975  0.25799  1.0000
  P   P87       1.0  0.41476  0.06907  0.26227  1.0000
  C   C2501     1.0  0.41489  0.05853  0.27877  1.0000
  C   C2502     1.0  0.31107  0.02168  0.35891  1.0000
  C   C2503     1.0  0.30212  0.02657  0.38084  1.0000
  H   H1988     1.0  0.31880  0.01693  0.35182  1.0000
  C   C2504     1.0  0.41107  0.04631  0.28237  1.0000
  C   C2505     1.0  0.41055  0.03861  0.29535  1.0000
  C   C2506     1.0  0.41387  0.04298  0.30483  1.0000
  C   C2507     1.0  0.41772  0.05507  0.30137  1.0000
  C   C2508     1.0  0.41818  0.06284  0.28843  1.0000
  C   C2509     1.0  0.40512  0.06377  0.25419  1.0000
  C   C2510     1.0  0.39223  0.07083  0.25326  1.0000
  C   C2511     1.0  0.38488  0.06656  0.24703  1.0000
  C   C2512     1.0  0.39032  0.05521  0.24175  1.0000
  C   C2513     1.0  0.40308  0.04811  0.24270  1.0000
  C   C2514     1.0  0.41044  0.05238  0.24887  1.0000
  C   C2515     1.0  0.39408  0.06550  0.04439  1.0000
  C   C2516     1.0  0.31345  0.99301  0.39646  1.0000
  H   H1989     1.0  0.36979  0.02066  0.37549  1.0000
  H   H1990     1.0  0.41945  0.09491  0.24571  1.0000
  H   H1991     1.0  0.31400  0.09897  0.41503  1.0000
  H   H1992     1.0  0.43938  0.04576  0.03928  1.0000
  H   H1993     1.0  0.40869  0.04253  0.27520  1.0000
  H   H1994     1.0  0.40787  0.02909  0.29796  1.0000
  H   H1995     1.0  0.41359  0.03699  0.31487  1.0000
  H   H1996     1.0  0.42036  0.05836  0.30877  1.0000
  H   H1997     1.0  0.42100  0.07226  0.28604  1.0000
  H   H1998     1.0  0.38781  0.07963  0.25727  1.0000
  H   H1999     1.0  0.37499  0.07209  0.24626  1.0000
  H   H2000     1.0  0.38468  0.05193  0.23686  1.0000
  H   H2001     1.0  0.45754  0.04065  0.36641  1.0000
  H   H2002     1.0  0.39339  0.08043  0.28243  1.0000
  H   H2003     1.0  0.29833  0.07517  0.46130  1.0000
  H   H2004     1.0  0.41269  0.03384  0.14224  1.0000
  C   C2517     1.0  0.36995  0.02926  0.20166  1.0000
  H   H2005     1.0  0.26463  0.98804  0.48077  1.0000
  H   H2006     1.0  0.42778  0.09448  0.06919  1.0000
  C   C2518     1.0  0.46035  0.98466  0.25223  1.0000
  C   C2519     1.0  0.45033  0.01074  0.37656  1.0000
  C   C2520     1.0  0.41330  0.02046  0.06685  1.0000
  H   H2007     1.0  0.43784  0.04303  0.41436  1.0000
  C   C2521     1.0  0.40844  0.00452  0.13995  1.0000
  S   S319      1.0  0.25607  0.00003  0.42032  1.0000
  C   C2522     1.0  0.26152  0.02615  0.46903  1.0000
  Fe  Fe158     1.0  0.44792  0.10735  0.99463  1.0000
  H   H2008     1.0  0.33014  0.05191  0.47801  1.0000
  C   C2523     1.0  0.40274  0.99980  0.15327  1.0000
  H   H2009     1.0  0.43788  0.00383  0.41011  1.0000
  H   H2010     1.0  0.45320  0.98921  0.24608  1.0000
  H   H2011     1.0  0.42569  0.08277  0.09300  1.0000
  H   H2012     1.0  0.31652  0.00019  0.34073  1.0000
  H   H2013     1.0  0.41300  0.08443  0.03577  1.0000
  C   C2524     1.0  0.44306  0.05945  0.02060  1.0000
  C   C2525     1.0  0.43915  0.07215  0.01306  1.0000
  H   H2014     1.0  0.41680  0.18408  0.05453  1.0000
  H   H2015     1.0  0.43928  0.18302  0.08946  1.0000
  C   C2526     1.0  0.35400  0.99475  0.47225  1.0000
  C   C2527     1.0  0.36397  0.03582  0.18023  1.0000
  C   C2528     1.0  0.24385  0.07043  0.44312  1.0000
  C   C2529     1.0  0.29935  0.02906  0.35504  1.0000
  H   H2016     1.0  0.45198  0.05317  0.38889  1.0000
  H   H2017     1.0  0.48007  0.02492  0.19391  1.0000
  H   H2018     1.0  0.27555  0.04498  0.47611  1.0000
  S   S320      1.0  0.42077  0.00551  0.10494  1.0000
  C   C2530     1.0  0.44845  0.06252  0.15476  1.0000
  S   S321      1.0  0.45887  0.01467  0.22644  1.0000
  H   H2019     1.0  0.38323  0.10348  0.28477  1.0000
  C   C2531     1.0  0.35934  0.02461  0.37592  1.0000
  C   C2532     1.0  0.45930  0.04451  0.39214  1.0000
  H   H2020     1.0  0.27996  0.04093  0.36112  1.0000
  C   C2533     1.0  0.44490  0.03181  0.25319  1.0000
  C   C2534     1.0  0.38476  0.98849  0.18091  1.0000
  H   H2021     1.0  0.29816  0.02991  0.34511  1.0000
  H   H2022     1.0  0.41937  0.06099  0.10061  1.0000
  C   C2535     1.0  0.38913  0.06986  0.06649  1.0000
  H   H2023     1.0  0.45476  0.99701  0.30772  1.0000
  C   C2536     1.0  0.42889  0.03158  0.40705  1.0000
  P   P88       1.0  0.44192  0.02955  0.39239  1.0000
  C   C2537     1.0  0.44483  0.01308  0.38945  1.0000
  C   C2538     1.0  0.43741  0.04176  0.37798  1.0000
  C   C2539     1.0  0.44721  0.04517  0.36665  1.0000
  C   C2540     1.0  0.44375  0.05423  0.35531  1.0000
  C   C2541     1.0  0.43051  0.06003  0.35520  1.0000
  C   C2542     1.0  0.42073  0.05686  0.36646  1.0000
  C   C2543     1.0  0.42412  0.04772  0.37779  1.0000
  C   C2544     1.0  0.44183  0.00242  0.40001  1.0000
  C   C2545     1.0  0.38798  0.02019  0.28847  1.0000
  C   C2546     1.0  0.28642  0.06040  0.46703  1.0000
  S   S322      1.0  0.48311  0.98912  0.11740  1.0000
  C   C2547     1.0  0.47260  0.06730  0.28842  1.0000
  C   C2548     1.0  0.40180  0.98623  0.20253  1.0000
  S   S323      1.0  0.46810  0.02687  0.10328  1.0000
  H   H2024     1.0  0.44615  0.03435  0.24247  1.0000
  H   H2025     1.0  0.39215  0.06983  0.07531  1.0000
  C   C2549     1.0  0.40431  0.01962  0.15875  1.0000
  H   H2026     1.0  0.40736  0.03928  0.23864  1.0000
  H   H2027     1.0  0.46308  0.06595  0.28831  1.0000
  H   H2028     1.0  0.27835  0.08911  0.44113  1.0000
  H   H2029     1.0  0.44596  0.20529  0.04856  1.0000
  P   P89       1.0  0.41566  0.05965  0.05600  1.0000
  C   C2550     1.0  0.46683  0.98720  0.18089  1.0000
  C   C2551     1.0  0.42381  0.20587  0.01613  1.0000
  H   H2030     1.0  0.36891  0.03112  0.21137  1.0000
  P   P90       1.0  0.28597  0.06048  0.45025  1.0000
  Fe  Fe159     1.0  0.46684  0.00544  0.11005  1.0000
  C   C2552     1.0  0.45742  0.16307  0.99646  1.0000
  H   H2031     1.0  0.47812  0.04967  0.25119  1.0000
  C   C2553     1.0  0.42072  0.18494  0.08462  1.0000
  H   H2032     1.0  0.33356  0.98888  0.46283  1.0000
  H   H2033     1.0  0.48450  0.98726  0.22970  1.0000
  H   H2034     1.0  0.39871  0.98830  0.37093  1.0000
  C   C2554     1.0  0.37577  0.07430  0.06609  1.0000
  H   H2035     1.0  0.43666  0.20735  0.02736  1.0000
  C   C2555     1.0  0.48465  0.07462  0.10674  1.0000
  H   H2036     1.0  0.47515  0.14768  0.99508  1.0000
  H   H2037     1.0  0.44756  0.15618  0.06432  1.0000
  C   C2556     1.0  0.47104  0.15810  0.99494  1.0000
  C   C2557     1.0  0.39698  0.08851  0.27494  1.0000
  C   C2558     1.0  0.41161  0.09661  0.25432  1.0000
  H   H2038     1.0  0.46386  0.12542  0.04228  1.0000
  C   C2559     1.0  0.42037  0.00497  0.34768  1.0000
  C   C2560     1.0  0.47712  0.02471  0.13832  1.0000
  C   C2561     1.0  0.40732  0.08594  0.26400  1.0000
  C   C2562     1.0  0.45599  0.13987  0.05461  1.0000
  H   H2039     1.0  0.47285  0.05614  0.39147  1.0000
  H   H2040     1.0  0.29048  0.10585  0.42602  1.0000
  C   C2563     1.0  0.39115  0.10156  0.27627  1.0000
  C   C2564     1.0  0.37152  0.99134  0.18000  1.0000
  C   C2565     1.0  0.40575  0.10966  0.25568  1.0000
  H   H2041     1.0  0.42393  0.08449  0.05311  1.0000
  Fe  Fe160     1.0  0.24519  0.02129  0.41887  1.0000
  C   C2566     1.0  0.45395  0.07033  0.25020  1.0000
  C   C2567     1.0  0.25479  0.06996  0.43244  1.0000
  C   C2568     1.0  0.47398  0.18006  0.99395  1.0000
  C   C2569     1.0  0.46044  0.05851  0.14617  1.0000
  S   S324      1.0  0.46227  0.09230  0.00582  1.0000
  H   H2042     1.0  0.43934  0.06993  0.26839  1.0000
  C   C2570     1.0  0.46045  0.18503  0.99499  1.0000
  C   C2571     1.0  0.36245  0.03812  0.19285  1.0000
  C   C2572     1.0  0.26744  0.06752  0.43468  1.0000
  C   C2573     1.0  0.48484  0.04233  0.01789  1.0000
  C   C2574     1.0  0.42521  0.06458  0.03935  1.0000
  C   C2575     1.0  0.41771  0.19755  0.01314  1.0000
  H   H2043     1.0  0.45461  0.99864  0.15066  1.0000
  H   H2044     1.0  0.41126  0.20162  0.00618  1.0000
  H   H2045     1.0  0.42752  0.00344  0.07425  1.0000
  H   H2046     1.0  0.35823  0.04275  0.17335  1.0000
  C   C2576     1.0  0.38058  0.01570  0.18522  1.0000
  H   H2047     1.0  0.44368  0.01662  0.07242  1.0000
  C   C2577     1.0  0.41929  0.04180  0.06161  1.0000
  S   S325      1.0  0.45313  0.21976  0.00214  1.0000
  C   C2578     1.0  0.42533  0.01409  0.07047  1.0000
  C   C2579     1.0  0.41030  0.03427  0.06234  1.0000
  H   H2048     1.0  0.38415  0.03065  0.28483  1.0000
  H   H2049     1.0  0.41539  0.17750  0.01667  1.0000
  C   C2580     1.0  0.42435  0.99656  0.19595  1.0000
  H   H2050     1.0  0.35698  0.00043  0.33536  1.0000
  H   H2051     1.0  0.42217  0.21635  0.01140  1.0000
  H   H2052     1.0  0.45868  0.99527  0.18341  1.0000
  C   C2581     1.0  0.47053  0.04813  0.16516  1.0000
  C   C2582     1.0  0.43216  0.20069  0.02510  1.0000
  C   C2583     1.0  0.37301  0.02467  0.17641  1.0000
  Fe  Fe161     1.0  0.47560  0.10639  0.99587  1.0000
  C   C2584     1.0  0.43214  0.99590  0.34943  1.0000
  H   H2053     1.0  0.39922  0.99722  0.10245  1.0000
  S   S326      1.0  0.46181  0.12064  0.98354  1.0000
  C   C2585     1.0  0.47684  0.01145  0.14004  1.0000
  C   C2586     1.0  0.40311  0.99952  0.28474  1.0000
  H   H2054     1.0  0.40071  0.99962  0.47217  1.0000
  H   H2055     1.0  0.35580  0.99226  0.40922  1.0000
  H   H2056     1.0  0.46073  0.06048  0.13562  1.0000
  H   H2057     1.0  0.46690  0.06957  0.23087  1.0000
  C   C2587     1.0  0.27268  0.01698  0.47257  1.0000
  C   C2588     1.0  0.46663  0.02068  0.39900  1.0000
  H   H2058     1.0  0.47869  0.09453  0.04463  1.0000
  H   H2059     1.0  0.41725  0.00897  0.17894  1.0000
  H   H2060     1.0  0.47031  0.99035  0.27699  1.0000
  C   C2589     1.0  0.27657  0.98645  0.36829  1.0000
  H   H2061     1.0  0.35564  0.98354  0.17890  1.0000
  H   H2062     1.0  0.48539  0.07311  0.08686  1.0000
  C   C2590     1.0  0.23701  0.01125  0.37148  1.0000
  C   C2591     1.0  0.41929  0.98971  0.10470  1.0000
  C   C2592     1.0  0.31429  0.99511  0.47463  1.0000
  C   C2593     1.0  0.47841  0.02245  0.40050  1.0000
  C   C2594     1.0  0.34785  0.00768  0.47381  1.0000
  C   C2595     1.0  0.39816  0.99312  0.29785  1.0000
  H   H2063     1.0  0.48434  0.21143  0.02719  1.0000
  H   H2064     1.0  0.36556  0.00131  0.17944  1.0000
  C   C2596     1.0  0.43192  0.98372  0.35850  1.0000
  H   H2065     1.0  0.48302  0.08534  0.10424  1.0000
  C   C2597     1.0  0.25286  0.03357  0.47801  1.0000
  C   C2598     1.0  0.44896  0.98769  0.38465  1.0000
  C   C2599     1.0  0.48379  0.06282  0.27915  1.0000
  C   C2600     1.0  0.32318  0.98897  0.46474  1.0000
  H   H2066     1.0  0.41017  0.98683  0.41414  1.0000
  C   C2601     1.0  0.48599  0.06775  0.09695  1.0000
  C   C2602     1.0  0.35218  0.99630  0.34540  1.0000
  H   H2067     1.0  0.48487  0.07357  0.03714  1.0000
  S   S327      1.0  0.43618  0.10057  0.98446  1.0000
  C   C2603     1.0  0.47109  0.04624  0.39363  1.0000
  C   C2604     1.0  0.43741  0.99050  0.15918  1.0000
  C   C2605     1.0  0.36612  0.03368  0.47977  1.0000
  C   C2606     1.0  0.34014  0.04665  0.47857  1.0000
  H   H2068     1.0  0.48486  0.07210  0.99590  1.0000
  H   H2069     1.0  0.41104  0.99427  0.27809  1.0000
  C   C2607     1.0  0.45074  0.98981  0.15329  1.0000
  S   S328      1.0  0.48180  0.22697  0.99659  1.0000
  H   H2070     1.0  0.41970  0.18620  0.98974  1.0000
  H   H2071     1.0  0.47880  0.04206  0.16943  1.0000
  H   H2072     1.0  0.28619  0.98886  0.47174  1.0000
  C   C2608     1.0  0.27428  0.98812  0.38128  1.0000
  C   C2609     1.0  0.38072  0.06996  0.04402  1.0000
  C   C2610     1.0  0.48513  0.06768  0.11984  1.0000
  H   H2073     1.0  0.24390  0.04019  0.47548  1.0000
  S   S329      1.0  0.48427  0.19045  0.99325  1.0000
  H   H2074     1.0  0.48267  0.05803  0.27202  1.0000
  H   H2075     1.0  0.23631  0.98304  0.38851  1.0000
  H   H2076     1.0  0.48530  0.99113  0.14806  1.0000
  C   C2611     1.0  0.47973  0.98818  0.17961  1.0000
  H   H2077     1.0  0.48386  0.07312  0.12740  1.0000
  C   C2612     1.0  0.34011  0.98566  0.37148  1.0000
  C   C2613     1.0  0.42193  0.98699  0.20766  1.0000
  C   C2614     1.0  0.30945  0.98566  0.40929  1.0000
  C   C2615     1.0  0.30974  0.98811  0.35986  1.0000
  C   C2616     1.0  0.42751  0.98665  0.32318  1.0000
  H   H2078     1.0  0.31813  0.99939  0.48036  1.0000
  S   S330      1.0  0.35069  0.98610  0.43817  1.0000
  S   S331      1.0  0.46857  0.98354  0.21199  1.0000
  H   H2079     1.0  0.48585  0.01390  0.40368  1.0000
  C   C2617     1.0  0.48561  0.04075  0.25009  1.0000
  C   C2618     1.0  0.48584  0.03962  0.19975  1.0000
  Fe  Fe162     1.0  0.45121  0.23292  0.98219  1.0000
  H   H2080     1.0  0.44465  0.98336  0.23223  1.0000
  C   C2619     1.0  0.28279  0.03949  0.56613  1.0000
  H   H2081     1.0  0.36536  0.01189  0.56623  1.0000
  C   C2620     1.0  0.27603  0.03795  0.53046  1.0000
  Fe  Fe163     1.0  0.31941  0.01916  0.54622  1.0000
  S   S332      1.0  0.33224  0.01642  0.52642  1.0000
  S   S333      1.0  0.30073  0.01113  0.55276  1.0000
  Fe  Fe164     1.0  0.33997  0.03012  0.55252  1.0000
  S   S334      1.0  0.35410  0.02823  0.53288  1.0000
  S   S335      1.0  0.34434  0.03530  0.56989  1.0000
  Fe  Fe165     1.0  0.33600  0.03635  0.52419  1.0000
  S   S336      1.0  0.33344  0.05002  0.50436  1.0000
  Fe  Fe166     1.0  0.34886  0.00854  0.53687  1.0000
  H   H2082     1.0  0.39743  0.04995  0.71879  1.0000
  S   S337      1.0  0.32201  0.03982  0.54357  1.0000
  S   S338      1.0  0.33594  0.00971  0.55700  1.0000
  Fe  Fe167     1.0  0.40239  0.04617  0.59229  1.0000
  S   S339      1.0  0.41690  0.02723  0.58927  1.0000
  S   S340      1.0  0.38935  0.05779  0.57758  1.0000
  Fe  Fe168     1.0  0.40968  0.04465  0.61859  1.0000
  S   S341      1.0  0.42430  0.02540  0.61764  1.0000
  S   S342      1.0  0.40473  0.05319  0.63692  1.0000
  Fe  Fe169     1.0  0.43072  0.03476  0.59606  1.0000
  S   S343      1.0  0.45222  0.03151  0.58558  1.0000
  Fe  Fe170     1.0  0.40914  0.01974  0.61107  1.0000
  S   S344      1.0  0.40402  0.99991  0.62078  1.0000
  S   S345      1.0  0.41697  0.05453  0.59729  1.0000
  S   S346      1.0  0.39382  0.03823  0.61376  1.0000
  S   S347      1.0  0.42002  0.98899  0.80984  1.0000
  Fe  Fe171     1.0  0.44715  0.05382  0.68379  1.0000
  S   S348      1.0  0.45359  0.03337  0.69551  1.0000
  S   S349      1.0  0.45061  0.05595  0.66149  1.0000
  Fe  Fe172     1.0  0.43831  0.06527  0.70886  1.0000
  S   S350      1.0  0.44371  0.04563  0.72243  1.0000
  S   S351      1.0  0.42884  0.08362  0.71721  1.0000
  Fe  Fe173     1.0  0.46203  0.04259  0.70653  1.0000
  H   H2083     1.0  0.23637  0.98656  0.51900  1.0000
  Fe  Fe174     1.0  0.43475  0.03826  0.71021  1.0000
  S   S352      1.0  0.42305  0.02264  0.71908  1.0000
  S   S353      1.0  0.45736  0.06291  0.69349  1.0000
  S   S354      1.0  0.42757  0.05816  0.69788  1.0000
  C   C2621     1.0  0.25555  0.03212  0.49040  1.0000
  C   C2622     1.0  0.34154  0.01012  0.48645  1.0000
  H   H2084     1.0  0.42910  0.00920  0.77708  1.0000
  C   C2623     1.0  0.43730  0.98889  0.70536  1.0000
  C   C2624     1.0  0.46809  0.99188  0.63581  1.0000
  Fe  Fe175     1.0  0.44609  0.07604  0.81520  1.0000
  S   S355      1.0  0.45489  0.05421  0.81901  1.0000
  S   S356      1.0  0.45423  0.08546  0.82688  1.0000
  Fe  Fe176     1.0  0.43524  0.07381  0.79234  1.0000
  S   S357      1.0  0.44367  0.05193  0.79448  1.0000
  S   S358      1.0  0.42251  0.08562  0.77759  1.0000
  Fe  Fe177     1.0  0.43630  0.05115  0.81642  1.0000
  S   S359      1.0  0.42825  0.03447  0.83172  1.0000
  Fe  Fe178     1.0  0.46142  0.05701  0.79701  1.0000
  H   H2085     1.0  0.42748  0.22784  0.91401  1.0000
  S   S360      1.0  0.42662  0.07283  0.81437  1.0000
  S   S361      1.0  0.45376  0.07899  0.79296  1.0000
  Fe  Fe179     1.0  0.44195  0.12894  0.87895  1.0000
  S   S362      1.0  0.44712  0.11392  0.89709  1.0000
  S   S363      1.0  0.43015  0.12506  0.86642  1.0000
  Fe  Fe180     1.0  0.45390  0.14969  0.88375  1.0000
  S   S364      1.0  0.45994  0.13616  0.90223  1.0000
  S   S365      1.0  0.46124  0.16884  0.87599  1.0000
  Fe  Fe181     1.0  0.46639  0.12040  0.89031  1.0000
  C   C2625     1.0  0.46059  0.09480  0.69817  1.0000
  Fe  Fe182     1.0  0.44019  0.13107  0.90728  1.0000
  S   S366      1.0  0.42586  0.13132  0.92716  1.0000
  S   S367      1.0  0.46182  0.13415  0.87142  1.0000
  S   S368      1.0  0.43349  0.14586  0.88961  1.0000
  C   C2626     1.0  0.45172  0.18407  0.87997  1.0000
  C   C2627     1.0  0.43811  0.18602  0.88510  1.0000
  C   C2628     1.0  0.45062  0.20710  0.87987  1.0000
  C   C2629     1.0  0.45795  0.19463  0.87749  1.0000
  C   C2630     1.0  0.44193  0.00908  0.49348  1.0000
  C   C2631     1.0  0.24855  0.00732  0.56855  1.0000
  H   H2086     1.0  0.46848  0.19321  0.87366  1.0000
  C   C2632     1.0  0.44689  0.09581  0.83848  1.0000
  C   C2633     1.0  0.45483  0.09760  0.84592  1.0000
  C   C2634     1.0  0.44983  0.10646  0.85455  1.0000
  C   C2635     1.0  0.43670  0.11343  0.85604  1.0000
  C   C2636     1.0  0.42864  0.11145  0.84882  1.0000
  C   C2637     1.0  0.43374  0.10276  0.83998  1.0000
  H   H2087     1.0  0.46498  0.09224  0.84484  1.0000
  H   H2088     1.0  0.45616  0.10798  0.85995  1.0000
  H   H2089     1.0  0.41850  0.11691  0.84985  1.0000
  H   H2090     1.0  0.42762  0.10173  0.83409  1.0000
  C   C2638     1.0  0.47883  0.11911  0.93688  1.0000
  C   C2639     1.0  0.44201  0.14765  0.97027  1.0000
  C   C2640     1.0  0.47428  0.07073  0.73349  1.0000
  C   C2641     1.0  0.41761  0.99133  0.64950  1.0000
  C   C2642     1.0  0.43498  0.03930  0.75889  1.0000
  C   C2643     1.0  0.42064  0.04899  0.90140  1.0000
  C   C2644     1.0  0.39250  0.03964  0.80857  1.0000
  H   H2091     1.0  0.47726  0.06717  0.80483  1.0000
  C   C2645     1.0  0.43406  0.10954  0.96838  1.0000
  C   C2646     1.0  0.44458  0.10944  0.95715  1.0000
  C   C2647     1.0  0.44222  0.11558  0.94426  1.0000
  C   C2648     1.0  0.42939  0.12213  0.94269  1.0000
  C   C2649     1.0  0.41900  0.12224  0.95395  1.0000
  C   C2650     1.0  0.42128  0.11581  0.96667  1.0000
  H   H2092     1.0  0.45445  0.10433  0.95837  1.0000
  H   H2093     1.0  0.45025  0.11538  0.93558  1.0000
  H   H2094     1.0  0.40909  0.12728  0.95281  1.0000
  H   H2095     1.0  0.38222  0.99878  0.59589  1.0000
  C   C2651     1.0  0.42736  0.08307  0.73425  1.0000
  C   C2652     1.0  0.43596  0.07388  0.74190  1.0000
  C   C2653     1.0  0.43459  0.07432  0.75533  1.0000
  C   C2654     1.0  0.42468  0.08398  0.76106  1.0000
  C   C2655     1.0  0.41604  0.09292  0.75341  1.0000
  C   C2656     1.0  0.41746  0.09257  0.74009  1.0000
  H   H2096     1.0  0.44376  0.06661  0.73743  1.0000
  H   H2097     1.0  0.44113  0.06722  0.76125  1.0000
  H   H2098     1.0  0.40833  0.10037  0.75774  1.0000
  H   H2099     1.0  0.41082  0.09974  0.73429  1.0000
  H   H2100     1.0  0.47726  0.06026  0.70610  1.0000
  P   P91       1.0  0.28924  0.00278  0.49044  1.0000
  C   C2657     1.0  0.47965  0.16014  0.92851  1.0000
  H   H2101     1.0  0.41309  0.11571  0.97522  1.0000
  C   C2658     1.0  0.40832  0.13494  0.57733  1.0000
  C   C2659     1.0  0.44811  0.01357  0.76858  1.0000
  H   H2102     1.0  0.33725  0.03335  0.70892  1.0000
  H   H2103     1.0  0.41238  0.00465  0.48628  1.0000
  H   H2104     1.0  0.46667  0.17945  0.92516  1.0000
  H   H2105     1.0  0.47739  0.21387  0.91205  1.0000
  C   C2660     1.0  0.46912  0.99735  0.62210  1.0000
  C   C2661     1.0  0.43844  0.00729  0.68621  1.0000
  C   C2662     1.0  0.43274  0.01620  0.69468  1.0000
  C   C2663     1.0  0.42961  0.01146  0.70850  1.0000
  C   C2664     1.0  0.43214  0.99780  0.71383  1.0000
  H   H2106     1.0  0.47237  0.02379  0.64531  1.0000
  H   H2107     1.0  0.44087  0.01099  0.67554  1.0000
  H   H2108     1.0  0.43073  0.02676  0.69048  1.0000
  C   C2665     1.0  0.36380  0.00053  0.71212  1.0000
  C   C2666     1.0  0.39802  0.02039  0.76023  1.0000
  C   C2667     1.0  0.46216  0.04071  0.58798  1.0000
  C   C2668     1.0  0.45690  0.05021  0.59581  1.0000
  C   C2669     1.0  0.46482  0.05823  0.59653  1.0000
  H   H2109     1.0  0.30675  0.00944  0.66649  1.0000
  C   C2670     1.0  0.38168  0.00738  0.50658  1.0000
  H   H2110     1.0  0.40442  0.99169  0.70533  1.0000
  H   H2111     1.0  0.44662  0.05168  0.60090  1.0000
  H   H2112     1.0  0.46066  0.06588  0.60217  1.0000
  C   C2671     1.0  0.30638  0.01548  0.51288  1.0000
  H   H2113     1.0  0.24925  0.99074  0.56064  1.0000
  C   C2672     1.0  0.41774  0.05286  0.64400  1.0000
  C   C2673     1.0  0.43090  0.05027  0.63707  1.0000
  C   C2674     1.0  0.44099  0.05075  0.64273  1.0000
  C   C2675     1.0  0.43798  0.05386  0.65530  1.0000
  C   C2676     1.0  0.42485  0.05606  0.66235  1.0000
  C   C2677     1.0  0.41477  0.05565  0.65668  1.0000
  H   H2114     1.0  0.43324  0.04828  0.62722  1.0000
  H   H2115     1.0  0.45112  0.04902  0.63720  1.0000
  H   H2116     1.0  0.42241  0.05851  0.67199  1.0000
  H   H2117     1.0  0.40462  0.05772  0.66206  1.0000
  C   C2678     1.0  0.41018  0.99509  0.59569  1.0000
  C   C2679     1.0  0.41513  0.98687  0.58651  1.0000
  H   H2118     1.0  0.43013  0.04942  0.75531  1.0000
  H   H2119     1.0  0.40704  0.00562  0.59220  1.0000
  C   C2680     1.0  0.24254  0.03831  0.60232  1.0000
  C   C2681     1.0  0.34213  0.01260  0.70851  1.0000
  H   H2120     1.0  0.44644  0.19813  0.90886  1.0000
  H   H2121     1.0  0.42117  0.07815  0.87958  1.0000
  H   H2122     1.0  0.36073  0.03615  0.50007  1.0000
  H   H2123     1.0  0.39690  0.99346  0.65154  1.0000
  C   C2682     1.0  0.35877  0.04036  0.56943  1.0000
  C   C2683     1.0  0.36045  0.05320  0.56286  1.0000
  C   C2684     1.0  0.37022  0.05821  0.56501  1.0000
  C   C2685     1.0  0.37842  0.05048  0.57377  1.0000
  C   C2686     1.0  0.37712  0.03745  0.57991  1.0000
  C   C2687     1.0  0.36723  0.03250  0.57786  1.0000
  H   H2124     1.0  0.35375  0.05952  0.55667  1.0000
  H   H2125     1.0  0.37111  0.06831  0.56025  1.0000
  H   H2126     1.0  0.38339  0.03140  0.58665  1.0000
  H   H2127     1.0  0.36580  0.02273  0.58323  1.0000
  C   C2688     1.0  0.28775  0.01890  0.54430  1.0000
  C   C2689     1.0  0.28684  0.03182  0.53651  1.0000
  C   C2690     1.0  0.43338  0.16793  0.92029  1.0000
  C   C2691     1.0  0.27798  0.01207  0.54565  1.0000
  H   H2128     1.0  0.29430  0.03719  0.53541  1.0000
  H   H2129     1.0  0.27856  0.00212  0.55168  1.0000
  H   H2130     1.0  0.42621  0.98536  0.76040  1.0000
  C   C2692     1.0  0.42356  0.01380  0.80767  1.0000
  C   C2693     1.0  0.42578  0.02379  0.81229  1.0000
  C   C2694     1.0  0.42666  0.02161  0.82551  1.0000
  C   C2695     1.0  0.42580  0.00916  0.83397  1.0000
  H   H2131     1.0  0.24195  0.01403  0.56250  1.0000
  H   H2132     1.0  0.42256  0.01577  0.79757  1.0000
  H   H2133     1.0  0.42651  0.03328  0.80569  1.0000
  H   H2134     1.0  0.42642  0.00740  0.84425  1.0000
  C   C2696     1.0  0.31581  0.01178  0.65989  1.0000
  C   C2697     1.0  0.37523  0.00419  0.49868  1.0000
  C   C2698     1.0  0.40906  0.98963  0.60934  1.0000
  C   C2699     1.0  0.35365  0.00044  0.67265  1.0000
  C   C2700     1.0  0.38339  0.02416  0.64754  1.0000
  C   C2701     1.0  0.37888  0.03662  0.65074  1.0000
  C   C2702     1.0  0.36684  0.04456  0.64824  1.0000
  C   C2703     1.0  0.35927  0.04005  0.64251  1.0000
  C   C2704     1.0  0.36365  0.02748  0.63935  1.0000
  C   C2705     1.0  0.37577  0.01953  0.64197  1.0000
  P   P92       1.0  0.35411  0.02206  0.63127  1.0000
  C   C2706     1.0  0.36389  0.00763  0.62489  1.0000
  C   C2707     1.0  0.33923  0.01794  0.64267  1.0000
  C   C2708     1.0  0.33378  0.00830  0.64088  1.0000
  H   H2135     1.0  0.45195  0.02486  0.48246  1.0000
  C   C2709     1.0  0.24127  0.02835  0.59694  1.0000
  C   C2710     1.0  0.32103  0.02152  0.66162  1.0000
  C   C2711     1.0  0.33267  0.02463  0.65303  1.0000
  C   C2712     1.0  0.36999  0.00889  0.61133  1.0000
  H   H2136     1.0  0.47384  0.11314  0.81401  1.0000
  C   C2713     1.0  0.30837  0.03023  0.49112  1.0000
  C   C2714     1.0  0.45849  0.98705  0.74744  1.0000
  H   H2137     1.0  0.36852  0.99156  0.73708  1.0000
  C   C2715     1.0  0.34951  0.03513  0.61747  1.0000
  C   C2716     1.0  0.35680  0.04502  0.61138  1.0000
  C   C2717     1.0  0.35337  0.05493  0.60053  1.0000
  C   C2718     1.0  0.34284  0.05487  0.59546  1.0000
  C   C2719     1.0  0.33572  0.04491  0.60124  1.0000
  C   C2720     1.0  0.33901  0.03508  0.61222  1.0000
  H   H2138     1.0  0.39300  0.01826  0.64900  1.0000
  H   H2139     1.0  0.38492  0.04031  0.65477  1.0000
  H   H2140     1.0  0.36362  0.05440  0.65031  1.0000
  H   H2141     1.0  0.35022  0.04657  0.64013  1.0000
  H   H2142     1.0  0.37966  0.00998  0.63930  1.0000
  C   C2721     1.0  0.37820  0.99942  0.67699  1.0000
  H   H2143     1.0  0.46493  0.06101  0.77200  1.0000
  H   H2144     1.0  0.27551  0.04502  0.49928  1.0000
  C   C2722     1.0  0.27526  0.01507  0.48520  1.0000
  H   H2145     1.0  0.33641  0.03229  0.65451  1.0000
  H   H2146     1.0  0.36933  0.01852  0.60467  1.0000
  H   H2147     1.0  0.47107  0.10019  0.67792  1.0000
  C   C2723     1.0  0.40204  0.00452  0.48991  1.0000
  H   H2148     1.0  0.39805  0.20980  0.94446  1.0000
  H   H2149     1.0  0.45036  0.99107  0.61423  1.0000
  H   H2150     1.0  0.36537  0.04495  0.61471  1.0000
  H   H2151     1.0  0.35927  0.06232  0.59565  1.0000
  H   H2152     1.0  0.34056  0.06220  0.58667  1.0000
  H   H2153     1.0  0.32798  0.04455  0.59684  1.0000
  H   H2154     1.0  0.33356  0.02729  0.61632  1.0000
  C   C2724     1.0  0.44711  0.98577  0.59782  1.0000
  H   H2155     1.0  0.39578  0.05287  0.81859  1.0000
  H   H2156     1.0  0.47329  0.08189  0.56593  1.0000
  C   C2725     1.0  0.42459  0.18356  0.95771  1.0000
  C   C2726     1.0  0.46778  0.21145  0.91622  1.0000
  C   C2727     1.0  0.38023  0.04671  0.73433  1.0000
  H   H2157     1.0  0.45251  0.08972  0.71915  1.0000
  H   H2158     1.0  0.37996  0.05480  0.73864  1.0000
  H   H2159     1.0  0.26868  0.02226  0.50352  1.0000
  H   H2160     1.0  0.39154  0.98945  0.77070  1.0000
  C   C2728     1.0  0.43656  0.14440  0.96159  1.0000
  H   H2161     1.0  0.45360  0.09117  0.88345  1.0000
  C   C2729     1.0  0.47926  0.15996  0.90252  1.0000
  C   C2730     1.0  0.25274  0.99406  0.56744  1.0000
  H   H2162     1.0  0.26513  0.00599  0.59179  1.0000
  C   C2731     1.0  0.41051  0.04880  0.74413  1.0000
  H   H2163     1.0  0.46199  0.08443  0.76081  1.0000
  H   H2164     1.0  0.37119  0.99136  0.71274  1.0000
  C   C2732     1.0  0.31049  0.02660  0.50405  1.0000
  C   C2733     1.0  0.30183  0.02297  0.48718  1.0000
  H   H2165     1.0  0.30811  0.01257  0.52288  1.0000
  C   C2734     1.0  0.46093  0.15204  0.95244  1.0000
  H   H2166     1.0  0.47611  0.00600  0.66493  1.0000
  C   C2735     1.0  0.46590  0.07708  0.75480  1.0000
  C   C2736     1.0  0.41748  0.22824  0.91982  1.0000
  H   H2167     1.0  0.43195  0.04272  0.48624  1.0000
  H   H2168     1.0  0.41843  0.99939  0.64077  1.0000
  H   H2169     1.0  0.46328  0.22114  0.93259  1.0000
  C   C2737     1.0  0.47456  0.09053  0.65248  1.0000
  C   C2738     1.0  0.46502  0.08341  0.66053  1.0000
  C   C2739     1.0  0.45221  0.09011  0.66535  1.0000
  C   C2740     1.0  0.44880  0.10396  0.66214  1.0000
  C   C2741     1.0  0.45814  0.11113  0.65389  1.0000
  C   C2742     1.0  0.47093  0.10444  0.64894  1.0000
  H   H2170     1.0  0.42726  0.14126  0.96514  1.0000
  C   C2743     1.0  0.45502  0.98812  0.60484  1.0000
  H   H2171     1.0  0.47791  0.14044  0.97261  1.0000
  C   C2744     1.0  0.36623  0.01197  0.71396  1.0000
  H   H2172     1.0  0.27623  0.02132  0.57362  1.0000
  C   C2745     1.0  0.48155  0.01636  0.64473  1.0000
  C   C2746     1.0  0.45535  0.14867  0.94378  1.0000
  H   H2173     1.0  0.47160  0.01334  0.87425  1.0000
  C   C2747     1.0  0.40540  0.98803  0.65572  1.0000
  C   C2748     1.0  0.46235  0.99675  0.81374  1.0000
  H   H2174     1.0  0.43876  0.14298  0.94146  1.0000
  H   H2175     1.0  0.33695  0.02016  0.48765  1.0000
  H   H2176     1.0  0.47338  0.08803  0.60563  1.0000
  H   H2177     1.0  0.38123  0.23036  0.93962  1.0000
  C   C2749     1.0  0.26593  0.05964  0.56358  1.0000
  H   H2178     1.0  0.46727  0.07268  0.66288  1.0000
  H   H2179     1.0  0.44488  0.08449  0.67141  1.0000
  H   H2180     1.0  0.43886  0.10909  0.66593  1.0000
  H   H2181     1.0  0.45544  0.12186  0.65121  1.0000
  H   H2182     1.0  0.39968  0.14176  0.58148  1.0000
  C   C2750     1.0  0.48106  0.08571  0.62285  1.0000
  H   H2183     1.0  0.33611  0.00139  0.50735  1.0000
  C   C2751     1.0  0.46759  0.06371  0.76125  1.0000
  C   C2752     1.0  0.41940  0.02922  0.49781  1.0000
  H   H2184     1.0  0.46014  0.14888  0.93344  1.0000
  C   C2753     1.0  0.41863  0.01591  0.50330  1.0000
  C   C2754     1.0  0.46831  0.99543  0.70643  1.0000
  C   C2755     1.0  0.44982  0.08362  0.88171  1.0000
  H   H2185     1.0  0.25995  0.01271  0.54029  1.0000
  C   C2756     1.0  0.47113  0.12513  0.82823  1.0000
  C   C2757     1.0  0.46180  0.13360  0.83593  1.0000
  C   C2758     1.0  0.41922  0.20269  0.97278  1.0000
  C   C2759     1.0  0.37297  0.98386  0.62848  1.0000
  H   H2186     1.0  0.43467  0.13612  0.82455  1.0000
  H   H2187     1.0  0.41297  0.06069  0.72414  1.0000
  H   H2188     1.0  0.43078  0.07566  0.85317  1.0000
  C   C2760     1.0  0.44140  0.11182  0.73535  1.0000
  H   H2189     1.0  0.37033  0.01967  0.67896  1.0000
  C   C2761     1.0  0.35428  0.98422  0.48349  1.0000
  H   H2190     1.0  0.46886  0.06452  0.55776  1.0000
  C   C2762     1.0  0.28303  0.98982  0.50371  1.0000
  Fe  Fe183     1.0  0.23694  0.02778  0.52732  1.0000
  C   C2763     1.0  0.42051  0.20652  0.95897  1.0000
  H   H2191     1.0  0.42162  0.05892  0.90062  1.0000
  C   C2764     1.0  0.47259  0.17116  0.92084  1.0000
  H   H2192     1.0  0.40680  0.00104  0.72490  1.0000
  H   H2193     1.0  0.41737  0.21013  0.97853  1.0000
  C   C2765     1.0  0.44380  0.00805  0.74061  1.0000
  H   H2194     1.0  0.24887  0.03790  0.49739  1.0000
  H   H2195     1.0  0.24593  0.05731  0.56974  1.0000
  C   C2766     1.0  0.45400  0.12450  0.81794  1.0000
  C   C2767     1.0  0.46287  0.20515  0.90949  1.0000
  C   C2768     1.0  0.46002  0.18162  0.95275  1.0000
  H   H2196     1.0  0.35649  0.00047  0.58925  1.0000
  C   C2769     1.0  0.45655  0.00036  0.74053  1.0000
  C   C2770     1.0  0.38739  0.99729  0.72911  1.0000
  C   C2771     1.0  0.47945  0.18821  0.96063  1.0000
  C   C2772     1.0  0.46465  0.02023  0.86860  1.0000
  C   C2773     1.0  0.29359  0.06825  0.48248  1.0000
  H   H2197     1.0  0.46044  0.05335  0.87401  1.0000
  H   H2198     1.0  0.45481  0.03092  0.88414  1.0000
  C   C2774     1.0  0.37582  0.98814  0.67471  1.0000
  C   C2775     1.0  0.40371  0.07034  0.84719  1.0000
  C   C2776     1.0  0.42545  0.04296  0.89039  1.0000
  H   H2199     1.0  0.46063  0.99865  0.71454  1.0000
  C   C2777     1.0  0.40453  0.04860  0.75761  1.0000
  C   C2778     1.0  0.26167  0.00279  0.58490  1.0000
  H   H2200     1.0  0.41083  0.03719  0.49932  1.0000
  H   H2201     1.0  0.45919  0.99506  0.65569  1.0000
  H   H2202     1.0  0.42990  0.09517  0.88370  1.0000
  C   C2779     1.0  0.40033  0.99449  0.73078  1.0000
  H   H2203     1.0  0.46863  0.20276  0.90006  1.0000
  C   C2780     1.0  0.27310  0.03199  0.57109  1.0000
  H   H2204     1.0  0.33278  0.01280  0.70655  1.0000
  H   H2205     1.0  0.38586  0.08020  0.75412  1.0000
  C   C2781     1.0  0.46501  0.01897  0.85587  1.0000
  H   H2206     1.0  0.34856  0.02063  0.67504  1.0000
  C   C2782     1.0  0.44673  0.03796  0.85398  1.0000
  C   C2783     1.0  0.43157  0.07622  0.87942  1.0000
  C   C2784     1.0  0.47842  0.10484  0.70497  1.0000
  C   C2785     1.0  0.41153  0.05282  0.86487  1.0000
  H   H2207     1.0  0.47896  0.15975  0.89256  1.0000
  H   H2208     1.0  0.46876  0.07031  0.87856  1.0000
  C   C2786     1.0  0.45396  0.15179  0.96566  1.0000
  C   C2787     1.0  0.40268  0.05839  0.85643  1.0000
  C   C2788     1.0  0.45521  0.03025  0.87412  1.0000
  P   P93       1.0  0.47605  0.15811  0.94633  1.0000
  H   H2209     1.0  0.39044  0.06004  0.77139  1.0000
  C   C2789     1.0  0.27481  0.99279  0.51572  1.0000
  C   C2790     1.0  0.45985  0.21556  0.92774  1.0000
  H   H2210     1.0  0.41468  0.08573  0.83890  1.0000
  H   H2211     1.0  0.44071  0.11680  0.61751  1.0000
  H   H2212     1.0  0.45422  0.04323  0.74969  1.0000
  C   C2791     1.0  0.23797  0.03794  0.61598  1.0000
  H   H2213     1.0  0.48474  0.01480  0.60473  1.0000
  C   C2792     1.0  0.45600  0.02777  0.84861  1.0000
  H   H2214     1.0  0.47605  0.01304  0.70076  1.0000
  H   H2215     1.0  0.46390  0.20396  0.96740  1.0000
  C   C2793     1.0  0.44624  0.03927  0.86679  1.0000
  C   C2794     1.0  0.44724  0.21291  0.93280  1.0000
  C   C2795     1.0  0.37350  0.99390  0.55910  1.0000
  C   C2796     1.0  0.42302  0.17978  0.97157  1.0000
  C   C2797     1.0  0.27923  0.05329  0.56227  1.0000
  C   C2798     1.0  0.47037  0.10010  0.68822  1.0000
  C   C2799     1.0  0.38210  0.00138  0.48628  1.0000
  S   S369      1.0  0.24290  0.01004  0.51833  1.0000
  C   C2800     1.0  0.44874  0.03587  0.75588  1.0000
  H   H2216     1.0  0.47799  0.11008  0.64225  1.0000
  H   H2217     1.0  0.41931  0.21693  0.95427  1.0000
  H   H2218     1.0  0.47298  0.12452  0.72694  1.0000
  C   C2801     1.0  0.40091  0.21817  0.93685  1.0000
  C   C2802     1.0  0.39896  0.07163  0.73799  1.0000
  H   H2219     1.0  0.47588  0.98640  0.82622  1.0000
  C   C2803     1.0  0.24569  0.00123  0.48514  1.0000
  H   H2220     1.0  0.42306  0.00861  0.74750  1.0000
  H   H2221     1.0  0.29313  0.03453  0.56495  1.0000
  H   H2222     1.0  0.43019  0.99409  0.72450  1.0000
  H   H2223     1.0  0.39760  0.02862  0.75172  1.0000
  H   H2224     1.0  0.33839  0.00328  0.63271  1.0000
  H   H2225     1.0  0.46619  0.18479  0.84964  1.0000
  H   H2226     1.0  0.45603  0.98967  0.81803  1.0000
  H   H2227     1.0  0.41761  0.04019  0.74117  1.0000
  H   H2228     1.0  0.42953  0.99550  0.50494  1.0000
  H   H2229     1.0  0.46474  0.00489  0.73491  1.0000
  H   H2230     1.0  0.35854  0.03300  0.71325  1.0000
  H   H2231     1.0  0.44681  0.01788  0.64816  1.0000
  C   C2804     1.0  0.41769  0.02327  0.90419  1.0000
  S   S370      1.0  0.25250  0.03925  0.52466  1.0000
  C   C2805     1.0  0.45533  0.02302  0.76078  1.0000
  H   H2232     1.0  0.42002  0.00605  0.53177  1.0000
  H   H2233     1.0  0.39695  0.07459  0.84055  1.0000
  C   C2806     1.0  0.47676  0.00366  0.69845  1.0000
  H   H2234     1.0  0.39014  0.00908  0.75184  1.0000
  C   C2807     1.0  0.40307  0.02062  0.77090  1.0000
  C   C2808     1.0  0.45298  0.01213  0.64092  1.0000
  C   C2809     1.0  0.45999  0.99926  0.64515  1.0000
  C   C2810     1.0  0.38507  0.03584  0.51137  1.0000
  C   C2811     1.0  0.34118  0.99961  0.49756  1.0000
  H   H2235     1.0  0.40812  0.02411  0.92459  1.0000
  C   C2812     1.0  0.40784  0.06034  0.73442  1.0000
  C   C2813     1.0  0.35174  0.00080  0.70955  1.0000
  C   C2814     1.0  0.41601  0.13914  0.56474  1.0000
  H   H2236     1.0  0.44235  0.01824  0.73511  1.0000
  H   H2237     1.0  0.39518  0.05331  0.85688  1.0000
  C   C2815     1.0  0.43470  0.98949  0.75481  1.0000
  C   C2816     1.0  0.42710  0.13032  0.55936  1.0000
  C   C2817     1.0  0.34464  0.02416  0.70988  1.0000
  C   C2818     1.0  0.46705  0.12036  0.81944  1.0000
  H   H2238     1.0  0.41334  0.14920  0.55914  1.0000
  C   C2819     1.0  0.42464  0.18948  0.92619  1.0000
  P   P94       1.0  0.38206  0.01160  0.71666  1.0000
  C   C2820     1.0  0.38119  0.02560  0.72325  1.0000
  H   H2239     1.0  0.42323  0.98947  0.83584  1.0000
  C   C2821     1.0  0.43433  0.01685  0.77121  1.0000
  C   C2822     1.0  0.39257  0.07136  0.75131  1.0000
  C   C2823     1.0  0.36345  0.98878  0.67250  1.0000
  C   C2824     1.0  0.41404  0.21729  0.92966  1.0000
  H   H2240     1.0  0.42020  0.20006  0.89119  1.0000
  C   C2825     1.0  0.39059  0.03347  0.71769  1.0000
  C   C2826     1.0  0.37148  0.02820  0.73461  1.0000
  C   C2827     1.0  0.39330  0.01198  0.70053  1.0000
  C   C2828     1.0  0.39193  0.02348  0.69033  1.0000
  C   C2829     1.0  0.40034  0.02378  0.67770  1.0000
  C   C2830     1.0  0.40982  0.01246  0.67501  1.0000
  C   C2831     1.0  0.41100  0.00090  0.68498  1.0000
  C   C2832     1.0  0.40299  0.00071  0.69776  1.0000
  P   P95       1.0  0.42628  0.20224  0.93327  1.0000
  C   C2833     1.0  0.25300  0.01182  0.57724  1.0000
  S   S371      1.0  0.42751  0.22475  0.88770  1.0000
  H   H2241     1.0  0.26317  0.07035  0.56056  1.0000
  C   C2834     1.0  0.41174  0.12195  0.58455  1.0000
  C   C2835     1.0  0.44058  0.99362  0.69155  1.0000
  C   C2836     1.0  0.25619  0.05219  0.56869  1.0000
  H   H2242     1.0  0.31533  0.03240  0.50719  1.0000
  H   H2243     1.0  0.39861  0.03132  0.70935  1.0000
  H   H2244     1.0  0.36437  0.02199  0.73930  1.0000
  H   H2245     1.0  0.38543  0.03530  0.50132  1.0000
  H   H2246     1.0  0.41643  0.01270  0.66527  1.0000
  H   H2247     1.0  0.46213  0.01440  0.60749  1.0000
  C   C2837     1.0  0.41065  0.05013  0.78668  1.0000
  H   H2248     1.0  0.48150  0.99052  0.84431  1.0000
  C   C2838     1.0  0.29992  0.00816  0.50893  1.0000
  C   C2839     1.0  0.46177  0.01015  0.61798  1.0000
  C   C2840     1.0  0.43055  0.11731  0.56656  1.0000
  C   C2841     1.0  0.42289  0.11304  0.57923  1.0000
  C   C2842     1.0  0.26597  0.98955  0.58368  1.0000
  P   P96       1.0  0.42704  0.09633  0.58883  1.0000
  C   C2843     1.0  0.41202  0.09023  0.59387  1.0000
  C   C2844     1.0  0.44012  0.08627  0.57875  1.0000
  C   C2845     1.0  0.43770  0.07648  0.57396  1.0000
  C   C2846     1.0  0.44803  0.06874  0.56635  1.0000
  C   C2847     1.0  0.46080  0.07083  0.56328  1.0000
  C   C2848     1.0  0.46328  0.08061  0.56790  1.0000
  C   C2849     1.0  0.45304  0.08818  0.57576  1.0000
  C   C2850     1.0  0.40664  0.08532  0.60735  1.0000
  C   C2851     1.0  0.39497  0.08074  0.61094  1.0000
  C   C2852     1.0  0.38864  0.08091  0.60115  1.0000
  C   C2853     1.0  0.39378  0.08602  0.58777  1.0000
  C   C2854     1.0  0.40530  0.09084  0.58415  1.0000
  C   C2855     1.0  0.43322  0.09622  0.60290  1.0000
  C   C2856     1.0  0.43751  0.08410  0.61134  1.0000
  C   C2857     1.0  0.44284  0.08381  0.62194  1.0000
  C   C2858     1.0  0.44389  0.09558  0.62423  1.0000
  C   C2859     1.0  0.43976  0.10769  0.61581  1.0000
  C   C2860     1.0  0.43449  0.10803  0.60515  1.0000
  H   H2249     1.0  0.46419  0.19930  0.82753  1.0000
  H   H2250     1.0  0.47957  0.02946  0.81882  1.0000
  C   C2861     1.0  0.45022  0.20257  0.91450  1.0000
  H   H2251     1.0  0.43910  0.11066  0.56210  1.0000
  H   H2252     1.0  0.40567  0.11881  0.59429  1.0000
  H   H2253     1.0  0.42800  0.07451  0.57623  1.0000
  H   H2254     1.0  0.44621  0.06079  0.56319  1.0000
  H   H2255     1.0  0.48239  0.21029  0.81366  1.0000
  C   C2862     1.0  0.28710  0.05986  0.49322  1.0000
  H   H2256     1.0  0.45526  0.09540  0.57962  1.0000
  H   H2257     1.0  0.41141  0.08483  0.61514  1.0000
  H   H2258     1.0  0.39102  0.07669  0.62132  1.0000
  H   H2259     1.0  0.37990  0.07687  0.60389  1.0000
  H   H2260     1.0  0.38899  0.08592  0.58017  1.0000
  H   H2261     1.0  0.40918  0.09471  0.57371  1.0000
  H   H2262     1.0  0.43678  0.07485  0.60971  1.0000
  H   H2263     1.0  0.44621  0.07444  0.62838  1.0000
  H   H2264     1.0  0.44797  0.09527  0.63250  1.0000
  H   H2265     1.0  0.40752  0.00928  0.78992  1.0000
  H   H2266     1.0  0.43157  0.11750  0.59866  1.0000
  H   H2267     1.0  0.29900  0.07443  0.48429  1.0000
  P   P97       1.0  0.40974  0.03451  0.77037  1.0000
  C   C2863     1.0  0.41325  0.19074  0.92169  1.0000
  H   H2268     1.0  0.38772  0.99933  0.67842  1.0000
  H   H2269     1.0  0.39103  0.02770  0.79633  1.0000
  C   C2864     1.0  0.43467  0.17795  0.92550  1.0000
  P   P98       1.0  0.40321  0.01156  0.51284  1.0000
  C   C2865     1.0  0.39248  0.02556  0.51948  1.0000
  S   S372      1.0  0.36338  0.98974  0.53321  1.0000
  S   S373      1.0  0.47146  0.22438  0.97153  1.0000
  H   H2270     1.0  0.45065  0.00127  0.49182  1.0000
  C   C2866     1.0  0.42996  0.00585  0.50096  1.0000
  H   H2271     1.0  0.39732  0.08069  0.73046  1.0000
  H   H2272     1.0  0.47225  0.01118  0.85161  1.0000
  C   C2867     1.0  0.39163  0.02652  0.53252  1.0000
  C   C2868     1.0  0.38369  0.03766  0.53728  1.0000
  C   C2869     1.0  0.37642  0.04787  0.52913  1.0000
  H   H2273     1.0  0.37122  0.05473  0.50997  1.0000
  H   H2274     1.0  0.36480  0.00421  0.50208  1.0000
  C   C2870     1.0  0.28041  0.05163  0.49092  1.0000
  C   C2871     1.0  0.47360  0.99507  0.81855  1.0000
  C   C2872     1.0  0.41296  0.02934  0.91508  1.0000
  C   C2873     1.0  0.39381  0.00923  0.76021  1.0000
  H   H2275     1.0  0.24600  0.00020  0.49536  1.0000
  C   C2874     1.0  0.40499  0.98323  0.73993  1.0000
  H   H2276     1.0  0.31597  0.02678  0.66954  1.0000
  H   H2277     1.0  0.41649  0.01333  0.90525  1.0000
  H   H2278     1.0  0.28745  0.05957  0.50332  1.0000
  C   C2875     1.0  0.36553  0.99503  0.63348  1.0000
  C   C2876     1.0  0.39580  0.03510  0.79676  1.0000
  H   H2279     1.0  0.37614  0.00980  0.51603  1.0000
  C   C2877     1.0  0.45400  0.01761  0.62732  1.0000
  C   C2878     1.0  0.42283  0.00131  0.81602  1.0000
  H   H2280     1.0  0.37692  0.99898  0.54894  1.0000
  C   C2879     1.0  0.43290  0.00263  0.74767  1.0000
  H   H2281     1.0  0.39699  0.01877  0.53914  1.0000
  H   H2282     1.0  0.38311  0.03833  0.54735  1.0000
  H   H2283     1.0  0.37012  0.05639  0.53294  1.0000
  H   H2284     1.0  0.31805  0.99775  0.64803  1.0000
  C   C2880     1.0  0.39950  0.99834  0.78150  1.0000
  C   C2881     1.0  0.47552  0.03885  0.58145  1.0000
  H   H2285     1.0  0.44123  0.21648  0.94153  1.0000
  H   H2286     1.0  0.40546  0.19958  0.92180  1.0000
  C   C2882     1.0  0.39816  0.04951  0.80938  1.0000
  C   C2883     1.0  0.26624  0.03112  0.53187  1.0000
  H   H2287     1.0  0.42742  0.02519  0.88355  1.0000
  H   H2288     1.0  0.43983  0.04461  0.84814  1.0000
  C   C2884     1.0  0.46751  0.01644  0.79770  1.0000
  C   C2885     1.0  0.45931  0.00743  0.80332  1.0000
  C   C2886     1.0  0.47418  0.18954  0.84359  1.0000
  H   H2289     1.0  0.33557  0.98977  0.54158  1.0000
  H   H2290     1.0  0.30229  0.98957  0.53874  1.0000
  C   C2887     1.0  0.40690  0.99755  0.52626  1.0000
  C   C2888     1.0  0.40518  0.04006  0.78583  1.0000
  H   H2291     1.0  0.48230  0.11759  0.91645  1.0000
  C   C2889     1.0  0.44248  0.20598  0.92649  1.0000
  C   C2890     1.0  0.42358  0.19700  0.95124  1.0000
  C   C2891     1.0  0.35669  0.02389  0.71247  1.0000
  H   H2292     1.0  0.42087  0.12165  0.73814  1.0000
  H   H2293     1.0  0.41132  0.06268  0.79890  1.0000
  C   C2892     1.0  0.26675  0.02302  0.49393  1.0000
  H   H2294     1.0  0.44691  0.19823  0.96046  1.0000
  C   C2893     1.0  0.39461  0.99818  0.77080  1.0000
  C   C2894     1.0  0.45689  0.19249  0.95861  1.0000
  C   C2895     1.0  0.41565  0.99758  0.53379  1.0000
  H   H2295     1.0  0.45063  0.00866  0.79960  1.0000
  H   H2296     1.0  0.40027  0.98976  0.78974  1.0000
  C   C2896     1.0  0.37878  0.98925  0.73755  1.0000
  H   H2297     1.0  0.41843  0.99215  0.68291  1.0000
  H   H2298     1.0  0.36120  0.99388  0.64403  1.0000
  C   C2897     1.0  0.44266  0.02235  0.48820  1.0000
  P   P99       1.0  0.24695  0.02879  0.57929  1.0000
  H   H2299     1.0  0.46513  0.02480  0.78969  1.0000
  C   C2898     1.0  0.39136  0.22979  0.93415  1.0000
  C   C2899     1.0  0.48259  0.17712  0.95504  1.0000
  H   H2300     1.0  0.45552  0.21518  0.87781  1.0000
  H   H2301     1.0  0.45772  0.15488  0.97238  1.0000
  H   H2302     1.0  0.41075  0.04691  0.92211  1.0000
  C   C2900     1.0  0.45356  0.06224  0.87636  1.0000
  C   C2901     1.0  0.45838  0.07187  0.87889  1.0000
  H   H2303     1.0  0.38566  0.03542  0.81715  1.0000
  H   H2304     1.0  0.34992  0.99188  0.70827  1.0000
  H   H2305     1.0  0.46598  0.02039  0.75850  1.0000
  H   H2306     1.0  0.28682  0.05900  0.55816  1.0000
  H   H2307     1.0  0.24701  0.04639  0.59604  1.0000
  H   H2308     1.0  0.42664  0.17594  0.95217  1.0000
  C   C2902     1.0  0.47233  0.17102  0.90788  1.0000
  H   H2309     1.0  0.47964  0.03147  0.57543  1.0000
  C   C2903     1.0  0.41189  0.18057  0.91674  1.0000
  H   H2310     1.0  0.38454  0.03230  0.69221  1.0000
  C   C2904     1.0  0.40365  0.00950  0.78157  1.0000
  H   H2311     1.0  0.36353  0.04069  0.74892  1.0000
  H   H2312     1.0  0.43320  0.17799  0.88697  1.0000
  C   C2905     1.0  0.47873  0.01475  0.80252  1.0000
  C   C2906     1.0  0.40703  0.05492  0.79835  1.0000
  C   C2907     1.0  0.41444  0.04219  0.91368  1.0000
  H   H2313     1.0  0.44154  0.14404  0.84060  1.0000
  H   H2314     1.0  0.46438  0.13666  0.84346  1.0000
  H   H2315     1.0  0.27516  0.04808  0.52480  1.0000
  C   C2908     1.0  0.46859  0.09952  0.71505  1.0000
  C   C2909     1.0  0.26737  0.01808  0.53929  1.0000
  C   C2910     1.0  0.25970  0.03826  0.57230  1.0000
  C   C2911     1.0  0.45272  0.10755  0.74071  1.0000
  H   H2316     1.0  0.39970  0.03283  0.67002  1.0000
  H   H2317     1.0  0.45363  0.09092  0.69561  1.0000
  H   H2318     1.0  0.45313  0.00363  0.77251  1.0000
  H   H2319     1.0  0.46651  0.17927  0.90204  1.0000
  C   C2912     1.0  0.42056  0.18928  0.97907  1.0000
  C   C2913     1.0  0.43644  0.08584  0.88189  1.0000
  C   C2914     1.0  0.39003  0.04404  0.72314  1.0000
  H   H2320     1.0  0.45608  0.02668  0.83881  1.0000
  C   C2915     1.0  0.37099  0.03875  0.74011  1.0000
  C   C2916     1.0  0.44879  0.13783  0.83432  1.0000
  C   C2917     1.0  0.36836  0.01103  0.67723  1.0000
  H   H2321     1.0  0.46836  0.12318  0.93776  1.0000
  C   C2918     1.0  0.42391  0.03003  0.89190  1.0000
  C   C2919     1.0  0.44490  0.13332  0.82530  1.0000
  C   C2920     1.0  0.43696  0.20913  0.88475  1.0000
  C   C2921     1.0  0.39528  0.05988  0.76110  1.0000
  C   C2922     1.0  0.45209  0.11058  0.75286  1.0000
  H   H2322     1.0  0.43303  0.13355  0.54958  1.0000
  C   C2923     1.0  0.47282  0.17365  0.95122  1.0000
  H   H2323     1.0  0.41622  0.99116  0.57594  1.0000
  H   H2324     1.0  0.44121  0.15916  0.91948  1.0000
  H   H2325     1.0  0.41975  0.12613  0.75996  1.0000
  H   H2326     1.0  0.42377  0.16946  0.97659  1.0000
  H   H2327     1.0  0.42086  0.16127  0.91226  1.0000
  C   C2924     1.0  0.37732  0.99770  0.60634  1.0000
  C   C2925     1.0  0.45983  0.09434  0.71152  1.0000
  C   C2926     1.0  0.46925  0.08073  0.74083  1.0000
  H   H2328     1.0  0.44869  0.02761  0.62394  1.0000
  C   C2927     1.0  0.44313  0.14516  0.94830  1.0000
  C   C2928     1.0  0.42760  0.02977  0.76632  1.0000
  H   H2329     1.0  0.41763  0.05443  0.77831  1.0000
  H   H2330     1.0  0.46066  0.10751  0.75721  1.0000
  H   H2331     1.0  0.44141  0.10974  0.72606  1.0000
  C   C2929     1.0  0.42901  0.12125  0.75445  1.0000
  H   H2332     1.0  0.43970  0.11907  0.76937  1.0000
  C   C2930     1.0  0.44025  0.11725  0.75975  1.0000
  C   C2931     1.0  0.42964  0.11870  0.74217  1.0000
  C   C2932     1.0  0.29752  0.01192  0.49605  1.0000
  H   H2333     1.0  0.41069  0.04344  0.87175  1.0000
  C   C2933     1.0  0.42407  0.99897  0.82919  1.0000
  H   H2334     1.0  0.45081  0.12039  0.81153  1.0000
  H   H2335     1.0  0.45232  0.17916  0.94992  1.0000
  H   H2336     1.0  0.34416  0.00081  0.67091  1.0000
  C   C2934     1.0  0.44007  0.06424  0.87681  1.0000
  C   C2935     1.0  0.35735  0.03779  0.49103  1.0000
  C   C2936     1.0  0.47802  0.05676  0.58952  1.0000
  P   P100      1.0  0.46792  0.09803  0.73248  1.0000
  P   P101      1.0  0.43348  0.05156  0.87439  1.0000
  C   C2937     1.0  0.42150  0.05918  0.86412  1.0000
  C   C2938     1.0  0.42191  0.16915  0.91610  1.0000
  H   H2337     1.0  0.24559  0.04341  0.55196  1.0000
  H   H2338     1.0  0.47851  0.11978  0.95687  1.0000
  C   C2939     1.0  0.46657  0.19578  0.96251  1.0000
  C   C2940     1.0  0.37709  0.04694  0.51619  1.0000
  H   H2339     1.0  0.27277  0.00258  0.51765  1.0000
  C   C2941     1.0  0.47306  0.19771  0.83110  1.0000
  H   H2340     1.0  0.29677  0.99971  0.51598  1.0000
  C   C2942     1.0  0.47584  0.05735  0.74001  1.0000
  C   C2943     1.0  0.43140  0.03241  0.49034  1.0000
  H   H2341     1.0  0.47865  0.04662  0.83032  1.0000
  C   C2944     1.0  0.35610  0.01157  0.67501  1.0000
  C   C2945     1.0  0.43076  0.19853  0.88744  1.0000
  H   H2342     1.0  0.44349  0.17671  0.92896  1.0000
  C   C2946     1.0  0.41372  0.07662  0.84626  1.0000
  C   C2947     1.0  0.42275  0.07094  0.85448  1.0000
  C   C2948     1.0  0.34436  0.04436  0.49044  1.0000
  C   C2949     1.0  0.47263  0.05386  0.75391  1.0000
  C   C2950     1.0  0.36192  0.99470  0.58182  1.0000
  H   H2343     1.0  0.47282  0.08189  0.62972  1.0000
  C   C2951     1.0  0.36692  0.00118  0.56887  1.0000
  C   C2952     1.0  0.32218  0.00519  0.64951  1.0000
  H   H2344     1.0  0.40312  0.18159  0.91323  1.0000
  C   C2953     1.0  0.39514  0.00749  0.50233  1.0000
  H   H2345     1.0  0.47390  0.04354  0.75906  1.0000
  H   H2346     1.0  0.47726  0.07313  0.72275  1.0000
  H   H2347     1.0  0.23896  0.04567  0.62006  1.0000
  H   H2348     1.0  0.48594  0.07801  0.77603  1.0000
  C   C2954     1.0  0.48131  0.08922  0.60922  1.0000
  P   P102      1.0  0.47910  0.98793  0.60975  1.0000
  H   H2349     1.0  0.43828  0.98662  0.64957  1.0000
  C   C2955     1.0  0.48179  0.00424  0.81313  1.0000
  H   H2350     1.0  0.48562  0.10852  0.70734  1.0000
  C   C2956     1.0  0.39549  0.00155  0.48189  1.0000
  C   C2957     1.0  0.48455  0.11717  0.94765  1.0000
  H   H2351     1.0  0.48050  0.14854  0.82853  1.0000
  H   H2352     1.0  0.43657  0.98711  0.60171  1.0000
  C   C2958     1.0  0.46871  0.98651  0.59983  1.0000
  C   C2959     1.0  0.46979  0.98300  0.70391  1.0000
  C   C2960     1.0  0.42882  0.98405  0.65434  1.0000
  C   C2961     1.0  0.37886  0.98520  0.61492  1.0000
  C   C2962     1.0  0.47932  0.10507  0.69161  1.0000
  H   H2353     1.0  0.47960  0.04972  0.73424  1.0000
  S   S374      1.0  0.48137  0.03196  0.71234  1.0000
  C   C2963     1.0  0.48329  0.20391  0.82332  1.0000
  C   C2964     1.0  0.48128  0.10384  0.73435  1.0000
  C   C2965     1.0  0.48118  0.11745  0.73065  1.0000
  H   H2354     1.0  0.26231  0.98561  0.53445  1.0000
  C   C2966     1.0  0.41865  0.98678  0.54414  1.0000
  H   H2355     1.0  0.39466  0.98603  0.52353  1.0000
  C   C2967     1.0  0.40149  0.98638  0.52905  1.0000
  C   C2968     1.0  0.34754  0.98673  0.49613  1.0000
  H   H2356     1.0  0.48440  0.13469  0.88203  1.0000
  H   H2357     1.0  0.48593  0.20557  0.93441  1.0000
  S   S375      1.0  0.48235  0.04766  0.78910  1.0000
  H   H2358     1.0  0.48434  0.10994  0.85904  1.0000
  H   H2359     1.0  0.42514  0.98692  0.55017  1.0000
  C   C2969     1.0  0.48544  0.18769  0.84843  1.0000
  C   C2970     1.0  0.26146  0.98518  0.57499  1.0000
  H   H2360     1.0  0.48606  0.18131  0.85815  1.0000
  H   H2361     1.0  0.48520  0.02155  0.79793  1.0000
  H   H2362     1.0  0.31164  0.03881  0.48425  1.0000
  C   C2971     1.0  0.26893  0.98313  0.52538  1.0000
  C   C2972     1.0  0.48344  0.04684  0.58222  1.0000
  H   H2363     1.0  0.48625  0.13621  0.80343  1.0000
  C   C2973     1.0  0.48605  0.99989  0.68740  1.0000
  C   C2974     1.0  0.48619  0.02737  0.82540  1.0000
  C   C2975     1.0  0.48562  0.03720  0.83192  1.0000
  C   C2976     1.0  0.48385  0.00636  0.65595  1.0000
  H   H2364     1.0  0.43691  0.14695  0.98062  1.0000
  C   C2977     1.0  0.28747  0.40730  0.04360  1.0000
  Fe  Fe184     1.0  0.37421  0.45117  0.98367  1.0000
  S   S376      1.0  0.45432  0.24312  0.02389  1.0000
  Fe  Fe185     1.0  0.45418  0.31906  0.00434  1.0000
  S   S377      1.0  0.45232  0.33995  0.00623  1.0000
  S   S378      1.0  0.44900  0.30364  0.02289  1.0000
  C   C2978     1.0  0.29939  0.40465  0.03444  1.0000
  C   C2979     1.0  0.40311  0.38190  0.99252  1.0000
  H   H2365     1.0  0.27804  0.41219  0.06267  1.0000
  H   H2366     1.0  0.27828  0.40769  0.04116  1.0000
  H   H2367     1.0  0.29885  0.41207  0.06803  1.0000
  H   H2368     1.0  0.46011  0.28879  0.00146  1.0000
  C   C2980     1.0  0.42367  0.25950  0.99622  1.0000
  H   H2369     1.0  0.45194  0.38949  0.99696  1.0000
  H   H2370     1.0  0.47750  0.30673  0.03002  1.0000
  Fe  Fe186     1.0  0.36322  0.45252  0.01266  1.0000
  S   S379      1.0  0.35373  0.45678  0.99543  1.0000
  S   S380      1.0  0.35774  0.46693  0.02615  1.0000
  Fe  Fe187     1.0  0.38172  0.42724  0.00546  1.0000
  H   H2371     1.0  0.33518  0.40018  0.09806  1.0000
  S   S381      1.0  0.39828  0.41072  0.01236  1.0000
  C   C2981     1.0  0.41682  0.38834  0.00746  1.0000
  C   C2982     1.0  0.34108  0.44047  0.04775  1.0000
  Fe  Fe188     1.0  0.35391  0.43515  0.00054  1.0000
  S   S382      1.0  0.33786  0.42747  0.99729  1.0000
  C   C2983     1.0  0.33529  0.39649  0.98881  1.0000
  S   S383      1.0  0.36169  0.43111  0.01902  1.0000
  Fe  Fe189     1.0  0.26360  0.43686  0.01830  1.0000
  H   H2372     1.0  0.46239  0.26494  0.00193  1.0000
  S   S384      1.0  0.27801  0.44063  0.02790  1.0000
  C   C2984     1.0  0.48089  0.27338  0.03532  1.0000
  S   S385      1.0  0.26144  0.41687  0.01770  1.0000
  C   C2985     1.0  0.32125  0.43185  0.00561  1.0000
  C   C2986     1.0  0.31159  0.42825  0.00179  1.0000
  C   C2987     1.0  0.29834  0.43090  0.00859  1.0000
  C   C2988     1.0  0.29464  0.43722  0.01927  1.0000
  C   C2989     1.0  0.30425  0.44104  0.02295  1.0000
  C   C2990     1.0  0.31755  0.43832  0.01618  1.0000
  P   P103      1.0  0.32631  0.40773  0.05326  1.0000
  H   H2373     1.0  0.33354  0.37927  0.02094  1.0000
  H   H2374     1.0  0.30136  0.44614  0.03103  1.0000
  H   H2375     1.0  0.32495  0.44113  0.01920  1.0000
  H   H2376     1.0  0.43175  0.37091  0.00336  1.0000
  H   H2377     1.0  0.24634  0.46999  0.02873  1.0000
  C   C2991     1.0  0.28147  0.47411  0.03775  1.0000
  C   C2992     1.0  0.32098  0.38762  0.07556  1.0000
  C   C2993     1.0  0.32990  0.45080  0.04792  1.0000
  Fe  Fe190     1.0  0.25995  0.42621  0.99650  1.0000
  Fe  Fe191     1.0  0.46080  0.23600  0.00478  1.0000
  H   H2378     1.0  0.27931  0.46448  0.03916  1.0000
  H   H2379     1.0  0.31710  0.38392  0.06936  1.0000
  H   H2380     1.0  0.36757  0.47646  0.99802  1.0000
  H   H2381     1.0  0.30414  0.46073  0.98703  1.0000
  C   C2994     1.0  0.33125  0.40358  0.07859  1.0000
  C   C2995     1.0  0.45072  0.28701  0.02230  1.0000
  C   C2996     1.0  0.45654  0.28217  0.01063  1.0000
  C   C2997     1.0  0.45781  0.26866  0.01090  1.0000
  C   C2998     1.0  0.45322  0.26006  0.02283  1.0000
  C   C2999     1.0  0.44749  0.26498  0.03440  1.0000
  C   C3000     1.0  0.44624  0.27835  0.03413  1.0000
  H   H2382     1.0  0.31693  0.37190  0.09269  1.0000
  H   H2383     1.0  0.46573  0.28892  0.04305  1.0000
  H   H2384     1.0  0.44394  0.25844  0.04363  1.0000
  H   H2385     1.0  0.44177  0.28202  0.04317  1.0000
  C   C3001     1.0  0.34287  0.37287  0.98980  1.0000
  H   H2386     1.0  0.42700  0.25704  0.01580  1.0000
  C   C3002     1.0  0.34813  0.38729  0.04699  1.0000
  S   S386      1.0  0.26394  0.44545  0.99664  1.0000
  C   C3003     1.0  0.35933  0.38155  0.03845  1.0000
  C   C3004     1.0  0.48196  0.29655  0.02918  1.0000
  H   H2387     1.0  0.32914  0.40232  0.00759  1.0000
  H   H2388     1.0  0.33844  0.41598  0.02519  1.0000
  C   C3005     1.0  0.33995  0.42746  0.04930  1.0000
  C   C3006     1.0  0.32759  0.42468  0.05100  1.0000
  H   H2389     1.0  0.42396  0.24908  0.99742  1.0000
  H   H2390     1.0  0.29099  0.42801  0.00560  1.0000
  C   C3007     1.0  0.42228  0.37709  0.00185  1.0000
  Fe  Fe192     1.0  0.47110  0.33937  0.99019  1.0000
  H   H2391     1.0  0.34878  0.41960  0.04904  1.0000
  H   H2392     1.0  0.34226  0.36041  0.00953  1.0000
  H   H2393     1.0  0.47043  0.37257  0.98786  1.0000
  S   S387      1.0  0.38379  0.44846  0.00055  1.0000
  C   C3008     1.0  0.41543  0.37384  0.99436  1.0000
  H   H2394     1.0  0.42737  0.28064  0.01265  1.0000
  C   C3009     1.0  0.34029  0.37048  0.00373  1.0000
  H   H2395     1.0  0.32019  0.40305  0.02991  1.0000
  C   C3010     1.0  0.40457  0.39648  0.00549  1.0000
  C   C3011     1.0  0.28734  0.40990  0.05571  1.0000
  H   H2396     1.0  0.31434  0.42336  0.99355  1.0000
  H   H2397     1.0  0.35802  0.40566  0.01016  1.0000
  C   C3012     1.0  0.47533  0.28648  0.03657  1.0000
  C   C3013     1.0  0.33534  0.38108  0.01017  1.0000
  H   H2398     1.0  0.28305  0.45587  0.00018  1.0000
  H   H2399     1.0  0.29941  0.40295  0.02493  1.0000
  H   H2400     1.0  0.42488  0.29626  0.99137  1.0000
  H   H2401     1.0  0.36541  0.37208  0.04216  1.0000
  H   H2402     1.0  0.34569  0.38206  0.05725  1.0000
  C   C3014     1.0  0.32697  0.47338  0.01359  1.0000
  C   C3015     1.0  0.29150  0.47815  0.02720  1.0000
  H   H2403     1.0  0.33536  0.41234  0.07488  1.0000
  H   H2404     1.0  0.33093  0.46089  0.04646  1.0000
  C   C3016     1.0  0.33118  0.39669  0.09179  1.0000
  H   H2405     1.0  0.32073  0.46458  0.00140  1.0000
  H   H2406     1.0  0.32597  0.37996  0.10709  1.0000
  C   C3017     1.0  0.31118  0.40480  0.03728  1.0000
  C   C3018     1.0  0.32600  0.38529  0.09687  1.0000
  C   C3019     1.0  0.31753  0.44813  0.04975  1.0000
  C   C3020     1.0  0.29656  0.46866  0.99068  1.0000
  C   C3021     1.0  0.29914  0.40991  0.05865  1.0000
  C   C3022     1.0  0.36290  0.38816  0.02518  1.0000
  C   C3023     1.0  0.32611  0.39911  0.07039  1.0000
  C   C3024     1.0  0.28467  0.46568  0.99854  1.0000
  S   S388      1.0  0.37392  0.42967  0.98741  1.0000
  C   C3025     1.0  0.31117  0.40746  0.04940  1.0000
  H   H2407     1.0  0.35070  0.44260  0.04617  1.0000
  H   H2408     1.0  0.32817  0.46438  0.02123  1.0000
  C   C3026     1.0  0.32091  0.38076  0.08876  1.0000
  H   H2409     1.0  0.30886  0.45617  0.04977  1.0000
  C   C3027     1.0  0.35522  0.40047  0.02042  1.0000
  C   C3028     1.0  0.34044  0.39976  0.04229  1.0000
  C   C3029     1.0  0.34411  0.40629  0.02896  1.0000
  H   H2410     1.0  0.37174  0.38385  0.01864  1.0000
  S   S389      1.0  0.42186  0.35983  0.98713  1.0000
  C   C3030     1.0  0.33281  0.39406  0.00270  1.0000
  H   H2411     1.0  0.30667  0.43331  0.05275  1.0000
  C   C3031     1.0  0.39773  0.39326  0.99795  1.0000
  H   H2412     1.0  0.42215  0.39078  0.01329  1.0000
  C   C3032     1.0  0.42539  0.26396  0.00655  1.0000
  C   C3033     1.0  0.42561  0.27727  0.00477  1.0000
  C   C3034     1.0  0.42415  0.28613  0.99265  1.0000
  S   S390      1.0  0.44239  0.32504  0.98865  1.0000
  H   H2413     1.0  0.29705  0.47166  0.02044  1.0000
  H   H2414     1.0  0.38830  0.39945  0.99639  1.0000
  C   C3035     1.0  0.31634  0.43511  0.05140  1.0000
  H   H2415     1.0  0.47561  0.26565  0.04090  1.0000
  H   H2416     1.0  0.39771  0.37934  0.98686  1.0000
  H   H2417     1.0  0.33343  0.40668  0.98321  1.0000
  S   S391      1.0  0.47376  0.31806  0.98990  1.0000
  Fe  Fe193     1.0  0.44150  0.34589  0.98960  1.0000
  H   H2418     1.0  0.26636  0.47941  0.05454  1.0000
  C   C3036     1.0  0.46373  0.37905  0.98169  1.0000
  H   H2419     1.0  0.43630  0.40352  0.98361  1.0000
  C   C3037     1.0  0.45332  0.38856  0.98681  1.0000
  H   H2420     1.0  0.40501  0.43027  0.98956  1.0000
  H   H2421     1.0  0.26581  0.47275  0.01057  1.0000
  C   C3038     1.0  0.32293  0.47350  0.00227  1.0000
  S   S392      1.0  0.45723  0.24981  0.98565  1.0000
  Fe  Fe194     1.0  0.24207  0.45148  0.00303  1.0000
  S   S393      1.0  0.24179  0.44459  0.02485  1.0000
  C   C3039     1.0  0.27502  0.47518  0.00453  1.0000
  H   H2422     1.0  0.34684  0.36453  0.98503  1.0000
  C   C3040     1.0  0.34053  0.38594  0.98223  1.0000
  Fe  Fe195     1.0  0.23953  0.42539  0.02229  1.0000
  C   C3041     1.0  0.42232  0.26830  0.98405  1.0000
  C   C3042     1.0  0.23933  0.47922  0.02995  1.0000
  H   H2423     1.0  0.41452  0.41006  0.98084  1.0000
  C   C3043     1.0  0.25345  0.48158  0.98269  1.0000
  C   C3044     1.0  0.29863  0.48155  0.98808  1.0000
  C   C3045     1.0  0.42235  0.28176  0.98221  1.0000
  S   S394      1.0  0.23795  0.43295  0.00102  1.0000
  C   C3046     1.0  0.35994  0.48277  0.01664  1.0000
  C   C3047     1.0  0.27416  0.48255  0.04635  1.0000
  H   H2424     1.0  0.38370  0.33013  0.97043  1.0000
  H   H2425     1.0  0.37152  0.41833  0.96721  1.0000
  S   S395      1.0  0.42991  0.26132  0.88761  1.0000
  H   H2426     1.0  0.44192  0.33351  0.95851  1.0000
  P   P104      1.0  0.39400  0.36665  0.90498  1.0000
  H   H2427     1.0  0.32942  0.46325  0.92168  1.0000
  C   C3048     1.0  0.44569  0.39514  0.96605  1.0000
  C   C3049     1.0  0.31300  0.47975  0.92548  1.0000
  C   C3050     1.0  0.25512  0.39763  0.94996  1.0000
  C   C3051     1.0  0.39118  0.34054  0.91510  1.0000
  H   H2428     1.0  0.40921  0.45789  0.90943  1.0000
  C   C3052     1.0  0.39992  0.39225  0.95916  1.0000
  Fe  Fe196     1.0  0.24867  0.42698  0.90232  1.0000
  H   H2429     1.0  0.26484  0.39436  0.94408  1.0000
  H   H2430     1.0  0.36056  0.39950  0.97576  1.0000
  Fe  Fe197     1.0  0.27724  0.42942  0.89327  1.0000
  S   S396      1.0  0.27227  0.45132  0.89233  1.0000
  S   S397      1.0  0.29820  0.41853  0.88715  1.0000
  Fe  Fe198     1.0  0.25808  0.44622  0.91167  1.0000
  S   S398      1.0  0.25476  0.45715  0.92772  1.0000
  Fe  Fe199     1.0  0.25588  0.45182  0.88324  1.0000
  S   S399      1.0  0.26430  0.42415  0.91349  1.0000
  S   S400      1.0  0.26211  0.43037  0.88216  1.0000
  H   H2431     1.0  0.45181  0.25124  0.95999  1.0000
  C   C3053     1.0  0.44528  0.30093  0.85309  1.0000
  S   S401      1.0  0.43352  0.35011  0.91344  1.0000
  H   H2432     1.0  0.26965  0.38159  0.92039  1.0000
  H   H2433     1.0  0.39507  0.30775  0.96675  1.0000
  H   H2434     1.0  0.30950  0.42801  0.94915  1.0000
  H   H2435     1.0  0.38944  0.39636  0.96055  1.0000
  Fe  Fe200     1.0  0.35445  0.43464  0.90487  1.0000
  C   C3054     1.0  0.42729  0.43223  0.95414  1.0000
  S   S402      1.0  0.33625  0.42753  0.91758  1.0000
  Fe  Fe201     1.0  0.38105  0.43798  0.90629  1.0000
  S   S403      1.0  0.38596  0.44762  0.88465  1.0000
  S   S404      1.0  0.39623  0.43219  0.91862  1.0000
  Fe  Fe202     1.0  0.37813  0.43158  0.88191  1.0000
  S   S405      1.0  0.38873  0.41814  0.86772  1.0000
  Fe  Fe203     1.0  0.43893  0.24059  0.88409  1.0000
  S   S406      1.0  0.37452  0.42126  0.90337  1.0000
  H   H2436     1.0  0.25475  0.48149  0.88277  1.0000
  C   C3055     1.0  0.39200  0.44184  0.93047  1.0000
  C   C3056     1.0  0.38412  0.45467  0.92839  1.0000
  C   C3057     1.0  0.38026  0.46188  0.93845  1.0000
  C   C3058     1.0  0.38378  0.45599  0.95076  1.0000
  C   C3059     1.0  0.39142  0.44308  0.95285  1.0000
  C   C3060     1.0  0.39591  0.43622  0.94254  1.0000
  H   H2437     1.0  0.38109  0.45906  0.91902  1.0000
  C   C3061     1.0  0.25286  0.32604  0.92156  1.0000
  C   C3062     1.0  0.25305  0.38845  0.89069  1.0000
  H   H2438     1.0  0.40202  0.42637  0.94403  1.0000
  C   C3063     1.0  0.40554  0.41210  0.86814  1.0000
  C   C3064     1.0  0.41299  0.40180  0.86176  1.0000
  C   C3065     1.0  0.42655  0.39731  0.86142  1.0000
  C   C3066     1.0  0.43278  0.40333  0.86718  1.0000
  C   C3067     1.0  0.42536  0.41371  0.87348  1.0000
  C   C3068     1.0  0.41173  0.41791  0.87418  1.0000
  H   H2439     1.0  0.40830  0.39734  0.85698  1.0000
  H   H2440     1.0  0.43225  0.38943  0.85636  1.0000
  H   H2441     1.0  0.43011  0.41835  0.87801  1.0000
  H   H2442     1.0  0.40609  0.42577  0.87919  1.0000
  H   H2443     1.0  0.41942  0.37469  0.89299  1.0000
  H   H2444     1.0  0.32511  0.47586  0.89950  1.0000
  H   H2445     1.0  0.47509  0.26197  0.90298  1.0000
  S   S407      1.0  0.24989  0.46708  0.86579  1.0000
  H   H2446     1.0  0.42184  0.26440  0.97593  1.0000
  H   H2447     1.0  0.43731  0.37698  0.95502  1.0000
  C   C3069     1.0  0.44525  0.30454  0.86473  1.0000
  C   C3070     1.0  0.44613  0.33536  0.94794  1.0000
  H   H2448     1.0  0.45586  0.26427  0.93686  1.0000
  H   H2449     1.0  0.43623  0.37924  0.92308  1.0000
  C   C3071     1.0  0.26015  0.44652  0.94171  1.0000
  C   C3072     1.0  0.26910  0.43446  0.94067  1.0000
  C   C3073     1.0  0.27234  0.42543  0.95215  1.0000
  C   C3074     1.0  0.26671  0.42849  0.96467  1.0000
  C   C3075     1.0  0.25812  0.44079  0.96563  1.0000
  C   C3076     1.0  0.25494  0.44985  0.95413  1.0000
  H   H2450     1.0  0.27363  0.43212  0.93104  1.0000
  H   H2451     1.0  0.27907  0.41604  0.95135  1.0000
  C   C3077     1.0  0.32548  0.45733  0.95646  1.0000
  H   H2452     1.0  0.25660  0.31571  0.92579  1.0000
  C   C3078     1.0  0.30885  0.42062  0.89574  1.0000
  C   C3079     1.0  0.30427  0.42219  0.90890  1.0000
  C   C3080     1.0  0.31281  0.42409  0.91558  1.0000
  C   C3081     1.0  0.32582  0.42492  0.90901  1.0000
  C   C3082     1.0  0.33037  0.42342  0.89582  1.0000
  C   C3083     1.0  0.32196  0.42103  0.88928  1.0000
  H   H2453     1.0  0.29416  0.42188  0.91395  1.0000
  H   H2454     1.0  0.30924  0.42507  0.92580  1.0000
  H   H2455     1.0  0.34036  0.42406  0.89065  1.0000
  H   H2456     1.0  0.32552  0.41987  0.87908  1.0000
  S   S408      1.0  0.46963  0.32121  0.95437  1.0000
  C   C3084     1.0  0.26149  0.33379  0.91283  1.0000
  C   C3085     1.0  0.36639  0.41610  0.96105  1.0000
  C   C3086     1.0  0.30611  0.40077  0.96010  1.0000
  C   C3087     1.0  0.32612  0.47260  0.92484  1.0000
  C   C3088     1.0  0.34510  0.45865  0.96216  1.0000
  C   C3089     1.0  0.42133  0.44383  0.95894  1.0000
  C   C3090     1.0  0.30158  0.45877  0.90344  1.0000
  H   H2457     1.0  0.48158  0.31466  0.87784  1.0000
  C   C3091     1.0  0.41670  0.45415  0.87746  1.0000
  C   C3092     1.0  0.40107  0.33490  0.97219  1.0000
  H   H2458     1.0  0.39848  0.37350  0.95680  1.0000
  C   C3093     1.0  0.31732  0.39762  0.96540  1.0000
  H   H2459     1.0  0.42887  0.39129  0.89656  1.0000
  C   C3094     1.0  0.40500  0.37939  0.95699  1.0000
  C   C3095     1.0  0.32406  0.47292  0.96966  1.0000
  C   C3096     1.0  0.39486  0.24061  0.92425  1.0000
  S   S409      1.0  0.44981  0.39803  0.86653  1.0000
  H   H2460     1.0  0.47308  0.36977  0.96515  1.0000
  H   H2461     1.0  0.47165  0.36010  0.93703  1.0000
  H   H2462     1.0  0.37426  0.47185  0.93686  1.0000
  H   H2463     1.0  0.41926  0.28192  0.92511  1.0000
  C   C3097     1.0  0.45624  0.38549  0.96099  1.0000
  C   C3098     1.0  0.41851  0.37399  0.95545  1.0000
  H   H2464     1.0  0.29165  0.43356  0.96852  1.0000
  C   C3099     1.0  0.42298  0.43636  0.84199  1.0000
  C   C3100     1.0  0.44357  0.34380  0.92508  1.0000
  H   H2465     1.0  0.43140  0.42817  0.84055  1.0000
  C   C3101     1.0  0.41943  0.38956  0.90271  1.0000
  H   H2466     1.0  0.38746  0.24955  0.92197  1.0000
  C   C3102     1.0  0.40478  0.36849  0.86459  1.0000
  C   C3103     1.0  0.33895  0.45281  0.95617  1.0000
  C   C3104     1.0  0.36006  0.40548  0.96586  1.0000
  H   H2467     1.0  0.43176  0.47084  0.82642  1.0000
  H   H2468     1.0  0.40672  0.35592  0.92800  1.0000
  H   H2469     1.0  0.39209  0.46417  0.84963  1.0000
  C   C3105     1.0  0.46526  0.33362  0.92973  1.0000
  Fe  Fe204     1.0  0.44448  0.26784  0.86894  1.0000
  P   P105      1.0  0.41487  0.47184  0.85302  1.0000
  H   H2470     1.0  0.45963  0.40883  0.94132  1.0000
  C   C3106     1.0  0.35799  0.35370  0.95299  1.0000
  Fe  Fe205     1.0  0.44657  0.25766  0.89762  1.0000
  C   C3107     1.0  0.29337  0.44108  0.95944  1.0000
  C   C3108     1.0  0.28763  0.46360  0.94687  1.0000
  C   C3109     1.0  0.33770  0.46877  0.96880  1.0000
  C   C3110     1.0  0.43223  0.41281  0.92968  1.0000
  C   C3111     1.0  0.24390  0.39797  0.94578  1.0000
  H   H2471     1.0  0.39605  0.34468  0.97402  1.0000
  C   C3112     1.0  0.41814  0.34838  0.87514  1.0000
  C   C3113     1.0  0.24314  0.35285  0.91070  1.0000
  C   C3114     1.0  0.39960  0.44552  0.84386  1.0000
  C   C3115     1.0  0.30540  0.44758  0.93678  1.0000
  H   H2472     1.0  0.42929  0.31655  0.91028  1.0000
  C   C3116     1.0  0.48068  0.25319  0.92175  1.0000
  S   S410      1.0  0.46311  0.33771  0.88522  1.0000
  H   H2473     1.0  0.44207  0.29831  0.87430  1.0000
  S   S411      1.0  0.46059  0.26529  0.87914  1.0000
  C   C3117     1.0  0.44660  0.37858  0.92219  1.0000
  Fe  Fe206     1.0  0.46176  0.32618  0.97435  1.0000
  C   C3118     1.0  0.44886  0.25794  0.93999  1.0000
  C   C3119     1.0  0.35524  0.37491  0.95847  1.0000
  H   H2474     1.0  0.41061  0.24808  0.90925  1.0000
  C   C3120     1.0  0.48358  0.28214  0.87926  1.0000
  C   C3121     1.0  0.32484  0.46464  0.88605  1.0000
  C   C3122     1.0  0.41532  0.45077  0.89129  1.0000
  C   C3123     1.0  0.39857  0.37157  0.87704  1.0000
  C   C3124     1.0  0.42431  0.44753  0.84531  1.0000
  C   C3125     1.0  0.46680  0.36765  0.92981  1.0000
  H   H2475     1.0  0.43139  0.31426  0.97033  1.0000
  C   C3126     1.0  0.40311  0.27755  0.94153  1.0000
  C   C3127     1.0  0.43927  0.31113  0.90715  1.0000
  C   C3128     1.0  0.45645  0.30180  0.94056  1.0000
  P   P106      1.0  0.48184  0.28801  0.89400  1.0000
  C   C3129     1.0  0.31983  0.39608  0.93912  1.0000
  C   C3130     1.0  0.46238  0.27985  0.95404  1.0000
  H   H2476     1.0  0.32079  0.45293  0.95163  1.0000
  H   H2477     1.0  0.44811  0.36245  0.93929  1.0000
  C   C3131     1.0  0.42694  0.38146  0.95600  1.0000
  C   C3132     1.0  0.43711  0.41780  0.91619  1.0000
  C   C3133     1.0  0.44167  0.30078  0.90075  1.0000
  C   C3134     1.0  0.41329  0.45792  0.84771  1.0000
  C   C3135     1.0  0.47756  0.29044  0.86897  1.0000
  Fe  Fe207     1.0  0.45579  0.37572  0.87082  1.0000
  C   C3136     1.0  0.45725  0.34021  0.92065  1.0000
  H   H2478     1.0  0.40358  0.31525  0.93866  1.0000
  H   H2479     1.0  0.42753  0.24878  0.92807  1.0000
  H   H2480     1.0  0.41561  0.34511  0.89625  1.0000
  H   H2481     1.0  0.38772  0.36141  0.94757  1.0000
  H   H2482     1.0  0.44822  0.39439  0.90471  1.0000
  C   C3137     1.0  0.45016  0.41923  0.91172  1.0000
  C   C3138     1.0  0.45339  0.41095  0.93435  1.0000
  C   C3139     1.0  0.36898  0.37359  0.95486  1.0000
  S   S412      1.0  0.45180  0.24750  0.86431  1.0000
  C   C3140     1.0  0.41215  0.35155  0.88758  1.0000
  H   H2483     1.0  0.26246  0.40141  0.96496  1.0000
  H   H2484     1.0  0.48315  0.29472  0.96280  1.0000
  C   C3141     1.0  0.31987  0.46963  0.89763  1.0000
  Fe  Fe208     1.0  0.47776  0.23979  0.97714  1.0000
  S   S413      1.0  0.35742  0.44379  0.88301  1.0000
  H   H2485     1.0  0.26576  0.40214  0.88066  1.0000
  C   C3142     1.0  0.28555  0.45392  0.95862  1.0000
  H   H2486     1.0  0.40414  0.40953  0.96170  1.0000
  C   C3143     1.0  0.43684  0.24314  0.95743  1.0000
  H   H2487     1.0  0.41946  0.35457  0.85398  1.0000
  C   C3144     1.0  0.35949  0.42110  0.94030  1.0000
  C   C3145     1.0  0.40848  0.47736  0.87838  1.0000
  C   C3146     1.0  0.35308  0.40281  0.95798  1.0000
  H   H2488     1.0  0.44908  0.31912  0.87288  1.0000
  C   C3147     1.0  0.47972  0.26314  0.91021  1.0000
  S   S414      1.0  0.46004  0.36693  0.89102  1.0000
  C   C3148     1.0  0.41476  0.28714  0.95624  1.0000
  C   C3149     1.0  0.40210  0.36304  0.88869  1.0000
  C   C3150     1.0  0.44035  0.40929  0.93887  1.0000
  C   C3151     1.0  0.26884  0.39255  0.90039  1.0000
  H   H2489     1.0  0.34794  0.40878  0.93866  1.0000
  C   C3152     1.0  0.37714  0.36238  0.95035  1.0000
  C   C3153     1.0  0.29745  0.46040  0.93579  1.0000
  C   C3154     1.0  0.30833  0.46649  0.90658  1.0000
  C   C3155     1.0  0.41418  0.30937  0.96798  1.0000
  C   C3156     1.0  0.43800  0.34157  0.93878  1.0000
  C   C3157     1.0  0.42045  0.28702  0.94273  1.0000
  C   C3158     1.0  0.37695  0.37529  0.90564  1.0000
  C   C3159     1.0  0.37404  0.38867  0.89899  1.0000
  C   C3160     1.0  0.36097  0.39571  0.89978  1.0000
  C   C3161     1.0  0.35066  0.38957  0.90737  1.0000
  C   C3162     1.0  0.35343  0.37634  0.91422  1.0000
  C   C3163     1.0  0.36652  0.36921  0.91341  1.0000
  C   C3164     1.0  0.40172  0.37787  0.90839  1.0000
  C   C3165     1.0  0.39415  0.32670  0.97017  1.0000
  C   C3166     1.0  0.42503  0.41986  0.96205  1.0000
  C   C3167     1.0  0.41253  0.39694  0.91238  1.0000
  C   C3168     1.0  0.40035  0.39466  0.92024  1.0000
  C   C3169     1.0  0.39497  0.38511  0.91831  1.0000
  C   C3170     1.0  0.45331  0.36903  0.93125  1.0000
  H   H2490     1.0  0.38611  0.34224  0.90716  1.0000
  H   H2491     1.0  0.42748  0.34456  0.94229  1.0000
  H   H2492     1.0  0.35888  0.40599  0.89454  1.0000
  H   H2493     1.0  0.34055  0.39513  0.90793  1.0000
  H   H2494     1.0  0.34541  0.37162  0.92014  1.0000
  H   H2495     1.0  0.36838  0.35908  0.91895  1.0000
  H   H2496     1.0  0.39395  0.43843  0.96238  1.0000
  C   C3171     1.0  0.30332  0.43792  0.94853  1.0000
  C   C3172     1.0  0.40111  0.32522  0.93279  1.0000
  H   H2497     1.0  0.41648  0.40458  0.91365  1.0000
  H   H2498     1.0  0.39492  0.40061  0.92753  1.0000
  H   H2499     1.0  0.38537  0.38370  0.92424  1.0000
  H   H2500     1.0  0.42959  0.29021  0.93780  1.0000
  C   C3173     1.0  0.41659  0.41941  0.97467  1.0000
  H   H2501     1.0  0.48243  0.39838  0.95323  1.0000
  H   H2502     1.0  0.35558  0.45526  0.96181  1.0000
  H   H2503     1.0  0.31606  0.39839  0.97556  1.0000
  C   C3174     1.0  0.46278  0.30761  0.90548  1.0000
  H   H2504     1.0  0.32080  0.39581  0.92884  1.0000
  H   H2505     1.0  0.34062  0.38997  0.93808  1.0000
  S   S415      1.0  0.37855  0.46472  0.96353  1.0000
  C   C3175     1.0  0.41450  0.35688  0.86364  1.0000
  H   H2506     1.0  0.44789  0.32246  0.91451  1.0000
  H   H2507     1.0  0.47080  0.31037  0.90748  1.0000
  C   C3176     1.0  0.33506  0.47737  0.92848  1.0000
  C   C3177     1.0  0.26506  0.38342  0.91208  1.0000
  H   H2508     1.0  0.28162  0.47356  0.94649  1.0000
  H   H2509     1.0  0.47461  0.29286  0.84927  1.0000
  S   S416      1.0  0.44010  0.28661  0.85340  1.0000
  H   H2510     1.0  0.45936  0.30996  0.93280  1.0000
  C   C3178     1.0  0.39386  0.32778  0.92307  1.0000
  H   H2511     1.0  0.27632  0.39784  0.89961  1.0000
  H   H2512     1.0  0.34263  0.47326  0.97331  1.0000
  H   H2513     1.0  0.37794  0.34383  0.94582  1.0000
  C   C3179     1.0  0.25378  0.40171  0.96164  1.0000
  C   C3180     1.0  0.42102  0.31768  0.97007  1.0000
  H   H2514     1.0  0.24523  0.35170  0.88508  1.0000
  H   H2515     1.0  0.39070  0.31978  0.92140  1.0000
  C   C3181     1.0  0.39561  0.35090  0.91687  1.0000
  C   C3182     1.0  0.36606  0.42392  0.94830  1.0000
  H   H2516     1.0  0.43358  0.43305  0.94427  1.0000
  C   C3183     1.0  0.44921  0.28064  0.96071  1.0000
  H   H2517     1.0  0.33403  0.46663  0.87950  1.0000
  H   H2518     1.0  0.27471  0.47039  0.92447  1.0000
  S   S417      1.0  0.44540  0.26646  0.91467  1.0000
  C   C3184     1.0  0.40791  0.23982  0.91711  1.0000
  Fe  Fe209     1.0  0.44691  0.35352  0.89321  1.0000
  H   H2519     1.0  0.43603  0.31155  0.94440  1.0000
  H   H2520     1.0  0.26348  0.35300  0.90058  1.0000
  H   H2521     1.0  0.42026  0.44626  0.87206  1.0000
  H   H2522     1.0  0.24822  0.45931  0.95490  1.0000
  C   C3185     1.0  0.41402  0.38011  0.90068  1.0000
  H   H2523     1.0  0.42200  0.41201  0.93295  1.0000
  P   P107      1.0  0.42257  0.29271  0.96592  1.0000
  C   C3186     1.0  0.45970  0.33100  0.94336  1.0000
  C   C3187     1.0  0.41049  0.46062  0.89868  1.0000
  C   C3188     1.0  0.43959  0.29209  0.95750  1.0000
  H   H2524     1.0  0.29259  0.45630  0.91009  1.0000
  C   C3189     1.0  0.39734  0.27767  0.95493  1.0000
  H   H2525     1.0  0.44908  0.30652  0.83169  1.0000
  S   S418      1.0  0.44130  0.36337  0.87361  1.0000
  C   C3190     1.0  0.44327  0.30267  0.94727  1.0000
  C   C3191     1.0  0.45460  0.29396  0.89659  1.0000
  C   C3192     1.0  0.40834  0.39972  0.95978  1.0000
  H   H2526     1.0  0.31338  0.44512  0.92854  1.0000
  S   S419      1.0  0.47332  0.36192  0.86106  1.0000
  C   C3193     1.0  0.40087  0.45671  0.84718  1.0000
  Fe  Fe210     1.0  0.45892  0.34873  0.86533  1.0000
  Fe  Fe211     1.0  0.46674  0.24454  0.87632  1.0000
  H   H2527     1.0  0.32195  0.45302  0.87407  1.0000
  H   H2528     1.0  0.35374  0.34600  0.95225  1.0000
  C   C3194     1.0  0.45830  0.41579  0.92080  1.0000
  C   C3195     1.0  0.40066  0.31398  0.96810  1.0000
  S   S420      1.0  0.36052  0.45047  0.91021  1.0000
  C   C3196     1.0  0.35302  0.41061  0.94509  1.0000
  H   H2529     1.0  0.28484  0.47380  0.87019  1.0000
  Fe  Fe212     1.0  0.36491  0.45882  0.88819  1.0000
  H   H2530     1.0  0.40214  0.37520  0.85563  1.0000
  H   H2531     1.0  0.47682  0.24450  0.92324  1.0000
  C   C3197     1.0  0.31808  0.45696  0.88301  1.0000
  C   C3198     1.0  0.44234  0.25694  0.93086  1.0000
  C   C3199     1.0  0.40312  0.28248  0.96227  1.0000
  H   H2532     1.0  0.34461  0.44490  0.95114  1.0000
  S   S421      1.0  0.45434  0.23652  0.89585  1.0000
  C   C3200     1.0  0.41064  0.43541  0.84117  1.0000
  C   C3201     1.0  0.42199  0.39445  0.95799  1.0000
  H   H2533     1.0  0.45735  0.38388  0.95117  1.0000
  C   C3202     1.0  0.45336  0.38710  0.91188  1.0000
  C   C3203     1.0  0.40273  0.34827  0.92677  1.0000
  H   H2534     1.0  0.45622  0.28585  0.89187  1.0000
  C   C3204     1.0  0.24126  0.40651  0.96894  1.0000
  S   S422      1.0  0.45995  0.34739  0.97378  1.0000
  P   P108      1.0  0.43333  0.40462  0.95646  1.0000
  H   H2535     1.0  0.30114  0.44825  0.88920  1.0000
  H   H2536     1.0  0.42245  0.36387  0.95423  1.0000
  C   C3205     1.0  0.40711  0.47390  0.89223  1.0000
  H   H2537     1.0  0.38188  0.39378  0.89328  1.0000
  C   C3206     1.0  0.46526  0.29738  0.89879  1.0000
  H   H2538     1.0  0.29876  0.40264  0.94275  1.0000
  C   C3207     1.0  0.42982  0.24265  0.94847  1.0000
  H   H2539     1.0  0.41761  0.44044  0.89633  1.0000
  C   C3208     1.0  0.31812  0.46762  0.96284  1.0000
  H   H2540     1.0  0.37070  0.43231  0.94468  1.0000
  H   H2541     1.0  0.39885  0.27354  0.93590  1.0000
  S   S423      1.0  0.45908  0.33879  0.84927  1.0000
  H   H2542     1.0  0.43356  0.29789  0.89908  1.0000
  H   H2543     1.0  0.43387  0.44782  0.84637  1.0000
  H   H2544     1.0  0.39120  0.38068  0.87741  1.0000
  C   C3209     1.0  0.40551  0.33546  0.93465  1.0000
  C   C3210     1.0  0.24232  0.46823  0.83118  1.0000
  H   H2545     1.0  0.25382  0.44334  0.97520  1.0000
  H   H2546     1.0  0.33924  0.36561  0.96044  1.0000
  C   C3211     1.0  0.30637  0.45419  0.89161  1.0000
  H   H2547     1.0  0.46171  0.34197  0.91017  1.0000
  C   C3212     1.0  0.44912  0.31634  0.86391  1.0000
  C   C3213     1.0  0.44981  0.31447  0.90955  1.0000
  H   H2548     1.0  0.40862  0.45213  0.97547  1.0000
  C   C3214     1.0  0.41316  0.46747  0.87090  1.0000
  H   H2549     1.0  0.38995  0.44437  0.84387  1.0000
  H   H2550     1.0  0.43073  0.42058  0.90921  1.0000
  H   H2551     1.0  0.40952  0.42654  0.83907  1.0000
  C   C3215     1.0  0.43285  0.24923  0.93505  1.0000
  H   H2552     1.0  0.42596  0.33958  0.87432  1.0000
  H   H2553     1.0  0.41148  0.33339  0.94189  1.0000
  C   C3216     1.0  0.45334  0.32431  0.85140  1.0000
  H   H2554     1.0  0.25897  0.45164  0.83013  1.0000
  C   C3217     1.0  0.44642  0.25072  0.95314  1.0000
  P   P109      1.0  0.30143  0.47320  0.92136  1.0000
  S   S424      1.0  0.27051  0.41697  0.97903  1.0000
  C   C3218     1.0  0.45556  0.48187  0.83248  1.0000
  C   C3219     1.0  0.44916  0.30913  0.84072  1.0000
  H   H2555     1.0  0.37341  0.38119  0.95550  1.0000
  H   H2556     1.0  0.47573  0.33026  0.92611  1.0000
  P   P110      1.0  0.34454  0.38934  0.96422  1.0000
  H   H2557     1.0  0.27780  0.45634  0.96707  1.0000
  H   H2558     1.0  0.46978  0.27101  0.95665  1.0000
  H   H2559     1.0  0.45354  0.47615  0.81553  1.0000
  H   H2560     1.0  0.46837  0.41699  0.91734  1.0000
  C   C3220     1.0  0.26289  0.39500  0.88969  1.0000
  Fe  Fe213     1.0  0.47606  0.35185  0.88183  1.0000
  H   H2561     1.0  0.34517  0.47185  0.92796  1.0000
  H   H2562     1.0  0.27195  0.32946  0.91028  1.0000
  C   C3221     1.0  0.47381  0.37581  0.91914  1.0000
  C   C3222     1.0  0.43672  0.47426  0.83189  1.0000
  C   C3223     1.0  0.43089  0.47560  0.84508  1.0000
  C   C3224     1.0  0.41333  0.44315  0.97175  1.0000
  C   C3225     1.0  0.47961  0.28652  0.85702  1.0000
  H   H2563     1.0  0.45647  0.32672  0.83018  1.0000
  C   C3226     1.0  0.33104  0.39285  0.94439  1.0000
  H   H2564     1.0  0.42281  0.45337  0.95273  1.0000
  H   H2565     1.0  0.36475  0.47604  0.90541  1.0000
  C   C3227     1.0  0.34981  0.36484  0.95759  1.0000
  C   C3228     1.0  0.24379  0.44756  0.84768  1.0000
  C   C3229     1.0  0.46685  0.38594  0.91054  1.0000
  H   H2566     1.0  0.35920  0.42713  0.93042  1.0000
  C   C3230     1.0  0.30738  0.40001  0.94696  1.0000
  C   C3231     1.0  0.32989  0.39362  0.95758  1.0000
  C   C3232     1.0  0.37164  0.35248  0.94937  1.0000
  H   H2567     1.0  0.47612  0.28991  0.93884  1.0000
  C   C3233     1.0  0.43747  0.48024  0.85184  1.0000
  H   H2568     1.0  0.44657  0.27225  0.96827  1.0000
  H   H2569     1.0  0.42206  0.23726  0.95189  1.0000
  C   C3234     1.0  0.41109  0.43091  0.97962  1.0000
  H   H2570     1.0  0.45395  0.42298  0.90123  1.0000
  C   C3235     1.0  0.41459  0.28230  0.93543  1.0000
  H   H2571     1.0  0.38854  0.27380  0.95971  1.0000
  C   C3236     1.0  0.46597  0.29046  0.94398  1.0000
  H   H2572     1.0  0.41976  0.33669  0.97399  1.0000
  H   H2573     1.0  0.47125  0.29995  0.87020  1.0000
  C   C3237     1.0  0.45332  0.32061  0.83987  1.0000
  C   C3238     1.0  0.41448  0.33039  0.97215  1.0000
  H   H2574     1.0  0.39867  0.28230  0.97271  1.0000
  H   H2575     1.0  0.47185  0.39277  0.90261  1.0000
  H   H2576     1.0  0.35480  0.47876  0.85217  1.0000
  H   H2577     1.0  0.30774  0.47120  0.96273  1.0000
  H   H2578     1.0  0.48362  0.37918  0.94428  1.0000
  C   C3239     1.0  0.25533  0.37672  0.91307  1.0000
  S   S425      1.0  0.43388  0.23418  0.97395  1.0000
  C   C3240     1.0  0.44903  0.47735  0.82565  1.0000
  C   C3241     1.0  0.48599  0.25480  0.93154  1.0000
  C   C3242     1.0  0.25429  0.48233  0.86254  1.0000
  C   C3243     1.0  0.24927  0.45542  0.83574  1.0000
  H   H2579     1.0  0.25717  0.47303  0.97821  1.0000
  H   H2580     1.0  0.29643  0.40395  0.96615  1.0000
  H   H2581     1.0  0.24489  0.39508  0.93656  1.0000
  C   C3244     1.0  0.25667  0.34714  0.90740  1.0000
  H   H2582     1.0  0.24924  0.43770  0.85133  1.0000
  C   C3245     1.0  0.46522  0.37755  0.96879  1.0000
  C   C3246     1.0  0.24916  0.37924  0.90241  1.0000
  H   H2583     1.0  0.25264  0.36956  0.92215  1.0000
  H   H2584     1.0  0.24144  0.35439  0.86275  1.0000
  H   H2585     1.0  0.24851  0.39077  0.88230  1.0000
  S   S426      1.0  0.24117  0.44856  0.90247  1.0000
  H   H2586     1.0  0.24660  0.47435  0.82197  1.0000
  H   H2587     1.0  0.23871  0.43525  0.94023  1.0000
  H   H2588     1.0  0.43319  0.48142  0.86197  1.0000
  C   C3247     1.0  0.48415  0.27473  0.90834  1.0000
  H   H2589     1.0  0.23682  0.42356  0.88091  1.0000
  C   C3248     1.0  0.44435  0.39655  0.97908  1.0000
  H   H2590     1.0  0.48493  0.31353  0.85349  1.0000
  H   H2591     1.0  0.48521  0.23834  0.89512  1.0000
  C   C3249     1.0  0.23959  0.36104  0.88054  1.0000
  P   P111      1.0  0.23700  0.37007  0.90356  1.0000
  H   H2592     1.0  0.24062  0.41008  0.97764  1.0000
  H   H2593     1.0  0.30054  0.47907  0.84868  1.0000
  C   C3250     1.0  0.23937  0.33163  0.92481  1.0000
  S   S427      1.0  0.35923  0.48073  0.87929  1.0000
  H   H2594     1.0  0.48549  0.37590  0.89147  1.0000
  C   C3251     1.0  0.27506  0.48066  0.91994  1.0000
  H   H2595     1.0  0.38688  0.48051  0.86509  1.0000
  H   H2596     1.0  0.40330  0.48147  0.89805  1.0000
  C   C3252     1.0  0.29052  0.48118  0.86862  1.0000
  C   C3253     1.0  0.23745  0.36253  0.86785  1.0000
  S   S428      1.0  0.44920  0.72447  0.05186  1.0000
  H   H2597     1.0  0.31988  0.53444  0.98967  1.0000
  H   H2598     1.0  0.24118  0.59468  0.99164  1.0000
  C   C3254     1.0  0.40665  0.52024  0.98443  1.0000
  H   H2599     1.0  0.37416  0.60575  0.98479  1.0000
  H   H2600     1.0  0.40911  0.51520  0.99398  1.0000
  Fe  Fe214     1.0  0.44251  0.60375  0.02254  1.0000
  S   S429      1.0  0.42480  0.61299  0.03657  1.0000
  S   S430      1.0  0.45657  0.58450  0.02880  1.0000
  Fe  Fe215     1.0  0.43696  0.62534  0.99864  1.0000
  S   S431      1.0  0.41916  0.63660  0.01055  1.0000
  C   C3255     1.0  0.47615  0.57516  0.04256  1.0000
  Fe  Fe216     1.0  0.43130  0.63215  0.02578  1.0000
  S   S432      1.0  0.43581  0.64624  0.03543  1.0000
  Fe  Fe217     1.0  0.41407  0.61661  0.02008  1.0000
  S   S433      1.0  0.39310  0.61586  0.02040  1.0000
  S   S434      1.0  0.44965  0.62246  0.01286  1.0000
  S   S435      1.0  0.43126  0.60570  0.00711  1.0000
  Fe  Fe218     1.0  0.35498  0.54268  0.99898  1.0000
  S   S436      1.0  0.34916  0.54465  0.02024  1.0000
  S   S437      1.0  0.36317  0.52410  0.99086  1.0000
  C   C3256     1.0  0.48183  0.65992  0.01246  1.0000
  S   S438      1.0  0.34102  0.57691  0.00878  1.0000
  C   C3257     1.0  0.29768  0.55915  0.00851  1.0000
  Fe  Fe219     1.0  0.35928  0.56193  0.01308  1.0000
  S   S439      1.0  0.37406  0.56371  0.02366  1.0000
  Fe  Fe220     1.0  0.33147  0.55946  0.01397  1.0000
  S   S440      1.0  0.31121  0.55933  0.02723  1.0000
  S   S441      1.0  0.36666  0.55855  0.99224  1.0000
  S   S442      1.0  0.33662  0.55632  0.99321  1.0000
  Fe  Fe221     1.0  0.41770  0.72268  0.02677  1.0000
  S   S443      1.0  0.43962  0.71627  0.02242  1.0000
  S   S444      1.0  0.40599  0.70708  0.02990  1.0000
  C   C3258     1.0  0.32405  0.49964  0.04620  1.0000
  H   H2601     1.0  0.26224  0.53385  0.06947  1.0000
  H   H2602     1.0  0.33299  0.48466  0.02362  1.0000
  P   P112      1.0  0.41213  0.68557  0.98385  1.0000
  C   C3259     1.0  0.36184  0.50836  0.00112  1.0000
  C   C3260     1.0  0.35703  0.50648  0.01494  1.0000
  H   H2603     1.0  0.46696  0.70812  0.00849  1.0000
  C   C3261     1.0  0.39811  0.63387  0.98162  1.0000
  C   C3262     1.0  0.47234  0.72913  0.03420  1.0000
  H   H2604     1.0  0.35402  0.51486  0.01964  1.0000
  C   C3263     1.0  0.46914  0.69180  0.06593  1.0000
  C   C3264     1.0  0.28902  0.49095  0.99440  1.0000
  C   C3265     1.0  0.29711  0.56075  0.02126  1.0000
  H   H2605     1.0  0.35262  0.49221  0.03337  1.0000
  C   C3266     1.0  0.44159  0.68760  0.99975  1.0000
  H   H2606     1.0  0.48123  0.62291  0.01804  1.0000
  H   H2607     1.0  0.30713  0.55692  0.00181  1.0000
  C   C3267     1.0  0.38819  0.60125  0.02091  1.0000
  C   C3268     1.0  0.37586  0.60239  0.01825  1.0000
  C   C3269     1.0  0.37159  0.59103  0.01855  1.0000
  C   C3270     1.0  0.37946  0.57838  0.02191  1.0000
  C   C3271     1.0  0.39174  0.57724  0.02468  1.0000
  C   C3272     1.0  0.39620  0.58860  0.02397  1.0000
  H   H2608     1.0  0.36958  0.61211  0.01592  1.0000
  H   H2609     1.0  0.36207  0.59205  0.01654  1.0000
  H   H2610     1.0  0.39775  0.56748  0.02754  1.0000
  H   H2611     1.0  0.40566  0.58757  0.02613  1.0000
  C   C3273     1.0  0.42728  0.66303  0.03410  1.0000
  C   C3274     1.0  0.41460  0.66731  0.03160  1.0000
  C   C3275     1.0  0.40810  0.68078  0.03051  1.0000
  C   C3276     1.0  0.41429  0.69011  0.03176  1.0000
  C   C3277     1.0  0.42685  0.68571  0.03462  1.0000
  C   C3278     1.0  0.43327  0.67224  0.03586  1.0000
  H   H2612     1.0  0.40972  0.66014  0.03084  1.0000
  H   H2613     1.0  0.39823  0.68397  0.02873  1.0000
  H   H2614     1.0  0.43151  0.69260  0.03621  1.0000
  H   H2615     1.0  0.44294  0.66895  0.03814  1.0000
  C   C3279     1.0  0.27362  0.56411  0.01292  1.0000
  H   H2616     1.0  0.28633  0.55963  0.99451  1.0000
  H   H2617     1.0  0.24561  0.54861  0.05680  1.0000
  C   C3280     1.0  0.48480  0.72633  0.05476  1.0000
  H   H2618     1.0  0.46751  0.73018  0.02628  1.0000
  H   H2619     1.0  0.42636  0.70142  0.99078  1.0000
  H   H2620     1.0  0.24002  0.51226  0.99877  1.0000
  H   H2621     1.0  0.32366  0.50554  0.98601  1.0000
  C   C3281     1.0  0.46547  0.72651  0.04751  1.0000
  C   C3282     1.0  0.47172  0.72517  0.05774  1.0000
  C   C3283     1.0  0.28743  0.52183  0.00491  1.0000
  H   H2622     1.0  0.45208  0.70288  0.07724  1.0000
  H   H2623     1.0  0.47293  0.59183  0.07906  1.0000
  H   H2624     1.0  0.25388  0.48895  0.03076  1.0000
  C   C3284     1.0  0.44242  0.56842  0.98323  1.0000
  Fe  Fe222     1.0  0.25090  0.55696  0.99804  1.0000
  H   H2625     1.0  0.44424  0.60591  0.98105  1.0000
  C   C3285     1.0  0.47822  0.59510  0.02549  1.0000
  C   C3286     1.0  0.47112  0.58526  0.03265  1.0000
  P   P113      1.0  0.41825  0.56190  0.98621  1.0000
  H   H2626     1.0  0.33159  0.50488  0.00561  1.0000
  C   C3287     1.0  0.47200  0.70199  0.01627  1.0000
  H   H2627     1.0  0.47435  0.60292  0.01783  1.0000
  H   H2628     1.0  0.42862  0.66005  0.99381  1.0000
  C   C3288     1.0  0.27654  0.52606  0.03908  1.0000
  H   H2629     1.0  0.45563  0.67157  0.00868  1.0000
  C   C3289     1.0  0.48565  0.72997  0.03120  1.0000
  H   H2630     1.0  0.46502  0.69509  0.05714  1.0000
  C   C3290     1.0  0.27465  0.52583  0.05267  1.0000
  C   C3291     1.0  0.26710  0.53451  0.03202  1.0000
  C   C3292     1.0  0.29529  0.52186  0.01334  1.0000
  C   C3293     1.0  0.31283  0.50078  0.04157  1.0000
  H   H2631     1.0  0.32092  0.53217  0.04570  1.0000
  H   H2632     1.0  0.33585  0.51011  0.05096  1.0000
  C   C3294     1.0  0.24377  0.50381  0.99416  1.0000
  C   C3295     1.0  0.27320  0.56580  0.02552  1.0000
  S   S445      1.0  0.24667  0.53682  0.00815  1.0000
  Fe  Fe223     1.0  0.34777  0.57236  0.98839  1.0000
  C   C3296     1.0  0.48156  0.63317  0.01652  1.0000
  C   C3297     1.0  0.46171  0.69631  0.07740  1.0000
  C   C3298     1.0  0.34597  0.63938  0.98659  1.0000
  H   H2633     1.0  0.31093  0.49196  0.04020  1.0000
  C   C3299     1.0  0.28682  0.49925  0.03365  1.0000
  C   C3300     1.0  0.32984  0.48477  0.01487  1.0000
  C   C3301     1.0  0.48590  0.65285  0.06486  1.0000
  C   C3302     1.0  0.30299  0.53070  0.98563  1.0000
  C   C3303     1.0  0.38497  0.66418  0.98738  1.0000
  H   H2634     1.0  0.45825  0.68913  0.02415  1.0000
  H   H2635     1.0  0.24880  0.54910  0.03285  1.0000
  C   C3304     1.0  0.47149  0.60371  0.98181  1.0000
  S   S446      1.0  0.45195  0.73278  0.98538  1.0000
  H   H2636     1.0  0.46786  0.63565  0.03510  1.0000
  C   C3305     1.0  0.30729  0.52447  0.04029  1.0000
  C   C3306     1.0  0.27729  0.48778  0.00263  1.0000
  H   H2637     1.0  0.28427  0.56505  0.03962  1.0000
  C   C3307     1.0  0.36577  0.49742  0.99515  1.0000
  C   C3308     1.0  0.30635  0.59368  0.00459  1.0000
  H   H2638     1.0  0.33064  0.49005  0.04836  1.0000
  H   H2639     1.0  0.38793  0.53156  0.99306  1.0000
  C   C3309     1.0  0.31080  0.53091  0.99391  1.0000
  H   H2640     1.0  0.30172  0.49377  0.01668  1.0000
  H   H2641     1.0  0.47069  0.56760  0.04820  1.0000
  H   H2642     1.0  0.30106  0.53422  0.03777  1.0000
  C   C3310     1.0  0.25592  0.54245  0.03846  1.0000
  H   H2643     1.0  0.47988  0.58398  0.10067  1.0000
  C   C3311     1.0  0.47324  0.68382  0.03550  1.0000
  C   C3312     1.0  0.25416  0.54222  0.05194  1.0000
  C   C3313     1.0  0.39360  0.57558  0.98098  1.0000
  H   H2644     1.0  0.38120  0.62741  0.98150  1.0000
  C   C3314     1.0  0.32698  0.51093  0.04770  1.0000
  C   C3315     1.0  0.35622  0.49367  0.02270  1.0000
  C   C3316     1.0  0.28591  0.56063  0.00441  1.0000
  C   C3317     1.0  0.36472  0.48472  0.00284  1.0000
  H   H2645     1.0  0.31325  0.52690  0.01381  1.0000
  H   H2646     1.0  0.46107  0.69637  0.09764  1.0000
  H   H2647     1.0  0.28502  0.52646  0.98469  1.0000
  H   H2648     1.0  0.40442  0.66928  0.01019  1.0000
  C   C3318     1.0  0.29119  0.52642  0.99113  1.0000
  H   H2649     1.0  0.27703  0.59393  0.99887  1.0000
  H   H2650     1.0  0.26982  0.49522  0.00724  1.0000
  H   H2651     1.0  0.39367  0.60685  0.99205  1.0000
  H   H2652     1.0  0.28765  0.59078  0.01732  1.0000
  H   H2653     1.0  0.28178  0.51941  0.05835  1.0000
  C   C3319     1.0  0.43077  0.69104  0.99384  1.0000
  C   C3320     1.0  0.40190  0.70162  0.98592  1.0000
  H   H2654     1.0  0.46526  0.61176  0.98645  1.0000
  C   C3321     1.0  0.26354  0.53393  0.05904  1.0000
  C   C3322     1.0  0.42570  0.68115  0.99205  1.0000
  C   C3323     1.0  0.46682  0.69270  0.08884  1.0000
  C   C3324     1.0  0.39106  0.71753  0.00001  1.0000
  C   C3325     1.0  0.39917  0.70525  0.99818  1.0000
  C   C3326     1.0  0.40440  0.57596  0.98557  1.0000
  H   H2655     1.0  0.26499  0.58632  0.98433  1.0000
  C   C3327     1.0  0.32895  0.49620  0.00473  1.0000
  H   H2656     1.0  0.48581  0.54553  0.03238  1.0000
  H   H2657     1.0  0.46644  0.72320  0.06801  1.0000
  C   C3328     1.0  0.47938  0.68452  0.08882  1.0000
  P   P114      1.0  0.29072  0.51521  0.03108  1.0000
  C   C3329     1.0  0.44755  0.67426  0.00370  1.0000
  C   C3330     1.0  0.44283  0.66437  0.00155  1.0000
  C   C3331     1.0  0.43203  0.66780  0.99560  1.0000
  C   C3332     1.0  0.29312  0.59315  0.00712  1.0000
  Fe  Fe224     1.0  0.25240  0.53312  0.98748  1.0000
  C   C3333     1.0  0.27684  0.49505  0.04435  1.0000
  H   H2658     1.0  0.34209  0.64519  0.99418  1.0000
  C   C3334     1.0  0.48174  0.68351  0.06585  1.0000
  C   C3335     1.0  0.24357  0.48988  0.03116  1.0000
  S   S447      1.0  0.25852  0.56852  0.00781  1.0000
  H   H2659     1.0  0.29062  0.50074  0.99301  1.0000
  C   C3336     1.0  0.38336  0.65738  0.00073  1.0000
  C   C3337     1.0  0.39035  0.65929  0.00893  1.0000
  C   C3338     1.0  0.39915  0.66778  0.00374  1.0000
  C   C3339     1.0  0.32471  0.49642  0.99347  1.0000
  H   H2660     1.0  0.37953  0.66272  0.98102  1.0000
  H   H2661     1.0  0.32387  0.59646  0.98949  1.0000
  H   H2662     1.0  0.40344  0.69869  0.00631  1.0000
  H   H2663     1.0  0.33181  0.62694  0.99509  1.0000
  C   C3340     1.0  0.39477  0.52955  0.98392  1.0000
  C   C3341     1.0  0.47405  0.64035  0.02617  1.0000
  H   H2664     1.0  0.48084  0.63398  0.07501  1.0000
  H   H2665     1.0  0.44732  0.65401  0.00484  1.0000
  C   C3342     1.0  0.40446  0.58753  0.98917  1.0000
  H   H2666     1.0  0.44516  0.69530  0.00150  1.0000
  C   C3343     1.0  0.25600  0.50246  0.98518  1.0000
  C   C3344     1.0  0.28711  0.59500  0.99657  1.0000
  C   C3345     1.0  0.29408  0.49071  0.02506  1.0000
  H   H2667     1.0  0.47270  0.58974  0.00048  1.0000
  C   C3346     1.0  0.32167  0.48504  0.99217  1.0000
  C   C3347     1.0  0.24202  0.61524  0.98313  1.0000
  H   H2668     1.0  0.37679  0.65055  0.00474  1.0000
  H   H2669     1.0  0.38911  0.65403  0.01930  1.0000
  H   H2670     1.0  0.31109  0.59170  0.01283  1.0000
  H   H2671     1.0  0.46035  0.57460  0.98100  1.0000
  H   H2672     1.0  0.27842  0.51819  0.00894  1.0000
  C   C3348     1.0  0.31858  0.52333  0.04478  1.0000
  C   C3349     1.0  0.30440  0.51323  0.03852  1.0000
  C   C3350     1.0  0.47433  0.65365  0.02422  1.0000
  C   C3351     1.0  0.39369  0.59827  0.98868  1.0000
  C   C3352     1.0  0.31355  0.59630  0.99145  1.0000
  C   C3353     1.0  0.41385  0.54728  0.99802  1.0000
  C   C3354     1.0  0.30696  0.52657  0.00771  1.0000
  H   H2673     1.0  0.46845  0.65914  0.03174  1.0000
  C   C3355     1.0  0.46708  0.69133  0.02511  1.0000
  H   H2674     1.0  0.26839  0.53527  0.02149  1.0000
  C   C3356     1.0  0.48451  0.68679  0.03698  1.0000
  H   H2675     1.0  0.46978  0.65735  0.98723  1.0000
  C   C3357     1.0  0.42384  0.53640  0.00178  1.0000
  C   C3358     1.0  0.42066  0.52531  0.01149  1.0000
  C   C3359     1.0  0.40747  0.52506  0.01760  1.0000
  C   C3360     1.0  0.39750  0.53585  0.01394  1.0000
  C   C3361     1.0  0.40067  0.54690  0.00419  1.0000
  C   C3362     1.0  0.43067  0.56566  0.99196  1.0000
  C   C3363     1.0  0.42833  0.56622  0.00539  1.0000
  C   C3364     1.0  0.43748  0.56974  0.00998  1.0000
  C   C3365     1.0  0.44906  0.57267  0.00120  1.0000
  C   C3366     1.0  0.48039  0.70654  0.98327  1.0000
  C   C3367     1.0  0.39382  0.67262  0.98216  1.0000
  C   C3368     1.0  0.47564  0.59129  0.98970  1.0000
  H   H2676     1.0  0.38932  0.72033  0.00945  1.0000
  C   C3369     1.0  0.45154  0.57200  0.98785  1.0000
  H   H2677     1.0  0.26380  0.56876  0.03205  1.0000
  H   H2678     1.0  0.41265  0.58835  0.99257  1.0000
  C   C3370     1.0  0.48325  0.70497  0.01763  1.0000
  H   H2679     1.0  0.27108  0.50139  0.05116  1.0000
  C   C3371     1.0  0.28482  0.56378  0.02979  1.0000
  Fe  Fe225     1.0  0.43881  0.73002  0.03506  1.0000
  H   H2680     1.0  0.46898  0.67595  0.04263  1.0000
  H   H2681     1.0  0.43411  0.53661  0.99736  1.0000
  H   H2682     1.0  0.42839  0.51701  0.01446  1.0000
  H   H2683     1.0  0.40495  0.51659  0.02527  1.0000
  H   H2684     1.0  0.38726  0.53585  0.01885  1.0000
  H   H2685     1.0  0.39275  0.55521  0.00182  1.0000
  H   H2686     1.0  0.41926  0.56427  0.01226  1.0000
  H   H2687     1.0  0.43548  0.57052  0.02028  1.0000
  H   H2688     1.0  0.45595  0.57565  0.00480  1.0000
  C   C3372     1.0  0.48359  0.58091  0.98369  1.0000
  C   C3373     1.0  0.40119  0.67424  0.99028  1.0000
  C   C3374     1.0  0.24099  0.48323  0.99127  1.0000
  C   C3375     1.0  0.29427  0.59768  0.98333  1.0000
  C   C3376     1.0  0.34017  0.62910  0.98712  1.0000
  H   H2689     1.0  0.39798  0.62916  0.99203  1.0000
  H   H2690     1.0  0.36958  0.49877  0.98451  1.0000
  C   C3377     1.0  0.24741  0.60162  0.98600  1.0000
  H   H2691     1.0  0.48166  0.67032  0.01105  1.0000
  H   H2692     1.0  0.42736  0.72493  0.99023  1.0000
  C   C3378     1.0  0.38275  0.59763  0.98461  1.0000
  S   S448      1.0  0.26517  0.51472  0.98102  1.0000
  H   H2693     1.0  0.47702  0.71712  0.98260  1.0000
  C   C3379     1.0  0.38532  0.72615  0.98972  1.0000
  H   H2694     1.0  0.48141  0.65710  0.07353  1.0000
  C   C3380     1.0  0.30756  0.59827  0.98086  1.0000
  C   C3381     1.0  0.26095  0.59687  0.98184  1.0000
  H   H2695     1.0  0.48340  0.68183  0.09764  1.0000
  C   C3382     1.0  0.48276  0.59198  0.07952  1.0000
  H   H2696     1.0  0.23777  0.51013  0.03350  1.0000
  C   C3383     1.0  0.48552  0.63972  0.06574  1.0000
  C   C3384     1.0  0.47746  0.68586  0.98102  1.0000
  Fe  Fe226     1.0  0.26337  0.56123  0.86901  1.0000
  S   S449      1.0  0.26941  0.53969  0.87815  1.0000
  S   S450      1.0  0.27690  0.57566  0.86074  1.0000
  Fe  Fe227     1.0  0.25740  0.53646  0.86581  1.0000
  S   S451      1.0  0.26495  0.52263  0.85180  1.0000
  S   S452      1.0  0.25280  0.55784  0.85540  1.0000
  C   C3385     1.0  0.26532  0.61393  0.93270  1.0000
  Fe  Fe228     1.0  0.44701  0.62338  0.89246  1.0000
  S   S453      1.0  0.42846  0.63778  0.88750  1.0000
  S   S454      1.0  0.46647  0.62139  0.87751  1.0000
  Fe  Fe229     1.0  0.43367  0.61400  0.92084  1.0000
  S   S455      1.0  0.41437  0.62752  0.91834  1.0000
  S   S456      1.0  0.43496  0.60098  0.94096  1.0000
  Fe  Fe230     1.0  0.41822  0.62100  0.89920  1.0000
  S   S457      1.0  0.40028  0.61763  0.89434  1.0000
  Fe  Fe231     1.0  0.42615  0.64290  0.90712  1.0000
  S   S458      1.0  0.41821  0.66244  0.91378  1.0000
  S   S459      1.0  0.43698  0.60622  0.90253  1.0000
  S   S460      1.0  0.44538  0.62969  0.91110  1.0000
  Fe  Fe232     1.0  0.34080  0.56331  0.88800  1.0000
  S   S461      1.0  0.32792  0.55484  0.90699  1.0000
  S   S462      1.0  0.33465  0.56934  0.86832  1.0000
  Fe  Fe233     1.0  0.36321  0.56163  0.90138  1.0000
  S   S463      1.0  0.35193  0.55272  0.92142  1.0000
  S   S464      1.0  0.38429  0.56320  0.89948  1.0000
  Fe  Fe234     1.0  0.34665  0.54039  0.91071  1.0000
  S   S465      1.0  0.34787  0.51847  0.91879  1.0000
  Fe  Fe235     1.0  0.33449  0.56801  0.91562  1.0000
  S   S466      1.0  0.32056  0.58102  0.92897  1.0000
  S   S467      1.0  0.35925  0.54795  0.89114  1.0000
  S   S468      1.0  0.34599  0.57782  0.89624  1.0000
  C   C3386     1.0  0.29811  0.58706  0.89787  1.0000
  C   C3387     1.0  0.34715  0.73289  0.91722  1.0000
  C   C3388     1.0  0.35303  0.50855  0.90693  1.0000
  C   C3389     1.0  0.35104  0.51375  0.89395  1.0000
  C   C3390     1.0  0.35356  0.50522  0.88524  1.0000
  H   H2697     1.0  0.36351  0.56373  0.86023  1.0000
  C   C3391     1.0  0.39670  0.69912  0.94095  1.0000
  C   C3392     1.0  0.23963  0.55855  0.92189  1.0000
  H   H2698     1.0  0.34677  0.52419  0.89094  1.0000
  H   H2699     1.0  0.35131  0.50920  0.87548  1.0000
  C   C3393     1.0  0.28700  0.49832  0.91148  1.0000
  C   C3394     1.0  0.35603  0.49736  0.83810  1.0000
  C   C3395     1.0  0.32882  0.58298  0.94001  1.0000
  C   C3396     1.0  0.32923  0.59573  0.94045  1.0000
  C   C3397     1.0  0.33533  0.59748  0.94957  1.0000
  C   C3398     1.0  0.34078  0.58650  0.95852  1.0000
  C   C3399     1.0  0.34067  0.57371  0.95790  1.0000
  C   C3400     1.0  0.33484  0.57194  0.94851  1.0000
  H   H2700     1.0  0.32502  0.60423  0.93360  1.0000
  H   H2701     1.0  0.33559  0.60737  0.94986  1.0000
  H   H2702     1.0  0.47345  0.71461  0.89278  1.0000
  H   H2703     1.0  0.33479  0.56205  0.94803  1.0000
  C   C3401     1.0  0.39596  0.60226  0.89645  1.0000
  C   C3402     1.0  0.38295  0.60230  0.89643  1.0000
  C   C3403     1.0  0.37915  0.59042  0.89767  1.0000
  C   C3404     1.0  0.38840  0.57835  0.89865  1.0000
  C   C3405     1.0  0.40142  0.57830  0.89860  1.0000
  C   C3406     1.0  0.40516  0.59014  0.89771  1.0000
  H   H2704     1.0  0.37576  0.61161  0.89542  1.0000
  H   H2705     1.0  0.36911  0.59064  0.89764  1.0000
  H   H2706     1.0  0.40867  0.56908  0.89906  1.0000
  H   H2707     1.0  0.41522  0.58996  0.89759  1.0000
  C   C3407     1.0  0.42583  0.67602  0.90612  1.0000
  C   C3408     1.0  0.42298  0.68633  0.91279  1.0000
  H   H2708     1.0  0.32869  0.49648  0.88243  1.0000
  C   C3409     1.0  0.29939  0.48416  0.85649  1.0000
  H   H2709     1.0  0.41668  0.68550  0.92262  1.0000
  H   H2710     1.0  0.48393  0.60329  0.91698  1.0000
  S   S469      1.0  0.44801  0.72353  0.91633  1.0000
  S   S470      1.0  0.44316  0.71297  0.88644  1.0000
  H   H2711     1.0  0.29225  0.50514  0.96869  1.0000
  H   H2712     1.0  0.43379  0.62893  0.93717  1.0000
  S   S471      1.0  0.25853  0.55244  0.97768  1.0000
  C   C3410     1.0  0.34525  0.62149  0.97744  1.0000
  C   C3411     1.0  0.43720  0.61014  0.95099  1.0000
  C   C3412     1.0  0.26092  0.49125  0.97956  1.0000
  H   H2713     1.0  0.47028  0.59524  0.90741  1.0000
  C   C3413     1.0  0.47835  0.59180  0.93700  1.0000
  C   C3414     1.0  0.43362  0.55561  0.94318  1.0000
  H   H2714     1.0  0.31660  0.60579  0.87261  1.0000
  C   C3415     1.0  0.42785  0.54644  0.96692  1.0000
  C   C3416     1.0  0.39558  0.50718  0.83309  1.0000
  C   C3417     1.0  0.38784  0.69862  0.92275  1.0000
  C   C3418     1.0  0.29245  0.57371  0.86423  1.0000
  C   C3419     1.0  0.29725  0.56379  0.87450  1.0000
  C   C3420     1.0  0.31004  0.56258  0.87631  1.0000
  C   C3421     1.0  0.31809  0.57109  0.86764  1.0000
  C   C3422     1.0  0.31317  0.58095  0.85750  1.0000
  C   C3423     1.0  0.30038  0.58241  0.85598  1.0000
  H   H2715     1.0  0.29116  0.55707  0.88093  1.0000
  H   H2716     1.0  0.31381  0.55490  0.88413  1.0000
  H   H2717     1.0  0.31929  0.58754  0.85076  1.0000
  H   H2718     1.0  0.29676  0.59012  0.84806  1.0000
  C   C3424     1.0  0.26038  0.50732  0.85644  1.0000
  C   C3425     1.0  0.25865  0.49999  0.86963  1.0000
  H   H2719     1.0  0.30614  0.53377  0.97496  1.0000
  C   C3426     1.0  0.48162  0.61587  0.88267  1.0000
  C   C3427     1.0  0.39128  0.53573  0.97169  1.0000
  C   C3428     1.0  0.25905  0.50216  0.84640  1.0000
  C   C3429     1.0  0.31331  0.50121  0.96719  1.0000
  C   C3430     1.0  0.47251  0.70048  0.94780  1.0000
  C   C3431     1.0  0.25021  0.62409  0.97612  1.0000
  H   H2720     1.0  0.26046  0.50778  0.83620  1.0000
  C   C3432     1.0  0.28399  0.56766  0.95740  1.0000
  C   C3433     1.0  0.29588  0.55871  0.95884  1.0000
  C   C3434     1.0  0.25579  0.48982  0.84948  1.0000
  H   H2721     1.0  0.42090  0.66493  0.96813  1.0000
  C   C3435     1.0  0.47214  0.63675  0.92951  1.0000
  C   C3436     1.0  0.28120  0.57990  0.96082  1.0000
  C   C3437     1.0  0.36889  0.72815  0.90281  1.0000
  C   C3438     1.0  0.30658  0.49381  0.85438  1.0000
  C   C3439     1.0  0.35622  0.62400  0.96729  1.0000
  H   H2722     1.0  0.29586  0.62376  0.96539  1.0000
  H   H2723     1.0  0.31341  0.59986  0.97078  1.0000
  H   H2724     1.0  0.38161  0.54872  0.83111  1.0000
  C   C3440     1.0  0.30211  0.57413  0.96735  1.0000
  H   H2725     1.0  0.28171  0.48573  0.88794  1.0000
  C   C3441     1.0  0.30327  0.62804  0.93165  1.0000
  C   C3442     1.0  0.29981  0.61684  0.93065  1.0000
  C   C3443     1.0  0.29498  0.60804  0.94217  1.0000
  H   H2726     1.0  0.29804  0.54931  0.95609  1.0000
  H   H2727     1.0  0.36983  0.50018  0.85852  1.0000
  H   H2728     1.0  0.25443  0.58204  0.93417  1.0000
  C   C3444     1.0  0.37977  0.49905  0.85248  1.0000
  C   C3445     1.0  0.38282  0.50870  0.84102  1.0000
  C   C3446     1.0  0.26038  0.59393  0.88536  1.0000
  H   H2729     1.0  0.36892  0.71354  0.88564  1.0000
  C   C3447     1.0  0.42544  0.57018  0.95870  1.0000
  H   H2730     1.0  0.30730  0.63467  0.92271  1.0000
  H   H2731     1.0  0.30131  0.61464  0.92098  1.0000
  H   H2732     1.0  0.29270  0.59926  0.94111  1.0000
  C   C3448     1.0  0.37781  0.70584  0.88558  1.0000
  C   C3449     1.0  0.24456  0.54808  0.94748  1.0000
  C   C3450     1.0  0.48362  0.70933  0.90884  1.0000
  H   H2733     1.0  0.30939  0.57651  0.97092  1.0000
  C   C3451     1.0  0.44343  0.73079  0.97459  1.0000
  H   H2734     1.0  0.43452  0.52924  0.81992  1.0000
  C   C3452     1.0  0.25294  0.59698  0.94455  1.0000
  H   H2735     1.0  0.43727  0.55423  0.93305  1.0000
  C   C3453     1.0  0.30790  0.60283  0.87943  1.0000
  C   C3454     1.0  0.40530  0.49601  0.83665  1.0000
  H   H2736     1.0  0.34531  0.56516  0.96444  1.0000
  C   C3455     1.0  0.33073  0.50709  0.85253  1.0000
  C   C3456     1.0  0.29693  0.62174  0.95574  1.0000
  C   C3457     1.0  0.30497  0.56194  0.96375  1.0000
  C   C3458     1.0  0.39553  0.71790  0.92217  1.0000
  C   C3459     1.0  0.30926  0.59121  0.88930  1.0000
  H   H2737     1.0  0.35435  0.51704  0.82563  1.0000
  P   P115      1.0  0.27097  0.58918  0.90763  1.0000
  C   C3460     1.0  0.47291  0.69949  0.98038  1.0000
  H   H2738     1.0  0.36580  0.49358  0.83260  1.0000
  H   H2739     1.0  0.41172  0.71647  0.88086  1.0000
  C   C3461     1.0  0.26379  0.61932  0.97195  1.0000
  C   C3462     1.0  0.27576  0.50708  0.90766  1.0000
  C   C3463     1.0  0.26587  0.59652  0.92203  1.0000
  H   H2740     1.0  0.48172  0.65321  0.92063  1.0000
  H   H2741     1.0  0.43893  0.64134  0.95054  1.0000
  C   C3464     1.0  0.47904  0.69794  0.86961  1.0000
  H   H2742     1.0  0.44043  0.59325  0.96697  1.0000
  H   H2743     1.0  0.47676  0.64054  0.95347  1.0000
  H   H2744     1.0  0.46534  0.61871  0.93851  1.0000
  C   C3465     1.0  0.30062  0.52100  0.95516  1.0000
  H   H2745     1.0  0.27390  0.54322  0.90499  1.0000
  C   C3466     1.0  0.42458  0.69685  0.95860  1.0000
  C   C3467     1.0  0.41160  0.52328  0.96040  1.0000
  C   C3468     1.0  0.45678  0.66895  0.91238  1.0000
  C   C3469     1.0  0.30184  0.63048  0.94419  1.0000
  H   H2746     1.0  0.42586  0.70563  0.91207  1.0000
  H   H2747     1.0  0.40577  0.51634  0.85443  1.0000
  H   H2748     1.0  0.40461  0.55578  0.86140  1.0000
  H   H2749     1.0  0.27209  0.58681  0.95934  1.0000
  H   H2750     1.0  0.42574  0.73229  0.86862  1.0000
  C   C3470     1.0  0.48299  0.64271  0.92503  1.0000
  C   C3471     1.0  0.35799  0.49149  0.88955  1.0000
  C   C3472     1.0  0.43995  0.60374  0.96349  1.0000
  H   H2751     1.0  0.47780  0.62992  0.89498  1.0000
  H   H2752     1.0  0.31899  0.58525  0.89014  1.0000
  H   H2753     1.0  0.25509  0.48578  0.91737  1.0000
  H   H2754     1.0  0.45303  0.67807  0.95705  1.0000
  C   C3473     1.0  0.40786  0.64084  0.97425  1.0000
  C   C3474     1.0  0.38776  0.70617  0.89149  1.0000
  C   C3475     1.0  0.43918  0.63087  0.95420  1.0000
  H   H2755     1.0  0.45620  0.65322  0.90394  1.0000
  H   H2756     1.0  0.45689  0.57907  0.92173  1.0000
  C   C3476     1.0  0.26429  0.50257  0.90971  1.0000
  H   H2757     1.0  0.32926  0.49936  0.90416  1.0000
  H   H2758     1.0  0.24927  0.50219  0.95718  1.0000
  C   C3477     1.0  0.46313  0.58233  0.92591  1.0000
  H   H2759     1.0  0.43638  0.66919  0.88814  1.0000
  C   C3478     1.0  0.28414  0.60645  0.88694  1.0000
  C   C3479     1.0  0.43656  0.62377  0.94647  1.0000
  C   C3480     1.0  0.46332  0.57779  0.93946  1.0000
  H   H2760     1.0  0.34077  0.61349  0.97792  1.0000
  C   C3481     1.0  0.26394  0.48936  0.91587  1.0000
  C   C3482     1.0  0.40051  0.68545  0.88521  1.0000
  H   H2761     1.0  0.43808  0.68632  0.92980  1.0000
  H   H2762     1.0  0.39342  0.56682  0.97799  1.0000
  C   C3483     1.0  0.34961  0.51057  0.83424  1.0000
  C   C3484     1.0  0.27273  0.56321  0.90600  1.0000
  H   H2763     1.0  0.29599  0.50181  0.90913  1.0000
  C   C3485     1.0  0.35688  0.64200  0.97640  1.0000
  H   H2764     1.0  0.40101  0.55782  0.83482  1.0000
  C   C3486     1.0  0.30122  0.50874  0.96421  1.0000
  H   H2765     1.0  0.39605  0.52511  0.90325  1.0000
  H   H2766     1.0  0.31468  0.50523  0.93736  1.0000
  C   C3487     1.0  0.47130  0.67701  0.94227  1.0000
  P   P116      1.0  0.38586  0.71909  0.90013  1.0000
  H   H2767     1.0  0.25987  0.50391  0.87738  1.0000
  C   C3488     1.0  0.39914  0.69596  0.89111  1.0000
  H   H2768     1.0  0.36112  0.53425  0.87115  1.0000
  H   H2769     1.0  0.43185  0.66560  0.94431  1.0000
  C   C3489     1.0  0.24440  0.59633  0.90597  1.0000
  H   H2770     1.0  0.33248  0.48710  0.86448  1.0000
  H   H2771     1.0  0.42645  0.51124  0.83800  1.0000
  C   C3490     1.0  0.25679  0.60848  0.94408  1.0000
  C   C3491     1.0  0.25584  0.48732  0.87265  1.0000
  C   C3492     1.0  0.28544  0.59451  0.89658  1.0000
  C   C3493     1.0  0.47316  0.66158  0.89377  1.0000
  C   C3494     1.0  0.43088  0.69714  0.94528  1.0000
  C   C3495     1.0  0.47181  0.64923  0.97049  1.0000
  H   H2772     1.0  0.45362  0.69943  0.96121  1.0000
  H   H2773     1.0  0.29117  0.52670  0.95307  1.0000
  H   H2774     1.0  0.45718  0.57103  0.94574  1.0000
  C   C3496     1.0  0.46128  0.68272  0.95180  1.0000
  C   C3497     1.0  0.37924  0.69534  0.87959  1.0000
  H   H2775     1.0  0.24638  0.59268  0.95340  1.0000
  C   C3498     1.0  0.47088  0.58253  0.94501  1.0000
  H   H2776     1.0  0.43395  0.70604  0.93901  1.0000
  H   H2777     1.0  0.27048  0.49007  0.97278  1.0000
  C   C3499     1.0  0.48201  0.68294  0.93561  1.0000
  H   H2778     1.0  0.27046  0.59158  0.87985  1.0000
  C   C3500     1.0  0.46158  0.66051  0.90346  1.0000
  H   H2779     1.0  0.29950  0.57797  0.90536  1.0000
  C   C3501     1.0  0.48312  0.59542  0.96177  1.0000
  H   H2780     1.0  0.41580  0.65202  0.95501  1.0000
  H   H2781     1.0  0.44587  0.68921  0.87763  1.0000
  C   C3502     1.0  0.24566  0.54512  0.92547  1.0000
  H   H2782     1.0  0.47499  0.70713  0.91630  1.0000
  H   H2783     1.0  0.39437  0.54161  0.88250  1.0000
  C   C3503     1.0  0.42999  0.56837  0.94562  1.0000
  H   H2784     1.0  0.37156  0.69510  0.87505  1.0000
  C   C3504     1.0  0.36085  0.48649  0.90218  1.0000
  C   C3505     1.0  0.25014  0.59686  0.87873  1.0000
  H   H2785     1.0  0.38984  0.50356  0.90709  1.0000
  C   C3506     1.0  0.32427  0.51810  0.95149  1.0000
  C   C3507     1.0  0.27583  0.54942  0.91031  1.0000
  H   H2786     1.0  0.43077  0.57690  0.93738  1.0000
  C   C3508     1.0  0.28110  0.54364  0.92164  1.0000
  C   C3509     1.0  0.28367  0.55166  0.92842  1.0000
  H   H2787     1.0  0.31186  0.53497  0.94141  1.0000
  H   H2788     1.0  0.38962  0.68264  0.93999  1.0000
  H   H2789     1.0  0.43526  0.53477  0.95189  1.0000
  H   H2790     1.0  0.40337  0.71683  0.93893  1.0000
  H   H2791     1.0  0.28310  0.53295  0.92515  1.0000
  H   H2792     1.0  0.28785  0.54726  0.93711  1.0000
  H   H2793     1.0  0.28303  0.57155  0.92924  1.0000
  H   H2794     1.0  0.47069  0.66806  0.93996  1.0000
  H   H2795     1.0  0.40691  0.69608  0.89552  1.0000
  C   C3510     1.0  0.47821  0.59618  0.92337  1.0000
  H   H2796     1.0  0.46750  0.71697  0.86194  1.0000
  C   C3511     1.0  0.43252  0.54465  0.95381  1.0000
  C   C3512     1.0  0.43412  0.67707  0.89341  1.0000
  H   H2797     1.0  0.39792  0.51465  0.82415  1.0000
  C   C3513     1.0  0.39889  0.71179  0.93449  1.0000
  C   C3514     1.0  0.39056  0.68513  0.87946  1.0000
  C   C3515     1.0  0.42823  0.69770  0.90685  1.0000
  H   H2798     1.0  0.27691  0.56516  0.95364  1.0000
  C   C3516     1.0  0.29534  0.61051  0.87830  1.0000
  C   C3517     1.0  0.27500  0.57134  0.91297  1.0000
  H   H2799     1.0  0.44444  0.56819  0.97281  1.0000
  H   H2800     1.0  0.29429  0.61951  0.87062  1.0000
  C   C3518     1.0  0.47511  0.67967  0.90187  1.0000
  C   C3519     1.0  0.42518  0.52706  0.91501  1.0000
  C   C3520     1.0  0.43060  0.53825  0.90918  1.0000
  C   C3521     1.0  0.42503  0.54985  0.91401  1.0000
  C   C3522     1.0  0.41398  0.55032  0.92459  1.0000
  C   C3523     1.0  0.40839  0.53916  0.93041  1.0000
  C   C3524     1.0  0.41415  0.52748  0.92563  1.0000
  P   P117      1.0  0.39433  0.53957  0.94430  1.0000
  C   C3525     1.0  0.38535  0.55661  0.94341  1.0000
  C   C3526     1.0  0.38393  0.52965  0.94300  1.0000
  C   C3527     1.0  0.38178  0.53018  0.93051  1.0000
  C   C3528     1.0  0.37419  0.52214  0.92934  1.0000
  C   C3529     1.0  0.36875  0.51347  0.94059  1.0000
  C   C3530     1.0  0.37073  0.51295  0.95306  1.0000
  C   C3531     1.0  0.37825  0.52102  0.95430  1.0000
  C   C3532     1.0  0.37606  0.56221  0.93537  1.0000
  C   C3533     1.0  0.36942  0.57549  0.93436  1.0000
  C   C3534     1.0  0.37198  0.58328  0.94138  1.0000
  C   C3535     1.0  0.38132  0.57786  0.94927  1.0000
  C   C3536     1.0  0.38811  0.56463  0.95017  1.0000
  C   C3537     1.0  0.39967  0.53268  0.95983  1.0000
  H   H2801     1.0  0.31433  0.55513  0.96463  1.0000
  C   C3538     1.0  0.48496  0.62198  0.89092  1.0000
  H   H2802     1.0  0.42173  0.55248  0.81841  1.0000
  H   H2803     1.0  0.40096  0.57790  0.86610  1.0000
  H   H2804     1.0  0.37884  0.59284  0.86784  1.0000
  H   H2805     1.0  0.42947  0.51807  0.91125  1.0000
  H   H2806     1.0  0.43904  0.53799  0.90085  1.0000
  H   H2807     1.0  0.42910  0.55860  0.90938  1.0000
  H   H2808     1.0  0.40971  0.55948  0.92803  1.0000
  H   H2809     1.0  0.41008  0.51871  0.93008  1.0000
  H   H2810     1.0  0.38583  0.53693  0.92169  1.0000
  H   H2811     1.0  0.37230  0.52283  0.91975  1.0000
  H   H2812     1.0  0.36286  0.50724  0.93967  1.0000
  H   H2813     1.0  0.36640  0.50630  0.96181  1.0000
  H   H2814     1.0  0.37954  0.52041  0.96412  1.0000
  H   H2815     1.0  0.37397  0.55648  0.92974  1.0000
  H   H2816     1.0  0.36218  0.57969  0.92822  1.0000
  H   H2817     1.0  0.36660  0.59349  0.94084  1.0000
  H   H2818     1.0  0.38324  0.58398  0.95466  1.0000
  H   H2819     1.0  0.39553  0.56072  0.95608  1.0000
  H   H2820     1.0  0.41807  0.52044  0.95147  1.0000
  C   C3539     1.0  0.48303  0.69439  0.93877  1.0000
  C   C3540     1.0  0.33721  0.49380  0.85618  1.0000
  H   H2821     1.0  0.29859  0.49657  0.93194  1.0000
  C   C3541     1.0  0.23716  0.50756  0.94280  1.0000
  Fe  Fe236     1.0  0.24996  0.54321  0.89275  1.0000
  C   C3542     1.0  0.43945  0.68843  0.88746  1.0000
  C   C3543     1.0  0.42438  0.55923  0.96945  1.0000
  H   H2822     1.0  0.25282  0.52960  0.94112  1.0000
  C   C3544     1.0  0.46356  0.67855  0.91158  1.0000
  H   H2823     1.0  0.26841  0.62277  0.93240  1.0000
  H   H2824     1.0  0.47060  0.57918  0.95556  1.0000
  C   C3545     1.0  0.47676  0.70980  0.86017  1.0000
  C   C3546     1.0  0.28075  0.56545  0.92404  1.0000
  C   C3547     1.0  0.34982  0.48899  0.84906  1.0000
  C   C3548     1.0  0.43650  0.69878  0.89416  1.0000
  H   H2825     1.0  0.33217  0.52556  0.83796  1.0000
  H   H2826     1.0  0.47664  0.65476  0.88719  1.0000
  H   H2827     1.0  0.26855  0.56743  0.89727  1.0000
  C   C3549     1.0  0.38948  0.48792  0.85616  1.0000
  C   C3550     1.0  0.35837  0.49499  0.91085  1.0000
  C   C3551     1.0  0.42966  0.67435  0.94833  1.0000
  H   H2828     1.0  0.36009  0.61774  0.96010  1.0000
  C   C3552     1.0  0.31217  0.52566  0.94873  1.0000
  H   H2829     1.0  0.40930  0.67752  0.88519  1.0000
  H   H2830     1.0  0.39167  0.67695  0.87488  1.0000
  C   C3553     1.0  0.28987  0.54185  0.84006  1.0000
  C   C3554     1.0  0.29432  0.55325  0.83867  1.0000
  C   C3555     1.0  0.30507  0.55237  0.84390  1.0000
  C   C3556     1.0  0.31108  0.54018  0.85089  1.0000
  C   C3557     1.0  0.30659  0.52867  0.85242  1.0000
  C   C3558     1.0  0.29605  0.52957  0.84679  1.0000
  P   P118      1.0  0.31426  0.51299  0.86173  1.0000
  H   H2831     1.0  0.35423  0.66036  0.95309  1.0000
  C   C3559     1.0  0.31464  0.51500  0.87786  1.0000
  C   C3560     1.0  0.32257  0.50525  0.88580  1.0000
  C   C3561     1.0  0.32289  0.50682  0.89822  1.0000
  C   C3562     1.0  0.31558  0.51828  0.90269  1.0000
  C   C3563     1.0  0.30735  0.52786  0.89506  1.0000
  C   C3564     1.0  0.30667  0.52613  0.88282  1.0000
  H   H2832     1.0  0.46237  0.64256  0.92863  1.0000
  H   H2833     1.0  0.33326  0.52160  0.94638  1.0000
  H   H2834     1.0  0.39726  0.72772  0.91737  1.0000
  C   C3565     1.0  0.25762  0.59366  0.89903  1.0000
  H   H2835     1.0  0.47245  0.70987  0.94972  1.0000
  C   C3566     1.0  0.30491  0.50057  0.86442  1.0000
  C   C3567     1.0  0.29582  0.49767  0.87648  1.0000
  C   C3568     1.0  0.47639  0.65464  0.97827  1.0000
  C   C3569     1.0  0.47384  0.62319  0.93517  1.0000
  H   H2836     1.0  0.44771  0.66807  0.91973  1.0000
  C   C3570     1.0  0.28667  0.48506  0.91781  1.0000
  H   H2837     1.0  0.28142  0.54253  0.83616  1.0000
  H   H2838     1.0  0.28927  0.56283  0.83380  1.0000
  H   H2839     1.0  0.30846  0.56124  0.84288  1.0000
  H   H2840     1.0  0.31906  0.53979  0.85534  1.0000
  H   H2841     1.0  0.29235  0.52091  0.84781  1.0000
  H   H2842     1.0  0.27634  0.61244  0.91294  1.0000
  C   C3571     1.0  0.42027  0.68556  0.96674  1.0000
  H   H2843     1.0  0.31640  0.51978  0.91200  1.0000
  H   H2844     1.0  0.30164  0.53674  0.89852  1.0000
  H   H2845     1.0  0.29999  0.53358  0.87727  1.0000
  C   C3572     1.0  0.24812  0.53994  0.93828  1.0000
  C   C3573     1.0  0.43329  0.68595  0.94013  1.0000
  H   H2846     1.0  0.25568  0.50930  0.90650  1.0000
  C   C3574     1.0  0.26983  0.60800  0.92169  1.0000
  H   H2847     1.0  0.39957  0.65018  0.94421  1.0000
  H   H2848     1.0  0.29409  0.50303  0.88415  1.0000
  S   S472      1.0  0.41859  0.73093  0.94640  1.0000
  H   H2849     1.0  0.34962  0.68037  0.93560  1.0000
  H   H2850     1.0  0.47137  0.69623  0.87847  1.0000
  C   C3575     1.0  0.28874  0.48793  0.87861  1.0000
  C   C3576     1.0  0.38448  0.61249  0.92879  1.0000
  C   C3577     1.0  0.39532  0.60280  0.93232  1.0000
  C   C3578     1.0  0.40023  0.60320  0.94293  1.0000
  C   C3579     1.0  0.39457  0.61348  0.94976  1.0000
  C   C3580     1.0  0.38395  0.62350  0.94594  1.0000
  C   C3581     1.0  0.37877  0.62276  0.93559  1.0000
  P   P119      1.0  0.37683  0.63721  0.95419  1.0000
  H   H2851     1.0  0.30467  0.63908  0.94497  1.0000
  H   H2852     1.0  0.33781  0.49289  0.93585  1.0000
  H   H2853     1.0  0.31330  0.49610  0.84487  1.0000
  C   C3582     1.0  0.31782  0.49609  0.93399  1.0000
  C   C3583     1.0  0.46171  0.69464  0.95430  1.0000
  C   C3584     1.0  0.40812  0.64685  0.96084  1.0000
  C   C3585     1.0  0.39876  0.64581  0.95472  1.0000
  H   H2854     1.0  0.27598  0.51735  0.90288  1.0000
  C   C3586     1.0  0.39106  0.69258  0.93514  1.0000
  C   C3587     1.0  0.47991  0.67136  0.89274  1.0000
  C   C3588     1.0  0.47518  0.60580  0.96791  1.0000
  C   C3589     1.0  0.25755  0.59095  0.93363  1.0000
  C   C3590     1.0  0.37320  0.65211  0.94157  1.0000
  C   C3591     1.0  0.38219  0.65414  0.92923  1.0000
  C   C3592     1.0  0.37956  0.66556  0.91938  1.0000
  C   C3593     1.0  0.36780  0.67500  0.92165  1.0000
  C   C3594     1.0  0.35875  0.67307  0.93386  1.0000
  C   C3595     1.0  0.36143  0.66168  0.94379  1.0000
  H   H2855     1.0  0.38069  0.61217  0.92056  1.0000
  H   H2856     1.0  0.39990  0.59504  0.92678  1.0000
  H   H2857     1.0  0.40865  0.59574  0.94563  1.0000
  H   H2858     1.0  0.39875  0.61371  0.95775  1.0000
  H   H2859     1.0  0.37049  0.63027  0.93257  1.0000
  C   C3596     1.0  0.33700  0.51542  0.84138  1.0000
  H   H2860     1.0  0.45980  0.68534  0.91824  1.0000
  H   H2861     1.0  0.40583  0.48770  0.87355  1.0000
  S   S473      1.0  0.24958  0.53432  0.91453  1.0000
  C   C3597     1.0  0.44152  0.62456  0.96687  1.0000
  H   H2862     1.0  0.38143  0.51467  0.86820  1.0000
  H   H2863     1.0  0.42416  0.50968  0.97311  1.0000
  H   H2864     1.0  0.37523  0.51728  0.83827  1.0000
  H   H2865     1.0  0.27448  0.61253  0.88596  1.0000
  H   H2866     1.0  0.48461  0.72165  0.84129  1.0000
  H   H2867     1.0  0.39130  0.64691  0.92719  1.0000
  H   H2868     1.0  0.38670  0.66703  0.90999  1.0000
  H   H2869     1.0  0.36574  0.68378  0.91393  1.0000
  H   H2870     1.0  0.36020  0.58569  0.86469  1.0000
  C   C3598     1.0  0.48268  0.71360  0.89548  1.0000
  C   C3599     1.0  0.35058  0.53824  0.85583  1.0000
  C   C3600     1.0  0.35072  0.54287  0.84226  1.0000
  C   C3601     1.0  0.36203  0.54639  0.83337  1.0000
  C   C3602     1.0  0.37316  0.54544  0.83808  1.0000
  C   C3603     1.0  0.37311  0.54079  0.85172  1.0000
  C   C3604     1.0  0.36168  0.53729  0.86055  1.0000
  P   P120      1.0  0.38672  0.54144  0.85804  1.0000
  C   C3605     1.0  0.38786  0.52940  0.87358  1.0000
  C   C3606     1.0  0.40189  0.53751  0.84599  1.0000
  C   C3607     1.0  0.40913  0.52435  0.84670  1.0000
  C   C3608     1.0  0.42086  0.52139  0.83734  1.0000
  C   C3609     1.0  0.42541  0.53152  0.82715  1.0000
  C   C3610     1.0  0.41821  0.54461  0.82631  1.0000
  C   C3611     1.0  0.40648  0.54761  0.83566  1.0000
  C   C3612     1.0  0.39208  0.53215  0.88361  1.0000
  C   C3613     1.0  0.39299  0.52277  0.89554  1.0000
  C   C3614     1.0  0.38959  0.51063  0.89765  1.0000
  C   C3615     1.0  0.38555  0.50775  0.88768  1.0000
  C   C3616     1.0  0.38473  0.51705  0.87570  1.0000
  C   C3617     1.0  0.38437  0.55803  0.86040  1.0000
  C   C3618     1.0  0.39493  0.56230  0.86183  1.0000
  C   C3619     1.0  0.39294  0.57485  0.86441  1.0000
  C   C3620     1.0  0.38044  0.58329  0.86544  1.0000
  C   C3621     1.0  0.36995  0.57924  0.86373  1.0000
  C   C3622     1.0  0.37189  0.56669  0.86120  1.0000
  H   H2871     1.0  0.34168  0.53593  0.86283  1.0000
  H   H2872     1.0  0.34193  0.54412  0.83869  1.0000
  H   H2873     1.0  0.36200  0.55030  0.82289  1.0000
  H   H2874     1.0  0.25460  0.48598  0.84167  1.0000
  H   H2875     1.0  0.47169  0.61551  0.96210  1.0000
  H   H2876     1.0  0.25243  0.59673  0.86822  1.0000
  H   H2877     1.0  0.42308  0.70543  0.96261  1.0000
  S   S474      1.0  0.34773  0.58907  0.97030  1.0000
  H   H2878     1.0  0.39962  0.69428  0.95030  1.0000
  H   H2879     1.0  0.41402  0.72516  0.97489  1.0000
  C   C3623     1.0  0.38880  0.63896  0.96209  1.0000
  C   C3624     1.0  0.33091  0.48915  0.93302  1.0000
  P   P121      1.0  0.28680  0.59932  0.96967  1.0000
  C   C3625     1.0  0.39013  0.71130  0.91612  1.0000
  C   C3626     1.0  0.29010  0.58314  0.96606  1.0000
  C   C3627     1.0  0.29349  0.61043  0.95481  1.0000
  S   S475      1.0  0.24466  0.56507  0.88438  1.0000
  H   H2880     1.0  0.46173  0.64812  0.97335  1.0000
  H   H2881     1.0  0.39492  0.67785  0.97184  1.0000
  H   H2882     1.0  0.38376  0.69329  0.91829  1.0000
  H   H2883     1.0  0.41505  0.49502  0.83026  1.0000
  H   H2884     1.0  0.42284  0.58014  0.96045  1.0000
  H   H2885     1.0  0.33436  0.50004  0.96250  1.0000
  H   H2886     1.0  0.38276  0.49840  0.88936  1.0000
  H   H2887     1.0  0.36026  0.49097  0.92075  1.0000
  C   C3628     1.0  0.36023  0.72570  0.91529  1.0000
  C   C3629     1.0  0.32487  0.50587  0.96060  1.0000
  H   H2888     1.0  0.26996  0.62634  0.96667  1.0000
  H   H2889     1.0  0.23766  0.56270  0.91209  1.0000
  C   C3630     1.0  0.42330  0.67408  0.96171  1.0000
  C   C3631     1.0  0.48028  0.64508  0.95924  1.0000
  C   C3632     1.0  0.47058  0.59152  0.91788  1.0000
  H   H2890     1.0  0.38169  0.54238  0.97158  1.0000
  H   H2891     1.0  0.39745  0.70750  0.96632  1.0000
  C   C3633     1.0  0.36216  0.63427  0.96672  1.0000
  C   C3634     1.0  0.30880  0.49129  0.93055  1.0000
  C   C3635     1.0  0.41509  0.51712  0.97267  1.0000
  H   H2892     1.0  0.48020  0.68722  0.90127  1.0000
  C   C3636     1.0  0.44200  0.61096  0.97148  1.0000
  H   H2893     1.0  0.25318  0.61311  0.95256  1.0000
  C   C3637     1.0  0.40236  0.48631  0.84829  1.0000
  C   C3638     1.0  0.42371  0.72726  0.97090  1.0000
  P   P122      1.0  0.31433  0.48540  0.97888  1.0000
  C   C3639     1.0  0.26925  0.60563  0.97471  1.0000
  H   H2894     1.0  0.42691  0.53785  0.97498  1.0000
  H   H2895     1.0  0.36353  0.71833  0.92359  1.0000
  H   H2896     1.0  0.41523  0.64150  0.97896  1.0000
  C   C3640     1.0  0.23957  0.50680  0.95515  1.0000
  C   C3641     1.0  0.39626  0.73067  0.89068  1.0000
  H   H2897     1.0  0.46360  0.70468  0.97761  1.0000
  H   H2898     1.0  0.24674  0.54398  0.95723  1.0000
  H   H2899     1.0  0.24504  0.50360  0.93521  1.0000
  H   H2900     1.0  0.45486  0.48680  0.85085  1.0000
  H   H2901     1.0  0.38330  0.72916  0.96957  1.0000
  Fe  Fe237     1.0  0.43940  0.72866  0.89829  1.0000
  H   H2902     1.0  0.47154  0.68063  0.97866  1.0000
  H   H2903     1.0  0.37412  0.58576  0.97776  1.0000
  C   C3642     1.0  0.40828  0.72660  0.88204  1.0000
  H   H2904     1.0  0.48427  0.66289  0.86362  1.0000
  H   H2905     1.0  0.36137  0.64989  0.97622  1.0000
  Fe  Fe238     1.0  0.23757  0.55968  0.97549  1.0000
  C   C3643     1.0  0.42853  0.73035  0.95711  1.0000
  C   C3644     1.0  0.39577  0.71016  0.97576  1.0000
  S   S476      1.0  0.44340  0.63398  0.97686  1.0000
  C   C3645     1.0  0.38859  0.63296  0.97560  1.0000
  H   H2906     1.0  0.24604  0.63466  0.97403  1.0000
  C   C3646     1.0  0.43119  0.72735  0.97962  1.0000
  H   H2907     1.0  0.24190  0.59604  0.91653  1.0000
  C   C3647     1.0  0.38763  0.72244  0.97761  1.0000
  H   H2908     1.0  0.34054  0.73104  0.92690  1.0000
  C   C3648     1.0  0.23703  0.59945  0.88570  1.0000
  C   C3649     1.0  0.23818  0.56139  0.94404  1.0000
  S   S477      1.0  0.23845  0.53769  0.88128  1.0000
  C   C3650     1.0  0.44123  0.73283  0.95208  1.0000
  C   C3651     1.0  0.38272  0.58631  0.98070  1.0000
  H   H2909     1.0  0.46514  0.48417  0.82765  1.0000
  C   C3652     1.0  0.44977  0.48334  0.84555  1.0000
  C   C3653     1.0  0.48580  0.89309  0.11944  1.0000
  Fe  Fe239     1.0  0.43670  0.85233  0.01516  1.0000
  S   S478      1.0  0.41807  0.84891  0.03038  1.0000
  S   S479      1.0  0.43878  0.86188  0.99313  1.0000
  Fe  Fe240     1.0  0.45323  0.84281  0.03593  1.0000
  S   S480      1.0  0.43630  0.83816  0.05241  1.0000
  H   H2910     1.0  0.45361  0.77964  0.98671  1.0000
  Fe  Fe241     1.0  0.43108  0.82953  0.03832  1.0000
  S   S481      1.0  0.42695  0.80904  0.04777  1.0000
  Fe  Fe242     1.0  0.42510  0.85779  0.04329  1.0000
  S   S482      1.0  0.41313  0.87028  0.05844  1.0000
  S   S483      1.0  0.44930  0.83244  0.02245  1.0000
  S   S484      1.0  0.44247  0.86295  0.02735  1.0000
  Fe  Fe243     1.0  0.44055  0.90518  0.09918  1.0000
  S   S485      1.0  0.44614  0.92470  0.09581  1.0000
  S   S486      1.0  0.44626  0.89672  0.08062  1.0000
  Fe  Fe244     1.0  0.43104  0.90355  0.12927  1.0000
  S   S487      1.0  0.43542  0.92300  0.12798  1.0000
  S   S488      1.0  0.42301  0.89147  0.14936  1.0000
  Fe  Fe245     1.0  0.42685  0.93021  0.10982  1.0000
  S   S489      1.0  0.41204  0.94952  0.10569  1.0000
  Fe  Fe246     1.0  0.45428  0.91558  0.11421  1.0000
  Fe  Fe247     1.0  0.46313  0.90661  0.21230  1.0000
  S   S490      1.0  0.42065  0.91123  0.11218  1.0000
  S   S491      1.0  0.45045  0.89560  0.11652  1.0000
  Fe  Fe248     1.0  0.43470  0.90728  0.21322  1.0000
  C   C3654     1.0  0.34990  0.96314  0.40851  1.0000
  S   S492      1.0  0.41870  0.90699  0.20362  1.0000
  C   C3655     1.0  0.40865  0.87214  0.32778  1.0000
  C   C3656     1.0  0.35714  0.91878  0.47796  1.0000
  C   C3657     1.0  0.28534  0.89384  0.47953  1.0000
  Fe  Fe249     1.0  0.44094  0.92356  0.22872  1.0000
  S   S493      1.0  0.43310  0.94154  0.23753  1.0000
  C   C3658     1.0  0.44680  0.85960  0.10205  1.0000
  S   S494      1.0  0.42806  0.90898  0.23466  1.0000
  H   H2911     1.0  0.43489  0.80726  0.99333  1.0000
  Fe  Fe250     1.0  0.25884  0.91457  0.40508  1.0000
  S   S495      1.0  0.25794  0.93446  0.40840  1.0000
  S   S496      1.0  0.27547  0.89699  0.40867  1.0000
  H   H2912     1.0  0.45039  0.97796  0.38275  1.0000
  H   H2913     1.0  0.47940  0.81231  0.06509  1.0000
  C   C3659     1.0  0.42954  0.97841  0.10597  1.0000
  Fe  Fe251     1.0  0.25050  0.94244  0.38955  1.0000
  S   S497      1.0  0.25715  0.95829  0.37236  1.0000
  H   H2914     1.0  0.48526  0.81693  0.01547  1.0000
  C   C3660     1.0  0.45037  0.74453  0.08403  1.0000
  S   S498      1.0  0.25341  0.92254  0.38520  1.0000
  P   P123      1.0  0.48456  0.86885  0.07155  1.0000
  Fe  Fe252     1.0  0.34509  0.90843  0.40225  1.0000
  S   S499      1.0  0.35843  0.89497  0.41552  1.0000
  S   S500      1.0  0.33556  0.90018  0.39116  1.0000
  Fe  Fe253     1.0  0.35146  0.93309  0.40488  1.0000
  S   S501      1.0  0.36534  0.92192  0.41833  1.0000
  S   S502      1.0  0.34806  0.95510  0.39718  1.0000
  Fe  Fe254     1.0  0.37279  0.90797  0.40439  1.0000
  S   S503      1.0  0.39451  0.89925  0.39784  1.0000
  Fe  Fe255     1.0  0.34982  0.90995  0.42840  1.0000
  S   S504      1.0  0.36015  0.92019  0.39006  1.0000
  S   S505      1.0  0.33527  0.92239  0.41590  1.0000
  S   S506      1.0  0.41721  0.74018  0.00929  1.0000
  C   C3661     1.0  0.46218  0.96981  0.11757  1.0000
  S   S507      1.0  0.46022  0.95550  0.29401  1.0000
  C   C3662     1.0  0.41396  0.97748  0.41094  1.0000
  S   S508      1.0  0.42050  0.93023  0.34141  1.0000
  S   S509      1.0  0.44396  0.92504  0.30873  1.0000
  H   H2915     1.0  0.36052  0.94164  0.36068  1.0000
  Fe  Fe256     1.0  0.41884  0.75205  0.02280  1.0000
  H   H2916     1.0  0.45441  0.97469  0.18111  1.0000
  H   H2917     1.0  0.41180  0.88592  0.22550  1.0000
  C   C3663     1.0  0.35279  0.97573  0.40390  1.0000
  H   H2918     1.0  0.37835  0.78175  0.04268  1.0000
  H   H2919     1.0  0.47560  0.94920  0.31333  1.0000
  H   H2920     1.0  0.48532  0.80048  0.98525  1.0000
  H   H2921     1.0  0.47369  0.84730  0.01399  1.0000
  H   H2922     1.0  0.43700  0.95129  0.26192  1.0000
  C   C3664     1.0  0.38013  0.95534  0.37652  1.0000
  H   H2923     1.0  0.39402  0.77107  0.05748  1.0000
  H   H2924     1.0  0.44548  0.73736  0.09162  1.0000
  H   H2925     1.0  0.31752  0.95154  0.41293  1.0000
  S   S510      1.0  0.34237  0.90324  0.45061  1.0000
  H   H2926     1.0  0.48349  0.90608  0.09075  1.0000
  C   C3665     1.0  0.41451  0.97717  0.39783  1.0000
  C   C3666     1.0  0.46297  0.96539  0.30310  1.0000
  H   H2927     1.0  0.38965  0.85464  0.07668  1.0000
  H   H2928     1.0  0.44687  0.87525  0.16101  1.0000
  C   C3667     1.0  0.27129  0.97722  0.36572  1.0000
  C   C3668     1.0  0.39533  0.88437  0.45834  1.0000
  H   H2929     1.0  0.47741  0.80636  0.21991  1.0000
  H   H2930     1.0  0.38769  0.89406  0.42778  1.0000
  H   H2931     1.0  0.40780  0.84551  0.31000  1.0000
  C   C3669     1.0  0.23855  0.87706  0.46332  1.0000
  H   H2932     1.0  0.48472  0.89378  0.22599  1.0000
  C   C3670     1.0  0.40217  0.90795  0.38239  1.0000
  C   C3671     1.0  0.41489  0.90240  0.37588  1.0000
  C   C3672     1.0  0.42074  0.90908  0.36323  1.0000
  C   C3673     1.0  0.41382  0.92128  0.35711  1.0000
  C   C3674     1.0  0.40116  0.92675  0.36362  1.0000
  C   C3675     1.0  0.39542  0.92021  0.37628  1.0000
  H   H2933     1.0  0.42014  0.89288  0.38056  1.0000
  H   H2934     1.0  0.43051  0.90474  0.35819  1.0000
  H   H2935     1.0  0.39582  0.93612  0.35889  1.0000
  H   H2936     1.0  0.38579  0.92472  0.38133  1.0000
  H   H2937     1.0  0.32211  0.95723  0.47738  1.0000
  H   H2938     1.0  0.42198  0.97410  0.14530  1.0000
  H   H2939     1.0  0.33176  0.82171  0.06500  1.0000
  C   C3676     1.0  0.35161  0.82426  0.05605  1.0000
  C   C3677     1.0  0.26401  0.96930  0.37618  1.0000
  C   C3678     1.0  0.35142  0.97697  0.42656  1.0000
  H   H2940     1.0  0.40547  0.89293  0.43871  1.0000
  H   H2941     1.0  0.32940  0.88822  0.42435  1.0000
  C   C3679     1.0  0.45177  0.89586  0.28202  1.0000
  H   H2942     1.0  0.34642  0.94733  0.42569  1.0000
  C   C3680     1.0  0.46982  0.86520  0.08358  1.0000
  C   C3681     1.0  0.45721  0.97898  0.30138  1.0000
  H   H2943     1.0  0.36622  0.85541  0.07777  1.0000
  C   C3682     1.0  0.39296  0.83224  0.00433  1.0000
  H   H2944     1.0  0.43369  0.83759  0.22344  1.0000
  C   C3683     1.0  0.40397  0.96058  0.37690  1.0000
  C   C3684     1.0  0.37965  0.97376  0.45783  1.0000
  H   H2945     1.0  0.39767  0.86071  0.00831  1.0000
  H   H2946     1.0  0.45765  0.79995  0.03620  1.0000
  C   C3685     1.0  0.46894  0.91937  0.25739  1.0000
  C   C3686     1.0  0.29167  0.89953  0.40280  1.0000
  C   C3687     1.0  0.30096  0.89070  0.39557  1.0000
  C   C3688     1.0  0.31424  0.89140  0.39179  1.0000
  C   C3689     1.0  0.31853  0.90058  0.39564  1.0000
  C   C3690     1.0  0.30928  0.90960  0.40280  1.0000
  C   C3691     1.0  0.29578  0.90920  0.40622  1.0000
  H   H2947     1.0  0.29788  0.88317  0.39301  1.0000
  H   H2948     1.0  0.32130  0.88444  0.38625  1.0000
  H   H2949     1.0  0.31251  0.91678  0.40576  1.0000
  H   H2950     1.0  0.28867  0.91593  0.41198  1.0000
  H   H2951     1.0  0.45892  0.87782  0.19490  1.0000
  H   H2952     1.0  0.27651  0.89776  0.47560  1.0000
  H   H2953     1.0  0.47207  0.95724  0.20836  1.0000
  C   C3692     1.0  0.33237  0.83798  0.04784  1.0000
  C   C3693     1.0  0.47856  0.97305  0.26844  1.0000
  C   C3694     1.0  0.48295  0.84723  0.01604  1.0000
  H   H2954     1.0  0.25645  0.96444  0.39741  1.0000
  C   C3695     1.0  0.44352  0.95268  0.23084  1.0000
  C   C3696     1.0  0.43972  0.96482  0.23464  1.0000
  C   C3697     1.0  0.44759  0.97414  0.22906  1.0000
  C   C3698     1.0  0.45916  0.97150  0.21947  1.0000
  C   C3699     1.0  0.46310  0.95926  0.21576  1.0000
  C   C3700     1.0  0.45526  0.94981  0.22144  1.0000
  H   H2955     1.0  0.43057  0.96714  0.24177  1.0000
  C   C3701     1.0  0.36585  0.98128  0.17965  1.0000
  C   C3702     1.0  0.47982  0.85630  0.20544  1.0000
  H   H2956     1.0  0.45821  0.94041  0.21846  1.0000
  H   H2957     1.0  0.47289  0.95617  0.17564  1.0000
  H   H2958     1.0  0.43728  0.88222  0.32458  1.0000
  S   S511      1.0  0.45539  0.90300  0.33344  1.0000
  H   H2959     1.0  0.43543  0.95335  0.33474  1.0000
  C   C3703     1.0  0.47474  0.87753  0.03534  1.0000
  H   H2960     1.0  0.48066  0.89922  0.27985  1.0000
  C   C3704     1.0  0.45677  0.88509  0.29148  1.0000
  C   C3705     1.0  0.39422  0.83484  0.05523  1.0000
  C   C3706     1.0  0.45497  0.86992  0.27932  1.0000
  H   H2961     1.0  0.38508  0.96290  0.35533  1.0000
  C   C3707     1.0  0.41528  0.96483  0.10509  1.0000
  C   C3708     1.0  0.42749  0.96595  0.10617  1.0000
  C   C3709     1.0  0.30755  0.92215  0.45653  1.0000
  C   C3710     1.0  0.45896  0.97782  0.15075  1.0000
  C   C3711     1.0  0.38720  0.82704  0.01753  1.0000
  C   C3712     1.0  0.30979  0.92423  0.46803  1.0000
  H   H2962     1.0  0.43524  0.95717  0.10703  1.0000
  H   H2963     1.0  0.48506  0.96851  0.27527  1.0000
  C   C3713     1.0  0.29333  0.94848  0.39384  1.0000
  C   C3714     1.0  0.39046  0.78175  0.05550  1.0000
  C   C3715     1.0  0.42258  0.89595  0.16418  1.0000
  C   C3716     1.0  0.43064  0.90392  0.16469  1.0000
  C   C3717     1.0  0.43019  0.90682  0.17693  1.0000
  C   C3718     1.0  0.42143  0.90201  0.18855  1.0000
  C   C3719     1.0  0.41342  0.89411  0.18793  1.0000
  C   C3720     1.0  0.41416  0.89091  0.17590  1.0000
  H   H2964     1.0  0.43729  0.90766  0.15571  1.0000
  H   H2965     1.0  0.43630  0.91304  0.17733  1.0000
  H   H2966     1.0  0.40650  0.89050  0.19680  1.0000
  H   H2967     1.0  0.40795  0.88471  0.17561  1.0000
  C   C3721     1.0  0.42216  0.87772  0.06474  1.0000
  C   C3722     1.0  0.43505  0.87885  0.05816  1.0000
  C   C3723     1.0  0.44201  0.88502  0.06302  1.0000
  C   C3724     1.0  0.43645  0.88978  0.07475  1.0000
  C   C3725     1.0  0.42356  0.88862  0.08146  1.0000
  C   C3726     1.0  0.41641  0.88272  0.07638  1.0000
  H   H2968     1.0  0.43965  0.87511  0.04921  1.0000
  H   H2969     1.0  0.45188  0.88592  0.05773  1.0000
  H   H2970     1.0  0.41911  0.89228  0.09050  1.0000
  H   H2971     1.0  0.40643  0.88195  0.08154  1.0000
  C   C3727     1.0  0.42309  0.79940  0.03912  1.0000
  C   C3728     1.0  0.42653  0.78551  0.04296  1.0000
  C   C3729     1.0  0.42260  0.77749  0.03710  1.0000
  C   C3730     1.0  0.41471  0.78335  0.02774  1.0000
  C   C3731     1.0  0.41137  0.79725  0.02384  1.0000
  C   C3732     1.0  0.41579  0.80527  0.02927  1.0000
  H   H2972     1.0  0.43213  0.78093  0.05062  1.0000
  H   H2973     1.0  0.42521  0.76680  0.04021  1.0000
  H   H2974     1.0  0.40523  0.80182  0.01668  1.0000
  H   H2975     1.0  0.41302  0.81596  0.02633  1.0000
  C   C3733     1.0  0.35404  0.84224  0.03658  1.0000
  H   H2976     1.0  0.35581  0.81612  0.06332  1.0000
  C   C3734     1.0  0.34835  0.95718  0.42210  1.0000
  C   C3735     1.0  0.42454  0.79518  0.98889  1.0000
  C   C3736     1.0  0.24966  0.90709  0.45631  1.0000
  H   H2977     1.0  0.36479  0.87767  0.46536  1.0000
  C   C3737     1.0  0.47355  0.89848  0.04028  1.0000
  C   C3738     1.0  0.42192  0.87347  0.35722  1.0000
  H   H2978     1.0  0.24891  0.91700  0.43605  1.0000
  C   C3739     1.0  0.44406  0.81720  0.22587  1.0000
  P   P124      1.0  0.29691  0.91136  0.45788  1.0000
  S   S512      1.0  0.23805  0.91336  0.41606  1.0000
  C   C3740     1.0  0.41985  0.98059  0.36599  1.0000
  H   H2979     1.0  0.33754  0.95364  0.36736  1.0000
  S   S513      1.0  0.45197  0.89064  0.21701  1.0000
  H   H2980     1.0  0.35123  0.96674  0.36749  1.0000
  H   H2981     1.0  0.42643  0.84014  0.99556  1.0000
  C   C3741     1.0  0.45394  0.96635  0.15450  1.0000
  H   H2982     1.0  0.46241  0.76333  0.01433  1.0000
  C   C3742     1.0  0.47222  0.89136  0.03181  1.0000
  H   H2983     1.0  0.39606  0.86886  0.30331  1.0000
  C   C3743     1.0  0.46891  0.97245  0.25087  1.0000
  H   H2984     1.0  0.44707  0.95861  0.37759  1.0000
  H   H2985     1.0  0.38730  0.85189  0.03151  1.0000
  H   H2986     1.0  0.40223  0.78484  0.06710  1.0000
  C   C3744     1.0  0.38667  0.89012  0.43843  1.0000
  C   C3745     1.0  0.47207  0.96682  0.32078  1.0000
  C   C3746     1.0  0.45950  0.74974  0.08685  1.0000
  H   H2987     1.0  0.44845  0.97574  0.08107  1.0000
  H   H2988     1.0  0.43767  0.85799  0.10900  1.0000
  C   C3747     1.0  0.25095  0.87570  0.45462  1.0000
  C   C3748     1.0  0.24437  0.90732  0.46976  1.0000
  H   H2989     1.0  0.48372  0.92774  0.21647  1.0000
  C   C3749     1.0  0.35836  0.91602  0.45589  1.0000
  C   C3750     1.0  0.44494  0.85892  0.17800  1.0000
  Fe  Fe257     1.0  0.23677  0.93393  0.41804  1.0000
  H   H2990     1.0  0.43197  0.86500  0.37342  1.0000
  C   C3751     1.0  0.45495  0.93230  0.36305  1.0000
  H   H2991     1.0  0.45677  0.87347  0.33434  1.0000
  H   H2992     1.0  0.44116  0.92502  0.35743  1.0000
  C   C3752     1.0  0.46353  0.96001  0.07334  1.0000
  H   H2993     1.0  0.41755  0.96606  0.43010  1.0000
  C   C3753     1.0  0.46514  0.92113  0.17041  1.0000
  C   C3754     1.0  0.41506  0.85885  0.33169  1.0000
  C   C3755     1.0  0.45485  0.83584  0.21847  1.0000
  C   C3756     1.0  0.37530  0.88571  0.44600  1.0000
  C   C3757     1.0  0.45388  0.75774  0.06148  1.0000
  H   H2994     1.0  0.42251  0.88937  0.30763  1.0000
  H   H2995     1.0  0.33419  0.90237  0.47876  1.0000
  H   H2996     1.0  0.41660  0.93167  0.29673  1.0000
  H   H2997     1.0  0.48236  0.94065  0.19382  1.0000
  H   H2998     1.0  0.46163  0.97738  0.12266  1.0000
  H   H2999     1.0  0.36309  0.91726  0.44549  1.0000
  C   C3758     1.0  0.35373  0.98253  0.41289  1.0000
  C   C3759     1.0  0.46900  0.86089  0.22725  1.0000
  C   C3760     1.0  0.44563  0.86877  0.35454  1.0000
  C   C3761     1.0  0.42323  0.87869  0.34343  1.0000
  H   H3000     1.0  0.44469  0.90188  0.26372  1.0000
  C   C3762     1.0  0.41818  0.89886  0.31042  1.0000
  C   C3763     1.0  0.35975  0.83157  0.04573  1.0000
  C   C3764     1.0  0.46445  0.97557  0.17965  1.0000
  H   H3001     1.0  0.45631  0.85986  0.27833  1.0000
  H   H3002     1.0  0.39251  0.97941  0.43883  1.0000
  C   C3765     1.0  0.43308  0.86873  0.36275  1.0000
  H   H3003     1.0  0.36007  0.84817  0.02866  1.0000
  H   H3004     1.0  0.46405  0.91178  0.25770  1.0000
  C   C3766     1.0  0.34023  0.96036  0.47927  1.0000
  C   C3767     1.0  0.38887  0.84620  0.02409  1.0000
  H   H3005     1.0  0.42568  0.94468  0.42281  1.0000
  H   H3006     1.0  0.32181  0.84043  0.04862  1.0000
  H   H3007     1.0  0.37124  0.92539  0.46036  1.0000
  C   C3768     1.0  0.43590  0.87853  0.33526  1.0000
  H   H3008     1.0  0.35423  0.98029  0.39338  1.0000
  Fe  Fe258     1.0  0.45927  0.90608  0.31114  1.0000
  H   H3009     1.0  0.23819  0.97182  0.45621  1.0000
  H   H3010     1.0  0.45692  0.79777  0.22734  1.0000
  H   H3011     1.0  0.46247  0.94349  0.09910  1.0000
  C   C3769     1.0  0.39463  0.85136  0.01088  1.0000
  H   H3012     1.0  0.44936  0.78590  0.00655  1.0000
  C   C3770     1.0  0.39511  0.78951  0.06088  1.0000
  C   C3771     1.0  0.33797  0.82744  0.05706  1.0000
  H   H3013     1.0  0.47980  0.85320  0.19666  1.0000
  C   C3772     1.0  0.47905  0.82429  0.99149  1.0000
  H   H3014     1.0  0.38437  0.81767  0.01979  1.0000
  C   C3773     1.0  0.34799  0.90942  0.46103  1.0000
  C   C3774     1.0  0.47981  0.97886  0.07220  1.0000
  H   H3015     1.0  0.40377  0.85726  0.46617  1.0000
  C   C3775     1.0  0.40161  0.87563  0.31766  1.0000
  H   H3016     1.0  0.40627  0.96715  0.35548  1.0000
  H   H3017     1.0  0.43895  0.97929  0.10681  1.0000
  H   H3018     1.0  0.45444  0.86437  0.11623  1.0000
  H   H3019     1.0  0.45737  0.93760  0.05998  1.0000
  C   C3776     1.0  0.41475  0.84930  0.32527  1.0000
  H   H3020     1.0  0.46163  0.74668  0.09669  1.0000
  H   H3021     1.0  0.42200  0.97976  0.16757  1.0000
  H   H3022     1.0  0.36395  0.94826  0.46603  1.0000
  C   C3777     1.0  0.45906  0.79188  0.03141  1.0000
  C   C3778     1.0  0.46574  0.77899  0.03642  1.0000
  H   H3023     1.0  0.32229  0.90332  0.43985  1.0000
  H   H3024     1.0  0.44118  0.97677  0.35931  1.0000
  H   H3025     1.0  0.44778  0.80422  0.01704  1.0000
  C   C3779     1.0  0.44034  0.96464  0.07278  1.0000
  C   C3780     1.0  0.41489  0.92278  0.30412  1.0000
  C   C3781     1.0  0.29672  0.89877  0.47307  1.0000
  H   H3026     1.0  0.37997  0.97752  0.29857  1.0000
  C   C3782     1.0  0.47825  0.96662  0.25883  1.0000
  H   H3027     1.0  0.32417  0.94420  0.43337  1.0000
  H   H3028     1.0  0.48027  0.86782  0.23651  1.0000
  C   C3783     1.0  0.37092  0.84271  0.06388  1.0000
  P   P125      1.0  0.41913  0.96448  0.37695  1.0000
  H   H3029     1.0  0.42039  0.85584  0.33960  1.0000
  C   C3784     1.0  0.44935  0.80604  0.06889  1.0000
  H   H3030     1.0  0.36900  0.96058  0.17964  1.0000
  C   C3785     1.0  0.46908  0.96120  0.09740  1.0000
  H   H3031     1.0  0.47280  0.76301  0.07932  1.0000
  H   H3032     1.0  0.39862  0.95300  0.39828  1.0000
  H   H3033     1.0  0.44599  0.96479  0.27118  1.0000
  C   C3786     1.0  0.38808  0.96079  0.36466  1.0000
  H   H3034     1.0  0.38371  0.90073  0.47780  1.0000
  S   S514      1.0  0.40833  0.77363  0.02128  1.0000
  H   H3035     1.0  0.39464  0.82680  0.99665  1.0000
  H   H3036     1.0  0.32253  0.95872  0.34197  1.0000
  C   C3787     1.0  0.39725  0.84163  0.06297  1.0000
  C   C3788     1.0  0.44751  0.74861  0.07139  1.0000
  H   H3037     1.0  0.45110  0.94194  0.12250  1.0000
  C   C3789     1.0  0.46788  0.81322  0.22068  1.0000
  C   C3790     1.0  0.29397  0.94941  0.35502  1.0000
  H   H3038     1.0  0.41237  0.87295  0.36377  1.0000
  C   C3791     1.0  0.38718  0.84908  0.07103  1.0000
  C   C3792     1.0  0.28100  0.92223  0.45706  1.0000
  H   H3039     1.0  0.33606  0.85361  0.03051  1.0000
  H   H3040     1.0  0.44371  0.84426  0.19626  1.0000
  C   C3793     1.0  0.41983  0.91042  0.30074  1.0000
  H   H3041     1.0  0.39238  0.95541  0.18106  1.0000
  C   C3794     1.0  0.38655  0.96543  0.18089  1.0000
  C   C3795     1.0  0.46592  0.94919  0.06740  1.0000
  C   C3796     1.0  0.37098  0.96547  0.46541  1.0000
  H   H3042     1.0  0.42653  0.94397  0.39973  1.0000
  C   C3797     1.0  0.28466  0.94465  0.35192  1.0000
  C   C3798     1.0  0.48164  0.93908  0.25646  1.0000
  C   C3799     1.0  0.31890  0.96690  0.34702  1.0000
  C   C3800     1.0  0.42262  0.96324  0.32117  1.0000
  C   C3801     1.0  0.41595  0.97548  0.31476  1.0000
  H   H3043     1.0  0.31019  0.92879  0.43518  1.0000
  P   P126      1.0  0.40511  0.97595  0.30444  1.0000
  C   C3802     1.0  0.41507  0.96805  0.29096  1.0000
  C   C3803     1.0  0.39148  0.96801  0.31362  1.0000
  C   C3804     1.0  0.39171  0.95912  0.32606  1.0000
  C   C3805     1.0  0.38127  0.95276  0.33260  1.0000
  C   C3806     1.0  0.37038  0.95539  0.32696  1.0000
  C   C3807     1.0  0.36992  0.96443  0.31477  1.0000
  C   C3808     1.0  0.38040  0.97070  0.30813  1.0000
  C   C3809     1.0  0.40994  0.96062  0.28554  1.0000
  C   C3810     1.0  0.41783  0.95464  0.27505  1.0000
  C   C3811     1.0  0.43086  0.95603  0.26994  1.0000
  C   C3812     1.0  0.43594  0.96357  0.27515  1.0000
  C   C3813     1.0  0.42814  0.96949  0.28565  1.0000
  C   C3814     1.0  0.45634  0.80837  0.22487  1.0000
  H   H3044     1.0  0.45259  0.92925  0.27057  1.0000
  H   H3045     1.0  0.46053  0.95713  0.15259  1.0000
  C   C3815     1.0  0.43314  0.95194  0.37135  1.0000
  C   C3816     1.0  0.44905  0.85825  0.08895  1.0000
  C   C3817     1.0  0.48440  0.84426  0.02920  1.0000
  H   H3046     1.0  0.44983  0.95916  0.13416  1.0000
  H   H3047     1.0  0.46055  0.86169  0.23547  1.0000
  C   C3818     1.0  0.39588  0.95518  0.38880  1.0000
  H   H3048     1.0  0.42154  0.95401  0.31984  1.0000
  C   C3819     1.0  0.45839  0.92040  0.15103  1.0000
  H   H3049     1.0  0.39989  0.95683  0.33080  1.0000
  H   H3050     1.0  0.38175  0.94562  0.34198  1.0000
  H   H3051     1.0  0.36237  0.95034  0.33199  1.0000
  C   C3820     1.0  0.32015  0.93862  0.44303  1.0000
  C   C3821     1.0  0.40121  0.85079  0.47578  1.0000
  H   H3052     1.0  0.39992  0.95933  0.28936  1.0000
  H   H3053     1.0  0.41393  0.94888  0.27083  1.0000
  C   C3822     1.0  0.40134  0.86606  0.31126  1.0000
  C   C3823     1.0  0.42322  0.95342  0.40269  1.0000
  H   H3054     1.0  0.43242  0.97515  0.28959  1.0000
  C   C3824     1.0  0.24057  0.88234  0.43583  1.0000
  H   H3055     1.0  0.45953  0.91564  0.14298  1.0000
  H   H3056     1.0  0.48519  0.93520  0.32904  1.0000
  C   C3825     1.0  0.44842  0.87096  0.17106  1.0000
  H   H3057     1.0  0.31059  0.98125  0.42986  1.0000
  H   H3058     1.0  0.45126  0.76075  0.05189  1.0000
  C   C3826     1.0  0.37752  0.80162  0.04404  1.0000
  H   H3059     1.0  0.39521  0.80901  0.06178  1.0000
  H   H3060     1.0  0.25486  0.93952  0.47632  1.0000
  S   S515      1.0  0.44092  0.74742  0.01789  1.0000
  H   H3061     1.0  0.47409  0.97855  0.09947  1.0000
  C   C3827     1.0  0.46752  0.76889  0.02974  1.0000
  C   C3828     1.0  0.37649  0.95425  0.44710  1.0000
  H   H3062     1.0  0.34741  0.95968  0.44168  1.0000
  C   C3829     1.0  0.31765  0.93298  0.46696  1.0000
  C   C3830     1.0  0.44280  0.95388  0.06690  1.0000
  C   C3831     1.0  0.44569  0.95147  0.37302  1.0000
  H   H3063     1.0  0.47166  0.91709  0.17724  1.0000
  H   H3064     1.0  0.48514  0.84076  0.08523  1.0000
  C   C3832     1.0  0.42269  0.95377  0.41579  1.0000
  C   C3833     1.0  0.41925  0.96515  0.39357  1.0000
  H   H3065     1.0  0.45429  0.86513  0.35880  1.0000
  C   C3834     1.0  0.43086  0.96278  0.32930  1.0000
  C   C3835     1.0  0.46857  0.85706  0.21589  1.0000
  H   H3066     1.0  0.37515  0.94675  0.44293  1.0000
  C   C3836     1.0  0.32296  0.94006  0.45444  1.0000
  C   C3837     1.0  0.41809  0.96581  0.41991  1.0000
  H   H3067     1.0  0.39574  0.97539  0.10274  1.0000
  H   H3068     1.0  0.45896  0.83522  0.99181  1.0000
  C   C3838     1.0  0.36296  0.92063  0.46434  1.0000
  H   H3069     1.0  0.46338  0.92481  0.35964  1.0000
  C   C3839     1.0  0.38627  0.97262  0.44481  1.0000
  C   C3840     1.0  0.28884  0.94968  0.40713  1.0000
  C   C3841     1.0  0.46586  0.75892  0.07697  1.0000
  H   H3070     1.0  0.48096  0.88168  0.26885  1.0000
  H   H3071     1.0  0.46194  0.85999  0.06966  1.0000
  H   H3072     1.0  0.36749  0.88630  0.44125  1.0000
  H   H3073     1.0  0.46210  0.86380  0.29742  1.0000
  H   H3074     1.0  0.33591  0.98125  0.38164  1.0000
  C   C3842     1.0  0.47741  0.89177  0.05227  1.0000
  C   C3843     1.0  0.46930  0.83530  0.98766  1.0000
  H   H3075     1.0  0.29545  0.95924  0.34991  1.0000
  C   C3844     1.0  0.44857  0.93184  0.15248  1.0000
  C   C3845     1.0  0.44671  0.93779  0.16317  1.0000
  C   C3846     1.0  0.45532  0.93257  0.17191  1.0000
  P   P127      1.0  0.43372  0.95228  0.16548  1.0000
  C   C3847     1.0  0.42166  0.95374  0.15602  1.0000
  C   C3848     1.0  0.42636  0.95009  0.18315  1.0000
  C   C3849     1.0  0.41690  0.94231  0.18924  1.0000
  C   C3850     1.0  0.41160  0.94046  0.20297  1.0000
  C   C3851     1.0  0.41593  0.94605  0.21081  1.0000
  C   C3852     1.0  0.42553  0.95353  0.20490  1.0000
  C   C3853     1.0  0.43069  0.95560  0.19117  1.0000
  C   C3854     1.0  0.41792  0.96556  0.14686  1.0000
  C   C3855     1.0  0.40924  0.96631  0.13903  1.0000
  C   C3856     1.0  0.40444  0.95523  0.14000  1.0000
  C   C3857     1.0  0.40820  0.94340  0.14892  1.0000
  C   C3858     1.0  0.41674  0.94265  0.15689  1.0000
  C   C3859     1.0  0.44050  0.96695  0.16044  1.0000
  C   C3860     1.0  0.46330  0.76282  0.06412  1.0000
  C   C3861     1.0  0.40794  0.85290  0.31503  1.0000
  C   C3862     1.0  0.45349  0.87768  0.17721  1.0000
  C   C3863     1.0  0.37401  0.84955  0.07156  1.0000
  H   H3076     1.0  0.44583  0.78998  0.06317  1.0000
  C   C3864     1.0  0.26207  0.97058  0.38930  1.0000
  C   C3865     1.0  0.45185  0.86015  0.19728  1.0000
  H   H3077     1.0  0.23814  0.87484  0.47390  1.0000
  H   H3078     1.0  0.44237  0.93583  0.14535  1.0000
  H   H3079     1.0  0.45444  0.93728  0.17990  1.0000
  H   H3080     1.0  0.41379  0.93727  0.18366  1.0000
  H   H3081     1.0  0.40457  0.93415  0.20762  1.0000
  H   H3082     1.0  0.41225  0.94414  0.22153  1.0000
  H   H3083     1.0  0.42930  0.95739  0.21104  1.0000
  H   H3084     1.0  0.43836  0.96114  0.18700  1.0000
  C   C3866     1.0  0.47499  0.96508  0.17661  1.0000
  Fe  Fe259     1.0  0.43922  0.73423  0.00576  1.0000
  H   H3085     1.0  0.39817  0.95566  0.13349  1.0000
  H   H3086     1.0  0.40486  0.93465  0.14932  1.0000
  H   H3087     1.0  0.42000  0.93316  0.16321  1.0000
  H   H3088     1.0  0.44127  0.98168  0.40572  1.0000
  C   C3867     1.0  0.45064  0.96770  0.07600  1.0000
  H   H3089     1.0  0.47557  0.94267  0.06579  1.0000
  C   C3868     1.0  0.38103  0.83536  0.05557  1.0000
  H   H3090     1.0  0.27276  0.97627  0.35559  1.0000
  C   C3869     1.0  0.37383  0.88074  0.45974  1.0000
  P   P128      1.0  0.40900  0.88457  0.33600  1.0000
  H   H3091     1.0  0.41986  0.83909  0.32821  1.0000
  H   H3092     1.0  0.42518  0.90977  0.29066  1.0000
  H   H3093     1.0  0.40217  0.82936  0.04879  1.0000
  C   C3870     1.0  0.45624  0.86325  0.10609  1.0000
  H   H3094     1.0  0.48018  0.86012  0.05000  1.0000
  C   C3871     1.0  0.45348  0.79439  0.02042  1.0000
  C   C3872     1.0  0.24457  0.91721  0.44639  1.0000
  Fe  Fe260     1.0  0.44134  0.92277  0.33071  1.0000
  C   C3873     1.0  0.38242  0.80955  0.04910  1.0000
  C   C3874     1.0  0.38164  0.78780  0.04712  1.0000
  C   C3875     1.0  0.45877  0.81242  0.06934  1.0000
  H   H3095     1.0  0.48127  0.86902  0.17246  1.0000
  C   C3876     1.0  0.26102  0.93598  0.46756  1.0000
  H   H3096     1.0  0.39642  0.88579  0.31465  1.0000
  Fe  Fe261     1.0  0.44650  0.89397  0.23785  1.0000
  S   S516      1.0  0.45902  0.90870  0.23341  1.0000
  C   C3877     1.0  0.44664  0.85351  0.19106  1.0000
  H   H3097     1.0  0.44166  0.85565  0.08571  1.0000
  C   C3878     1.0  0.34040  0.84540  0.03763  1.0000
  H   H3098     1.0  0.25782  0.89919  0.45351  1.0000
  C   C3879     1.0  0.43325  0.80358  0.98562  1.0000
  C   C3880     1.0  0.46660  0.91496  0.16005  1.0000
  C   C3881     1.0  0.36991  0.95532  0.46014  1.0000
  H   H3099     1.0  0.43894  0.81022  0.07204  1.0000
  C   C3882     1.0  0.45657  0.94180  0.36873  1.0000
  C   C3883     1.0  0.44244  0.93246  0.36172  1.0000
  C   C3884     1.0  0.47072  0.95950  0.31249  1.0000
  C   C3885     1.0  0.46671  0.78944  0.05901  1.0000
  C   C3886     1.0  0.41892  0.87741  0.22933  1.0000
  C   C3887     1.0  0.41736  0.87241  0.24306  1.0000
  C   C3888     1.0  0.42658  0.86149  0.24802  1.0000
  C   C3889     1.0  0.43743  0.85564  0.23925  1.0000
  C   C3890     1.0  0.43928  0.86084  0.22545  1.0000
  C   C3891     1.0  0.42985  0.87171  0.22053  1.0000
  P   P129      1.0  0.45372  0.85353  0.21432  1.0000
  H   H3100     1.0  0.45056  0.90585  0.28309  1.0000
  P   P130      1.0  0.37732  0.82747  0.04460  1.0000
  H   H3101     1.0  0.43472  0.95122  0.06487  1.0000
  C   C3892     1.0  0.45034  0.88059  0.26963  1.0000
  H   H3102     1.0  0.30355  0.97405  0.37752  1.0000
  H   H3103     1.0  0.46899  0.89653  0.02265  1.0000
  H   H3104     1.0  0.45584  0.88720  0.17192  1.0000
  C   C3893     1.0  0.47616  0.79563  0.05992  1.0000
  C   C3894     1.0  0.46267  0.95082  0.10419  1.0000
  C   C3895     1.0  0.46056  0.86092  0.07978  1.0000
  C   C3896     1.0  0.44329  0.83088  0.22269  1.0000
  H   H3105     1.0  0.40912  0.87713  0.24986  1.0000
  H   H3106     1.0  0.42557  0.85783  0.25868  1.0000
  H   H3107     1.0  0.44458  0.84731  0.24329  1.0000
  C   C3897     1.0  0.46778  0.86589  0.09695  1.0000
  C   C3898     1.0  0.41126  0.89958  0.32355  1.0000
  C   C3899     1.0  0.44855  0.89360  0.27105  1.0000
  S   S517      1.0  0.47172  0.83997  0.04265  1.0000
  C   C3900     1.0  0.31237  0.92978  0.44407  1.0000
  C   C3901     1.0  0.40519  0.97619  0.10363  1.0000
  C   C3902     1.0  0.39667  0.88949  0.44461  1.0000
  C   C3903     1.0  0.39662  0.84441  0.00100  1.0000
  C   C3904     1.0  0.38524  0.83389  0.02758  1.0000
  H   H3108     1.0  0.47345  0.87198  0.02893  1.0000
  H   H3109     1.0  0.44069  0.85394  0.17328  1.0000
  H   H3110     1.0  0.27854  0.95009  0.41193  1.0000
  C   C3905     1.0  0.46910  0.97053  0.10429  1.0000
  C   C3906     1.0  0.40830  0.92359  0.31719  1.0000
  C   C3907     1.0  0.40646  0.91206  0.32688  1.0000
  C   C3908     1.0  0.39387  0.88756  0.34847  1.0000
  C   C3909     1.0  0.39313  0.89423  0.35830  1.0000
  C   C3910     1.0  0.38182  0.89574  0.36849  1.0000
  C   C3911     1.0  0.37105  0.89085  0.36884  1.0000
  C   C3912     1.0  0.37154  0.88448  0.35895  1.0000
  C   C3913     1.0  0.38291  0.88278  0.34882  1.0000
  H   H3111     1.0  0.40499  0.93312  0.31996  1.0000
  H   H3112     1.0  0.40160  0.91298  0.33697  1.0000
  H   H3113     1.0  0.40144  0.89793  0.35834  1.0000
  H   H3114     1.0  0.38148  0.90050  0.37629  1.0000
  H   H3115     1.0  0.36234  0.89195  0.37685  1.0000
  H   H3116     1.0  0.36316  0.88065  0.35931  1.0000
  H   H3117     1.0  0.38312  0.87756  0.34146  1.0000
  S   S518      1.0  0.44621  0.92318  0.20700  1.0000
  H   H3118     1.0  0.40659  0.97534  0.13180  1.0000
  H   H3119     1.0  0.26158  0.87771  0.43409  1.0000
  S   S519      1.0  0.48310  0.90476  0.19831  1.0000
  H   H3120     1.0  0.41959  0.79211  0.99910  1.0000
  C   C3914     1.0  0.45330  0.79458  0.06379  1.0000
  H   H3121     1.0  0.41065  0.74944  0.98220  1.0000
  C   C3915     1.0  0.30198  0.90165  0.44533  1.0000
  C   C3916     1.0  0.43605  0.85493  0.98128  1.0000
  C   C3917     1.0  0.45560  0.95955  0.12412  1.0000
  C   C3918     1.0  0.27315  0.92710  0.46827  1.0000
  C   C3919     1.0  0.29294  0.89548  0.44355  1.0000
  C   C3920     1.0  0.29703  0.88681  0.43486  1.0000
  C   C3921     1.0  0.31020  0.88407  0.42807  1.0000
  C   C3922     1.0  0.31924  0.89015  0.42982  1.0000
  C   C3923     1.0  0.31515  0.89889  0.43844  1.0000
  H   H3122     1.0  0.44072  0.97388  0.33562  1.0000
  H   H3123     1.0  0.40324  0.88379  0.46295  1.0000
  H   H3124     1.0  0.34313  0.96450  0.46871  1.0000
  C   C3924     1.0  0.25683  0.94025  0.45555  1.0000
  C   C3925     1.0  0.26478  0.93577  0.44423  1.0000
  C   C3926     1.0  0.27685  0.92681  0.44495  1.0000
  H   H3125     1.0  0.46824  0.96764  0.24356  1.0000
  H   H3126     1.0  0.43510  0.81345  0.22910  1.0000
  C   C3927     1.0  0.38389  0.87994  0.46602  1.0000
  C   C3928     1.0  0.25197  0.87845  0.44087  1.0000
  H   H3127     1.0  0.46387  0.94645  0.27005  1.0000
  C   C3929     1.0  0.38403  0.95253  0.38857  1.0000
  C   C3930     1.0  0.30836  0.97537  0.36705  1.0000
  H   H3128     1.0  0.28275  0.89729  0.44894  1.0000
  H   H3129     1.0  0.28994  0.88239  0.43321  1.0000
  H   H3130     1.0  0.31332  0.87754  0.42116  1.0000
  H   H3131     1.0  0.47621  0.83042  0.21427  1.0000
  H   H3132     1.0  0.47128  0.90921  0.03771  1.0000
  H   H3133     1.0  0.47654  0.89080  0.12003  1.0000
  C   C3931     1.0  0.47217  0.80715  0.06497  1.0000
  H   H3134     1.0  0.24734  0.94689  0.45501  1.0000
  H   H3135     1.0  0.26140  0.93903  0.43499  1.0000
  H   H3136     1.0  0.28290  0.92350  0.43604  1.0000
  C   C3932     1.0  0.28856  0.92461  0.36887  1.0000
  C   C3933     1.0  0.28193  0.93229  0.35887  1.0000
  H   H3137     1.0  0.38926  0.96244  0.42913  1.0000
  H   H3138     1.0  0.46628  0.94163  0.36978  1.0000
  C   C3934     1.0  0.30072  0.94172  0.36502  1.0000
  C   C3935     1.0  0.29790  0.92933  0.37191  1.0000
  P   P131      1.0  0.31214  0.94794  0.36990  1.0000
  C   C3936     1.0  0.32887  0.93843  0.36596  1.0000
  C   C3937     1.0  0.37337  0.96834  0.18006  1.0000
  Fe  Fe262     1.0  0.47125  0.91425  0.32907  1.0000
  C   C3938     1.0  0.45445  0.78407  0.01444  1.0000
  Fe  Fe263     1.0  0.46019  0.93502  0.30691  1.0000
  H   H3139     1.0  0.37780  0.94832  0.39776  1.0000
  H   H3140     1.0  0.39303  0.98224  0.20536  1.0000
  C   C3939     1.0  0.33943  0.94407  0.36498  1.0000
  C   C3940     1.0  0.35246  0.93738  0.36100  1.0000
  C   C3941     1.0  0.35507  0.92494  0.35802  1.0000
  C   C3942     1.0  0.34465  0.91919  0.35907  1.0000
  C   C3943     1.0  0.33160  0.92589  0.36298  1.0000
  C   C3944     1.0  0.30666  0.94803  0.38746  1.0000
  C   C3945     1.0  0.31534  0.94897  0.39456  1.0000
  C   C3946     1.0  0.31076  0.95046  0.40774  1.0000
  C   C3947     1.0  0.29754  0.95072  0.41407  1.0000
  S   S520      1.0  0.47299  0.91941  0.11623  1.0000
  C   C3948     1.0  0.45517  0.87234  0.19026  1.0000
  H   H3141     1.0  0.28625  0.91515  0.37451  1.0000
  H   H3142     1.0  0.27437  0.92884  0.35681  1.0000
  H   H3143     1.0  0.43093  0.87602  0.20996  1.0000
  H   H3144     1.0  0.24141  0.88433  0.42516  1.0000
  H   H3145     1.0  0.30277  0.92340  0.37982  1.0000
  C   C3949     1.0  0.46884  0.93905  0.26419  1.0000
  H   H3146     1.0  0.48519  0.95217  0.13285  1.0000
  C   C3950     1.0  0.45824  0.87216  0.29013  1.0000
  C   C3951     1.0  0.40005  0.96321  0.36480  1.0000
  H   H3147     1.0  0.37913  0.73570  0.99116  1.0000
  P   P132      1.0  0.47134  0.77509  0.05171  1.0000
  H   H3148     1.0  0.37102  0.95313  0.37642  1.0000
  H   H3149     1.0  0.36516  0.91959  0.35526  1.0000
  H   H3150     1.0  0.34663  0.90933  0.35724  1.0000
  H   H3151     1.0  0.32379  0.92109  0.36383  1.0000
  H   H3152     1.0  0.32560  0.94885  0.38992  1.0000
  C   C3952     1.0  0.45560  0.94621  0.06414  1.0000
  H   H3153     1.0  0.29399  0.95187  0.42430  1.0000
  H   H3154     1.0  0.47421  0.90610  0.15884  1.0000
  C   C3953     1.0  0.34895  0.96416  0.43114  1.0000
  H   H3155     1.0  0.27908  0.95081  0.34459  1.0000
  S   S521      1.0  0.44709  0.87717  0.25586  1.0000
  H   H3156     1.0  0.40743  0.84139  0.06251  1.0000
  H   H3157     1.0  0.37068  0.80609  0.03753  1.0000
  H   H3158     1.0  0.36066  0.84343  0.06430  1.0000
  S   S522      1.0  0.46193  0.88701  0.30487  1.0000
  H   H3159     1.0  0.47751  0.96188  0.32851  1.0000
  C   C3954     1.0  0.39114  0.80334  0.05770  1.0000
  H   H3160     1.0  0.32931  0.94659  0.45357  1.0000
  C   C3955     1.0  0.44704  0.87349  0.34078  1.0000
  P   P133      1.0  0.47610  0.96269  0.07978  1.0000
  H   H3161     1.0  0.28627  0.94817  0.38855  1.0000
  S   S523      1.0  0.45682  0.93371  0.32875  1.0000
  H   H3162     1.0  0.45569  0.82163  0.07276  1.0000
  S   S524      1.0  0.47599  0.91628  0.30692  1.0000
  C   C3956     1.0  0.31291  0.96466  0.36067  1.0000
  C   C3957     1.0  0.43159  0.94227  0.36574  1.0000
  H   H3163     1.0  0.42206  0.94215  0.36447  1.0000
  S   S525      1.0  0.41671  0.73531  0.04081  1.0000
  C   C3958     1.0  0.45613  0.94992  0.11752  1.0000
  C   C3959     1.0  0.46165  0.77136  0.01895  1.0000
  C   C3960     1.0  0.38450  0.96303  0.43936  1.0000
  C   C3961     1.0  0.48026  0.86441  0.22790  1.0000
  H   H3164     1.0  0.47799  0.89755  0.05877  1.0000
  H   H3165     1.0  0.47349  0.89222  0.08335  1.0000
  C   C3962     1.0  0.46716  0.82690  0.21748  1.0000
  H   H3166     1.0  0.47601  0.81584  0.99878  1.0000
  C   C3963     1.0  0.48001  0.87784  0.05589  1.0000
  H   H3167     1.0  0.25978  0.87281  0.45856  1.0000
  C   C3964     1.0  0.42964  0.84439  0.98509  1.0000
  H   H3168     1.0  0.47284  0.75892  0.03334  1.0000
  C   C3965     1.0  0.46249  0.92924  0.26460  1.0000
  H   H3169     1.0  0.40103  0.84847  0.99077  1.0000
  H   H3170     1.0  0.36151  0.96641  0.31035  1.0000
  H   H3171     1.0  0.31747  0.89596  0.47244  1.0000
  H   H3172     1.0  0.32574  0.97792  0.44989  1.0000
  H   H3173     1.0  0.44047  0.74455  0.06914  1.0000
  H   H3174     1.0  0.43033  0.97028  0.07536  1.0000
  C   C3966     1.0  0.32024  0.97967  0.33986  1.0000
  H   H3175     1.0  0.30275  0.97922  0.41102  1.0000
  C   C3967     1.0  0.43354  0.97443  0.33009  1.0000
  C   C3968     1.0  0.47862  0.87081  0.04729  1.0000
  H   H3176     1.0  0.36162  0.97605  0.34414  1.0000
  C   C3969     1.0  0.26707  0.98015  0.39184  1.0000
  C   C3970     1.0  0.34216  0.90754  0.47470  1.0000
  C   C3971     1.0  0.34886  0.97730  0.36340  1.0000
  H   H3177     1.0  0.30558  0.91904  0.47784  1.0000
  H   H3178     1.0  0.38108  0.98129  0.46188  1.0000
  H   H3179     1.0  0.24072  0.97146  0.47860  1.0000
  C   C3972     1.0  0.39224  0.97543  0.18132  1.0000
  H   H3180     1.0  0.41546  0.83383  0.46979  1.0000
  H   H3181     1.0  0.30185  0.97800  0.45453  1.0000
  H   H3182     1.0  0.40251  0.97298  0.18182  1.0000
  C   C3973     1.0  0.30832  0.89295  0.47785  1.0000
  H   H3183     1.0  0.27645  0.92409  0.47753  1.0000
  C   C3974     1.0  0.41056  0.98199  0.21107  1.0000
  C   C3975     1.0  0.46632  0.98039  0.31916  1.0000
  H   H3184     1.0  0.26545  0.98126  0.40193  1.0000
  H   H3185     1.0  0.31988  0.93403  0.47581  1.0000
  H   H3186     1.0  0.47493  0.86871  0.10031  1.0000
  C   C3976     1.0  0.40788  0.83746  0.47780  1.0000
  C   C3977     1.0  0.43232  0.97910  0.16287  1.0000
  H   H3187     1.0  0.46924  0.97745  0.14589  1.0000
  H   H3188     1.0  0.48408  0.95468  0.23013  1.0000
  H   H3189     1.0  0.32476  0.98134  0.32932  1.0000
  C   C3978     1.0  0.48408  0.88980  0.08244  1.0000
  C   C3979     1.0  0.48180  0.91915  0.24992  1.0000
  H   H3190     1.0  0.40862  0.97472  0.22031  1.0000
  H   H3191     1.0  0.47947  0.77858  0.99306  1.0000
  H   H3192     1.0  0.48332  0.88945  0.17755  1.0000
  H   H3193     1.0  0.41442  0.78513  0.98183  1.0000
  C   C3980     1.0  0.31878  0.98278  0.45747  1.0000
  C   C3981     1.0  0.30539  0.98284  0.46004  1.0000
  C   C3982     1.0  0.35480  0.98258  0.35033  1.0000
  Fe  Fe264     1.0  0.46284  0.85187  0.90977  1.0000
  S   S526      1.0  0.44293  0.86436  0.91694  1.0000
  C   C3983     1.0  0.42187  0.79091  0.97895  1.0000
  Fe  Fe265     1.0  0.45118  0.83185  0.90396  1.0000
  S   S527      1.0  0.43047  0.84233  0.91111  1.0000
  S   S528      1.0  0.45820  0.81362  0.89527  1.0000
  Fe  Fe266     1.0  0.43753  0.86096  0.89950  1.0000
  S   S529      1.0  0.42644  0.87470  0.88400  1.0000
  H   H3194     1.0  0.47563  0.87267  0.63148  1.0000
  S   S530      1.0  0.45796  0.85018  0.89148  1.0000
  S   S531      1.0  0.45804  0.83247  0.92165  1.0000
  Fe  Fe267     1.0  0.43635  0.94340  0.83928  1.0000
  S   S532      1.0  0.45515  0.93460  0.82640  1.0000
  S   S533      1.0  0.43170  0.93459  0.86147  1.0000
  Fe  Fe268     1.0  0.44377  0.94143  0.81017  1.0000
  S   S534      1.0  0.44807  0.92774  0.79609  1.0000
  Fe  Fe269     1.0  0.45898  0.95506  0.82013  1.0000
  S   S535      1.0  0.47735  0.96184  0.81807  1.0000
  S   S536      1.0  0.44925  0.96119  0.80286  1.0000
  P   P134      1.0  0.45723  0.88176  0.83057  1.0000
  Fe  Fe270     1.0  0.24882  0.90063  0.50085  1.0000
  S   S537      1.0  0.24849  0.88595  0.52035  1.0000
  C   C3984     1.0  0.34824  0.95936  0.48797  1.0000
  Fe  Fe271     1.0  0.26302  0.89573  0.52333  1.0000
  S   S538      1.0  0.27990  0.88132  0.53202  1.0000
  S   S539      1.0  0.26457  0.90913  0.50305  1.0000
  Fe  Fe272     1.0  0.34579  0.89908  0.53527  1.0000
  S   S540      1.0  0.33762  0.91848  0.52282  1.0000
  S   S541      1.0  0.33472  0.88247  0.54232  1.0000
  Fe  Fe273     1.0  0.37107  0.90741  0.53461  1.0000
  S   S542      1.0  0.36457  0.92730  0.52188  1.0000
  S   S543      1.0  0.39195  0.90357  0.53758  1.0000
  Fe  Fe274     1.0  0.34478  0.92717  0.53552  1.0000
  S   S544      1.0  0.33217  0.94517  0.54301  1.0000
  Fe  Fe275     1.0  0.35816  0.91680  0.51040  1.0000
  C   C3985     1.0  0.27118  0.86178  0.60031  1.0000
  S   S545      1.0  0.35144  0.90787  0.54918  1.0000
  S   S546      1.0  0.36615  0.89667  0.52196  1.0000
  Fe  Fe276     1.0  0.42376  0.92402  0.61827  1.0000
  S   S547      1.0  0.44035  0.93418  0.60745  1.0000
  S   S548      1.0  0.41182  0.92246  0.63944  1.0000
  Fe  Fe277     1.0  0.42220  0.91581  0.59332  1.0000
  S   S549      1.0  0.43922  0.92496  0.58036  1.0000
  S   S550      1.0  0.40609  0.90814  0.58981  1.0000
  Fe  Fe278     1.0  0.44881  0.91655  0.59807  1.0000
  S   S551      1.0  0.47053  0.90753  0.59722  1.0000
  Fe  Fe279     1.0  0.42974  0.94187  0.59066  1.0000
  S   S552      1.0  0.42592  0.96299  0.57943  1.0000
  S   S553      1.0  0.43278  0.90564  0.61011  1.0000
  S   S554      1.0  0.41235  0.93348  0.60232  1.0000
  Fe  Fe280     1.0  0.43326  0.93865  0.69856  1.0000
  S   S555      1.0  0.45094  0.94452  0.68407  1.0000
  S   S556      1.0  0.41826  0.93122  0.69334  1.0000
  C   C3986     1.0  0.46603  0.89081  0.83565  1.0000
  H   H3195     1.0  0.41985  0.93972  0.56318  1.0000
  C   C3987     1.0  0.44029  0.89042  0.83085  1.0000
  C   C3988     1.0  0.47853  0.89241  0.88013  1.0000
  H   H3196     1.0  0.46719  0.88495  0.90849  1.0000
  H   H3197     1.0  0.42205  0.92169  0.82229  1.0000
  C   C3989     1.0  0.46412  0.88093  0.81334  1.0000
  S   S557      1.0  0.44402  0.92690  0.71489  1.0000
  H   H3198     1.0  0.46035  0.86162  0.81541  1.0000
  Fe  Fe281     1.0  0.42922  0.75793  0.89973  1.0000
  S   S558      1.0  0.43668  0.75484  0.91802  1.0000
  S   S559      1.0  0.42037  0.77939  0.89190  1.0000
  H   H3199     1.0  0.41888  0.75558  0.87137  1.0000
  H   H3200     1.0  0.43652  0.96768  0.66896  1.0000
  H   H3201     1.0  0.34152  0.85573  0.49905  1.0000
  H   H3202     1.0  0.46059  0.91303  0.85494  1.0000
  C   C3990     1.0  0.39900  0.94689  0.56979  1.0000
  C   C3991     1.0  0.41006  0.81594  0.94787  1.0000
  H   H3203     1.0  0.46545  0.75353  0.95981  1.0000
  S   S560      1.0  0.36357  0.92426  0.48821  1.0000
  S   S561      1.0  0.44787  0.74684  0.88856  1.0000
  C   C3992     1.0  0.45928  0.89921  0.84446  1.0000
  C   C3993     1.0  0.45865  0.86572  0.84195  1.0000
  H   H3204     1.0  0.44454  0.92610  0.75183  1.0000
  Fe  Fe282     1.0  0.45469  0.74266  0.90743  1.0000
  C   C3994     1.0  0.47718  0.92031  0.87500  1.0000
  C   C3995     1.0  0.41422  0.90402  0.82983  1.0000
  H   H3205     1.0  0.38656  0.95189  0.62002  1.0000
  H   H3206     1.0  0.39936  0.83626  0.94425  1.0000
  H   H3207     1.0  0.44620  0.91296  0.64592  1.0000
  C   C3996     1.0  0.42427  0.91102  0.82586  1.0000
  H   H3208     1.0  0.44153  0.87208  0.85690  1.0000
  H   H3209     1.0  0.38182  0.96354  0.59800  1.0000
  H   H3210     1.0  0.42099  0.79656  0.92488  1.0000
  C   C3997     1.0  0.46599  0.90638  0.84829  1.0000
  C   C3998     1.0  0.43995  0.78301  0.94204  1.0000
  H   H3211     1.0  0.43889  0.76231  0.95007  1.0000
  C   C3999     1.0  0.44201  0.93210  0.75915  1.0000
  C   C4000     1.0  0.38524  0.94526  0.55623  1.0000
  H   H3212     1.0  0.45957  0.75361  0.93539  1.0000
  C   C4001     1.0  0.47983  0.97858  0.76164  1.0000
  C   C4002     1.0  0.43724  0.90427  0.82638  1.0000
  H   H3213     1.0  0.47571  0.91902  0.80674  1.0000
  H   H3214     1.0  0.47266  0.76895  0.91890  1.0000
  C   C4003     1.0  0.43950  0.80755  0.97233  1.0000
  H   H3215     1.0  0.46436  0.80840  0.94855  1.0000
  H   H3216     1.0  0.25580  0.84980  0.53083  1.0000
  C   C4004     1.0  0.47450  0.97958  0.78498  1.0000
  C   C4005     1.0  0.23805  0.86486  0.55637  1.0000
  H   H3217     1.0  0.30821  0.97693  0.52090  1.0000
  C   C4006     1.0  0.33163  0.95104  0.50658  1.0000
  H   H3218     1.0  0.46564  0.93633  0.59011  1.0000
  H   H3219     1.0  0.46336  0.97656  0.71026  1.0000
  C   C4007     1.0  0.41613  0.80509  0.92931  1.0000
  C   C4008     1.0  0.41471  0.92537  0.65373  1.0000
  C   C4009     1.0  0.42374  0.93273  0.65339  1.0000
  C   C4010     1.0  0.42497  0.93491  0.66541  1.0000
  C   C4011     1.0  0.41730  0.92958  0.67768  1.0000
  C   C4012     1.0  0.40818  0.92256  0.67781  1.0000
  C   C4013     1.0  0.40689  0.92050  0.66597  1.0000
  H   H3220     1.0  0.42964  0.93678  0.64393  1.0000
  H   H3221     1.0  0.43186  0.94060  0.66519  1.0000
  H   H3222     1.0  0.40215  0.91851  0.68718  1.0000
  H   H3223     1.0  0.39979  0.91498  0.66634  1.0000
  H   H3224     1.0  0.48049  0.80848  0.92454  1.0000
  H   H3225     1.0  0.24482  0.93767  0.53394  1.0000
  C   C4014     1.0  0.46621  0.90121  0.64295  1.0000
  C   C4015     1.0  0.45279  0.90427  0.64269  1.0000
  H   H3226     1.0  0.41950  0.95701  0.60825  1.0000
  C   C4016     1.0  0.41878  0.97314  0.59098  1.0000
  C   C4017     1.0  0.39134  0.85557  0.48609  1.0000
  H   H3227     1.0  0.27635  0.88026  0.49622  1.0000
  C   C4018     1.0  0.40374  0.82746  0.94018  1.0000
  C   C4019     1.0  0.37351  0.93444  0.60087  1.0000
  H   H3228     1.0  0.46694  0.90106  0.80739  1.0000
  H   H3229     1.0  0.34197  0.91116  0.49362  1.0000
  S   S562      1.0  0.42762  0.83900  0.94967  1.0000
  C   C4020     1.0  0.26408  0.85493  0.54428  1.0000
  C   C4021     1.0  0.29660  0.87872  0.49639  1.0000
  C   C4022     1.0  0.39559  0.90577  0.55188  1.0000
  C   C4023     1.0  0.40874  0.90512  0.55191  1.0000
  C   C4024     1.0  0.41209  0.90638  0.56326  1.0000
  C   C4025     1.0  0.40230  0.90810  0.57475  1.0000
  C   C4026     1.0  0.38916  0.90875  0.57469  1.0000
  C   C4027     1.0  0.38577  0.90779  0.56326  1.0000
  H   H3230     1.0  0.41641  0.90347  0.54319  1.0000
  H   H3231     1.0  0.42226  0.90562  0.56326  1.0000
  H   H3232     1.0  0.38159  0.90978  0.58363  1.0000
  H   H3233     1.0  0.37564  0.90821  0.56340  1.0000
  C   C4028     1.0  0.34104  0.95726  0.54095  1.0000
  C   C4029     1.0  0.35483  0.95431  0.53794  1.0000
  C   C4030     1.0  0.36168  0.96432  0.53561  1.0000
  H   H3234     1.0  0.38889  0.96765  0.51265  1.0000
  C   C4031     1.0  0.37402  0.96007  0.49240  1.0000
  C   C4032     1.0  0.33419  0.97002  0.54245  1.0000
  H   H3235     1.0  0.36025  0.94430  0.53777  1.0000
  H   H3236     1.0  0.37232  0.96203  0.53324  1.0000
  C   C4033     1.0  0.37670  0.92772  0.61313  1.0000
  H   H3237     1.0  0.32361  0.97217  0.54546  1.0000
  S   S563      1.0  0.48214  0.92383  0.69276  1.0000
  C   C4034     1.0  0.29503  0.88265  0.53432  1.0000
  C   C4035     1.0  0.30028  0.89403  0.52888  1.0000
  C   C4036     1.0  0.31252  0.89427  0.53109  1.0000
  C   C4037     1.0  0.31948  0.88309  0.53877  1.0000
  C   C4038     1.0  0.31414  0.87180  0.54411  1.0000
  C   C4039     1.0  0.30207  0.87157  0.54188  1.0000
  H   H3238     1.0  0.29496  0.90247  0.52288  1.0000
  H   H3239     1.0  0.31658  0.90302  0.52688  1.0000
  H   H3240     1.0  0.31940  0.86311  0.55002  1.0000
  H   H3241     1.0  0.29816  0.86270  0.54608  1.0000
  C   C4040     1.0  0.39645  0.93964  0.54768  1.0000
  C   C4041     1.0  0.24071  0.85899  0.54551  1.0000
  H   H3242     1.0  0.24225  0.97272  0.50255  1.0000
  H   H3243     1.0  0.38924  0.76937  0.95141  1.0000
  H   H3244     1.0  0.47602  0.79817  0.87796  1.0000
  H   H3245     1.0  0.45644  0.87814  0.87507  1.0000
  C   C4042     1.0  0.47311  0.93339  0.75270  1.0000
  C   C4043     1.0  0.43787  0.85540  0.95790  1.0000
  C   C4044     1.0  0.43139  0.95278  0.76612  1.0000
  H   H3246     1.0  0.24429  0.96148  0.56944  1.0000
  C   C4045     1.0  0.44272  0.93450  0.78097  1.0000
  C   C4046     1.0  0.44580  0.92672  0.77148  1.0000
  H   H3247     1.0  0.47030  0.79241  0.97277  1.0000
  C   C4047     1.0  0.43490  0.94521  0.75640  1.0000
  C   C4048     1.0  0.43712  0.80303  0.96236  1.0000
  C   C4049     1.0  0.43545  0.94754  0.77827  1.0000
  H   H3248     1.0  0.45127  0.91657  0.77359  1.0000
  H   H3249     1.0  0.44488  0.90988  0.82314  1.0000
  H   H3250     1.0  0.31439  0.94912  0.50166  1.0000
  H   H3251     1.0  0.43286  0.95356  0.78559  1.0000
  H   H3252     1.0  0.45357  0.94484  0.86185  1.0000
  H   H3253     1.0  0.48030  0.95182  0.58534  1.0000
  H   H3254     1.0  0.40925  0.81682  0.91168  1.0000
  C   C4050     1.0  0.46331  0.93917  0.86315  1.0000
  C   C4051     1.0  0.46462  0.92767  0.87323  1.0000
  C   C4052     1.0  0.38242  0.94724  0.61490  1.0000
  C   C4053     1.0  0.42760  0.89145  0.87804  1.0000
  C   C4054     1.0  0.42428  0.89842  0.86581  1.0000
  C   C4055     1.0  0.42549  0.91167  0.86061  1.0000
  C   C4056     1.0  0.42988  0.91805  0.86771  1.0000
  C   C4057     1.0  0.43269  0.91123  0.88018  1.0000
  C   C4058     1.0  0.43167  0.89792  0.88528  1.0000
  H   H3255     1.0  0.42087  0.89353  0.86028  1.0000
  H   H3256     1.0  0.42300  0.91697  0.85115  1.0000
  H   H3257     1.0  0.43569  0.91623  0.88593  1.0000
  H   H3258     1.0  0.43390  0.89271  0.89489  1.0000
  C   C4059     1.0  0.44722  0.80446  0.89465  1.0000
  C   C4060     1.0  0.43424  0.81044  0.89337  1.0000
  C   C4061     1.0  0.42605  0.80283  0.89222  1.0000
  C   C4062     1.0  0.43073  0.78919  0.89265  1.0000
  C   C4063     1.0  0.44374  0.78332  0.89384  1.0000
  C   C4064     1.0  0.45194  0.79091  0.89473  1.0000
  H   H3259     1.0  0.43059  0.82094  0.89305  1.0000
  H   H3260     1.0  0.41607  0.80747  0.89112  1.0000
  H   H3261     1.0  0.44760  0.77289  0.89396  1.0000
  H   H3262     1.0  0.46195  0.78613  0.89569  1.0000
  S   S564      1.0  0.24709  0.91059  0.53336  1.0000
  H   H3263     1.0  0.42556  0.96276  0.76420  1.0000
  C   C4065     1.0  0.34262  0.74253  0.90671  1.0000
  H   H3264     1.0  0.25914  0.87998  0.59184  1.0000
  H   H3265     1.0  0.47641  0.74571  0.88131  1.0000
  H   H3266     1.0  0.28223  0.84220  0.60738  1.0000
  H   H3267     1.0  0.38070  0.85028  0.50654  1.0000
  C   C4066     1.0  0.46077  0.89903  0.69501  1.0000
  H   H3268     1.0  0.46461  0.79314  0.91685  1.0000
  H   H3269     1.0  0.36436  0.85590  0.48618  1.0000
  H   H3270     1.0  0.33251  0.74815  0.90824  1.0000
  H   H3271     1.0  0.46524  0.85529  0.97617  1.0000
  C   C4067     1.0  0.24322  0.94831  0.53067  1.0000
  C   C4068     1.0  0.48429  0.96015  0.61593  1.0000
  H   H3272     1.0  0.37689  0.97162  0.75309  1.0000
  C   C4069     1.0  0.47937  0.97896  0.69313  1.0000
  S   S565      1.0  0.24768  0.94479  0.50515  1.0000
  C   C4070     1.0  0.38941  0.88178  0.49095  1.0000
  H   H3273     1.0  0.45837  0.73524  0.95688  1.0000
  C   C4071     1.0  0.47334  0.89375  0.68819  1.0000
  H   H3274     1.0  0.39526  0.93071  0.50122  1.0000
  H   H3275     1.0  0.25484  0.92523  0.55771  1.0000
  H   H3276     1.0  0.46549  0.96372  0.73262  1.0000
  H   H3277     1.0  0.27530  0.86657  0.60535  1.0000
  C   C4072     1.0  0.38848  0.89548  0.48601  1.0000
  C   C4073     1.0  0.39972  0.88271  0.50806  1.0000
  S   S566      1.0  0.44673  0.98249  0.68094  1.0000
  C   C4074     1.0  0.41437  0.77762  0.95846  1.0000
  C   C4075     1.0  0.26064  0.84940  0.58724  1.0000
  C   C4076     1.0  0.47064  0.97897  0.77381  1.0000
  S   S567      1.0  0.47325  0.74614  0.90938  1.0000
  H   H3278     1.0  0.48041  0.96917  0.69159  1.0000
  H   H3279     1.0  0.32818  0.94774  0.51721  1.0000
  H   H3280     1.0  0.40236  0.78641  0.94370  1.0000
  H   H3281     1.0  0.44511  0.86855  0.96466  1.0000
  C   C4077     1.0  0.24112  0.91325  0.56991  1.0000
  C   C4078     1.0  0.25313  0.91528  0.56143  1.0000
  C   C4079     1.0  0.40341  0.82775  0.92716  1.0000
  P   P135      1.0  0.47890  0.90524  0.88775  1.0000
  H   H3282     1.0  0.47588  0.88105  0.77547  1.0000
  H   H3283     1.0  0.37892  0.94103  0.48717  1.0000
  H   H3284     1.0  0.46853  0.86147  0.79148  1.0000
  C   C4080     1.0  0.37960  0.95386  0.60243  1.0000
  C   C4081     1.0  0.42841  0.79450  0.96559  1.0000
  C   C4082     1.0  0.36548  0.87314  0.49213  1.0000
  H   H3285     1.0  0.40943  0.88476  0.83700  1.0000
  H   H3286     1.0  0.48161  0.76645  0.94525  1.0000
  C   C4083     1.0  0.40482  0.97545  0.53916  1.0000
  C   C4084     1.0  0.34659  0.91243  0.48313  1.0000
  H   H3287     1.0  0.31705  0.87898  0.49346  1.0000
  C   C4085     1.0  0.34571  0.93748  0.57378  1.0000
  C   C4086     1.0  0.33951  0.87289  0.50665  1.0000
  H   H3288     1.0  0.38509  0.97668  0.61111  1.0000
  H   H3289     1.0  0.38431  0.92858  0.62928  1.0000
  C   C4087     1.0  0.47680  0.89736  0.67428  1.0000
  C   C4088     1.0  0.25682  0.86324  0.58587  1.0000
  H   H3290     1.0  0.39254  0.82682  0.50995  1.0000
  H   H3291     1.0  0.47678  0.85638  0.83004  1.0000
  P   P136      1.0  0.42458  0.78976  0.95239  1.0000
  P   P137      1.0  0.37201  0.95568  0.57888  1.0000
  C   C4089     1.0  0.46585  0.90617  0.90252  1.0000
  C   C4090     1.0  0.45963  0.91837  0.90616  1.0000
  C   C4091     1.0  0.44958  0.91893  0.91768  1.0000
  C   C4092     1.0  0.44586  0.90731  0.92574  1.0000
  C   C4093     1.0  0.45227  0.89510  0.92237  1.0000
  C   C4094     1.0  0.46228  0.89451  0.91087  1.0000
  H   H3292     1.0  0.45207  0.87875  0.63024  1.0000
  P   P138      1.0  0.36205  0.96733  0.48206  1.0000
  H   H3293     1.0  0.39567  0.86500  0.50635  1.0000
  C   C4095     1.0  0.44741  0.79159  0.93255  1.0000
  C   C4096     1.0  0.46785  0.89213  0.80414  1.0000
  C   C4097     1.0  0.41699  0.96761  0.60469  1.0000
  H   H3294     1.0  0.46251  0.92744  0.90014  1.0000
  C   C4098     1.0  0.39901  0.75839  0.96739  1.0000
  H   H3295     1.0  0.44466  0.92838  0.92035  1.0000
  H   H3296     1.0  0.43804  0.90772  0.93464  1.0000
  H   H3297     1.0  0.44947  0.88604  0.92866  1.0000
  C   C4099     1.0  0.48495  0.79515  0.87088  1.0000
  C   C4100     1.0  0.39660  0.97487  0.74780  1.0000
  C   C4101     1.0  0.46786  0.90671  0.66711  1.0000
  C   C4102     1.0  0.28563  0.97681  0.50186  1.0000
  H   H3298     1.0  0.27281  0.83121  0.59587  1.0000
  C   C4103     1.0  0.47433  0.88950  0.63935  1.0000
  C   C4104     1.0  0.35921  0.86344  0.49187  1.0000
  C   C4105     1.0  0.26204  0.86936  0.59259  1.0000
  C   C4106     1.0  0.46184  0.93828  0.65039  1.0000
  C   C4107     1.0  0.45603  0.95146  0.64538  1.0000
  C   C4108     1.0  0.26978  0.84186  0.59498  1.0000
  C   C4109     1.0  0.46643  0.88961  0.88086  1.0000
  H   H3299     1.0  0.44787  0.91822  0.66867  1.0000
  H   H3300     1.0  0.44522  0.73488  0.94145  1.0000
  H   H3301     1.0  0.37219  0.97779  0.49933  1.0000
  H   H3302     1.0  0.45526  0.94891  0.61471  1.0000
  C   C4110     1.0  0.48593  0.78502  0.86466  1.0000
  C   C4111     1.0  0.46929  0.78403  0.96971  1.0000
  H   H3303     1.0  0.44583  0.81451  0.96970  1.0000
  C   C4112     1.0  0.46638  0.97988  0.58081  1.0000
  H   H3304     1.0  0.46391  0.93546  0.66022  1.0000
  H   H3305     1.0  0.45353  0.95875  0.65139  1.0000
  H   H3306     1.0  0.48520  0.88244  0.82467  1.0000
  C   C4113     1.0  0.48473  0.92231  0.80144  1.0000
  C   C4114     1.0  0.39034  0.94106  0.50060  1.0000
  C   C4115     1.0  0.47219  0.89212  0.79056  1.0000
  C   C4116     1.0  0.24038  0.95621  0.54000  1.0000
  C   C4117     1.0  0.41566  0.97001  0.67151  1.0000
  C   C4118     1.0  0.40429  0.97756  0.66698  1.0000
  H   H3307     1.0  0.23980  0.95162  0.55043  1.0000
  P   P139      1.0  0.38858  0.97308  0.67473  1.0000
  C   C4119     1.0  0.38590  0.96256  0.66565  1.0000
  C   C4120     1.0  0.38881  0.96491  0.69196  1.0000
  C   C4121     1.0  0.38862  0.95138  0.69674  1.0000
  C   C4122     1.0  0.38950  0.94517  0.70992  1.0000
  C   C4123     1.0  0.39104  0.95224  0.71829  1.0000
  C   C4124     1.0  0.39149  0.96562  0.71356  1.0000
  C   C4125     1.0  0.39031  0.97191  0.70049  1.0000
  C   C4126     1.0  0.37559  0.95575  0.67097  1.0000
  C   C4127     1.0  0.37392  0.94715  0.66422  1.0000
  C   C4128     1.0  0.38242  0.94541  0.65205  1.0000
  C   C4129     1.0  0.39248  0.95240  0.64652  1.0000
  C   C4130     1.0  0.39427  0.96089  0.65329  1.0000
  C   C4131     1.0  0.44869  0.73302  0.96083  1.0000
  P   P140      1.0  0.24515  0.87297  0.57571  1.0000
  C   C4132     1.0  0.30308  0.97292  0.53084  1.0000
  H   H3308     1.0  0.27280  0.98269  0.58948  1.0000
  P   P141      1.0  0.47491  0.97697  0.74746  1.0000
  C   C4133     1.0  0.23866  0.90047  0.57442  1.0000
  H   H3309     1.0  0.32558  0.94577  0.57199  1.0000
  H   H3310     1.0  0.48383  0.80699  0.90131  1.0000
  C   C4134     1.0  0.44017  0.86037  0.96766  1.0000
  H   H3311     1.0  0.41521  0.96150  0.67982  1.0000
  H   H3312     1.0  0.45114  0.76035  0.98031  1.0000
  H   H3313     1.0  0.38867  0.94530  0.69023  1.0000
  H   H3314     1.0  0.38995  0.93460  0.71331  1.0000
  H   H3315     1.0  0.39246  0.94720  0.72825  1.0000
  H   H3316     1.0  0.47262  0.94780  0.55706  1.0000
  C   C4135     1.0  0.40057  0.75285  0.88515  1.0000
  H   H3317     1.0  0.36909  0.95678  0.68054  1.0000
  H   H3318     1.0  0.36629  0.94151  0.66858  1.0000
  H   H3319     1.0  0.38154  0.93829  0.64712  1.0000
  H   H3320     1.0  0.39930  0.95078  0.63723  1.0000
  H   H3321     1.0  0.40242  0.96580  0.64894  1.0000
  C   C4136     1.0  0.29977  0.98001  0.54086  1.0000
  H   H3322     1.0  0.39334  0.97090  0.71986  1.0000
  C   C4137     1.0  0.41630  0.73561  0.87499  1.0000
  C   C4138     1.0  0.47975  0.88915  0.83120  1.0000
  H   H3323     1.0  0.36131  0.98038  0.67055  1.0000
  C   C4139     1.0  0.46409  0.86999  0.80865  1.0000
  H   H3324     1.0  0.37066  0.92904  0.59544  1.0000
  C   C4140     1.0  0.25939  0.93003  0.58226  1.0000
  Fe  Fe283     1.0  0.43781  0.84467  0.92791  1.0000
  C   C4141     1.0  0.39321  0.94852  0.50778  1.0000
  C   C4142     1.0  0.38670  0.96181  0.50711  1.0000
  C   C4143     1.0  0.24962  0.94168  0.58101  1.0000
  H   H3325     1.0  0.45705  0.83173  0.95068  1.0000
  C   C4144     1.0  0.41720  0.89021  0.83403  1.0000
  H   H3326     1.0  0.25766  0.92168  0.59047  1.0000
  C   C4145     1.0  0.46855  0.86994  0.79506  1.0000
  H   H3327     1.0  0.40068  0.96684  0.54122  1.0000
  C   C4146     1.0  0.30005  0.96050  0.53366  1.0000
  H   H3328     1.0  0.40042  0.94396  0.51391  1.0000
  C   C4147     1.0  0.39508  0.87545  0.50206  1.0000
  H   H3329     1.0  0.34593  0.92797  0.57203  1.0000
  S   S568      1.0  0.44120  0.96347  0.83420  1.0000
  Fe  Fe284     1.0  0.43919  0.94621  0.72154  1.0000
  C   C4148     1.0  0.27140  0.92908  0.57289  1.0000
  H   H3330     1.0  0.46536  0.92559  0.62344  1.0000
  H   H3331     1.0  0.44162  0.80671  0.95209  1.0000
  C   C4149     1.0  0.29379  0.95495  0.54660  1.0000
  C   C4150     1.0  0.29095  0.96193  0.55673  1.0000
  P   P142      1.0  0.28948  0.93899  0.55041  1.0000
  C   C4151     1.0  0.30161  0.92589  0.55779  1.0000
  C   C4152     1.0  0.27372  0.93982  0.56217  1.0000
  C   C4153     1.0  0.26383  0.95150  0.56101  1.0000
  C   C4154     1.0  0.30274  0.91270  0.55727  1.0000
  C   C4155     1.0  0.31178  0.90243  0.56336  1.0000
  C   C4156     1.0  0.31988  0.90525  0.56983  1.0000
  C   C4157     1.0  0.31878  0.91833  0.57042  1.0000
  C   C4158     1.0  0.30962  0.92862  0.56449  1.0000
  C   C4159     1.0  0.28884  0.93494  0.53534  1.0000
  C   C4160     1.0  0.30062  0.93133  0.52619  1.0000
  C   C4161     1.0  0.30038  0.92823  0.51443  1.0000
  C   C4162     1.0  0.28837  0.92839  0.51188  1.0000
  C   C4163     1.0  0.27666  0.93149  0.52117  1.0000
  C   C4164     1.0  0.27684  0.93491  0.53278  1.0000
  H   H3332     1.0  0.47803  0.83439  0.84557  1.0000
  C   C4165     1.0  0.35718  0.95243  0.57700  1.0000
  H   H3333     1.0  0.28654  0.95768  0.56688  1.0000
  H   H3334     1.0  0.26535  0.95999  0.55294  1.0000
  H   H3335     1.0  0.29667  0.91028  0.55217  1.0000
  H   H3336     1.0  0.31271  0.89228  0.56285  1.0000
  H   H3337     1.0  0.32718  0.89729  0.57415  1.0000
  H   H3338     1.0  0.32522  0.92052  0.57523  1.0000
  H   H3339     1.0  0.30907  0.93869  0.56490  1.0000
  H   H3340     1.0  0.30999  0.93097  0.52818  1.0000
  H   H3341     1.0  0.30953  0.92538  0.50746  1.0000
  H   H3342     1.0  0.28811  0.92578  0.50289  1.0000
  H   H3343     1.0  0.26743  0.93126  0.51930  1.0000
  C   C4166     1.0  0.47617  0.83330  0.95145  1.0000
  H   H3344     1.0  0.41759  0.93303  0.54370  1.0000
  P   P143      1.0  0.47236  0.91171  0.64916  1.0000
  H   H3345     1.0  0.47472  0.94267  0.79601  1.0000
  C   C4167     1.0  0.41020  0.94136  0.56116  1.0000
  H   H3346     1.0  0.37636  0.91733  0.61687  1.0000
  H   H3347     1.0  0.47480  0.90093  0.78353  1.0000
  C   C4168     1.0  0.35116  0.74497  0.89425  1.0000
  C   C4169     1.0  0.46915  0.95630  0.74069  1.0000
  C   C4170     1.0  0.44446  0.76924  0.94308  1.0000
  C   C4171     1.0  0.38112  0.93411  0.62017  1.0000
  H   H3348     1.0  0.40371  0.87790  0.51688  1.0000
  C   C4172     1.0  0.48049  0.91882  0.59499  1.0000
  C   C4173     1.0  0.48449  0.80660  0.94949  1.0000
  H   H3349     1.0  0.24030  0.94243  0.58824  1.0000
  Fe  Fe285     1.0  0.24759  0.92322  0.51273  1.0000
  C   C4174     1.0  0.39254  0.74386  0.89227  1.0000
  H   H3350     1.0  0.40022  0.94961  0.57831  1.0000
  C   C4175     1.0  0.42698  0.83969  0.97531  1.0000
  S   S569      1.0  0.41982  0.74020  0.90773  1.0000
  H   H3351     1.0  0.41019  0.81602  0.95791  1.0000
  H   H3352     1.0  0.45580  0.92452  0.87950  1.0000
  C   C4176     1.0  0.48501  0.74801  0.88256  1.0000
  H   H3353     1.0  0.46525  0.94028  0.73504  1.0000
  H   H3354     1.0  0.40037  0.96598  0.75467  1.0000
  H   H3355     1.0  0.32553  0.96793  0.57457  1.0000
  C   C4177     1.0  0.39674  0.76883  0.95654  1.0000
  H   H3356     1.0  0.43235  0.87268  0.83724  1.0000
  H   H3357     1.0  0.41518  0.98082  0.74080  1.0000
  H   H3358     1.0  0.44862  0.97148  0.76024  1.0000
  H   H3359     1.0  0.41126  0.97158  0.62440  1.0000
  H   H3360     1.0  0.39786  0.76292  0.88665  1.0000
  C   C4178     1.0  0.46365  0.77282  0.92550  1.0000
  H   H3361     1.0  0.34767  0.75248  0.88611  1.0000
  C   C4179     1.0  0.40893  0.93771  0.55012  1.0000
  C   C4180     1.0  0.35709  0.93989  0.57548  1.0000
  C   C4181     1.0  0.24840  0.86576  0.56137  1.0000
  H   H3362     1.0  0.48480  0.94015  0.65969  1.0000
  H   H3363     1.0  0.43733  0.89868  0.63798  1.0000
  C   C4182     1.0  0.37710  0.96755  0.49952  1.0000
  H   H3364     1.0  0.47275  0.92316  0.75382  1.0000
  H   H3365     1.0  0.40994  0.81850  0.49163  1.0000
  H   H3366     1.0  0.27421  0.85151  0.53933  1.0000
  Fe  Fe286     1.0  0.46151  0.93433  0.70064  1.0000
  H   H3367     1.0  0.38359  0.74718  0.89922  1.0000
  C   C4183     1.0  0.46922  0.85510  0.83908  1.0000
  C   C4184     1.0  0.43022  0.88340  0.83434  1.0000
  C   C4185     1.0  0.25372  0.85403  0.53946  1.0000
  C   C4186     1.0  0.48117  0.93964  0.55647  1.0000
  C   C4187     1.0  0.47565  0.93251  0.59138  1.0000
  H   H3368     1.0  0.47400  0.97871  0.66852  1.0000
  C   C4188     1.0  0.48416  0.93570  0.79542  1.0000
  H   H3369     1.0  0.39865  0.83675  0.92116  1.0000
  C   C4189     1.0  0.41221  0.97586  0.61385  1.0000
  H   H3370     1.0  0.29179  0.97981  0.56164  1.0000
  C   C4190     1.0  0.42784  0.97335  0.66526  1.0000
  S   S570      1.0  0.42697  0.95726  0.70633  1.0000
  C   C4191     1.0  0.37510  0.98012  0.56225  1.0000
  C   C4192     1.0  0.45626  0.76420  0.93480  1.0000
  S   S571      1.0  0.42441  0.94884  0.82353  1.0000
  H   H3371     1.0  0.29213  0.97389  0.49302  1.0000
  C   C4193     1.0  0.27108  0.97048  0.52307  1.0000
  Fe  Fe287     1.0  0.43100  0.96825  0.81745  1.0000
  H   H3372     1.0  0.42494  0.76551  0.97376  1.0000
  C   C4194     1.0  0.46895  0.94305  0.74204  1.0000
  H   H3373     1.0  0.46742  0.97971  0.79441  1.0000
  H   H3374     1.0  0.32960  0.87268  0.51255  1.0000
  H   H3375     1.0  0.46053  0.97851  0.77482  1.0000
  C   C4195     1.0  0.47003  0.84266  0.84789  1.0000
  C   C4196     1.0  0.45015  0.85144  0.86277  1.0000
  C   C4197     1.0  0.46044  0.84081  0.85970  1.0000
  H   H3376     1.0  0.44273  0.85007  0.87198  1.0000
  H   H3377     1.0  0.46098  0.83117  0.86655  1.0000
  C   C4198     1.0  0.41644  0.80470  0.94245  1.0000
  C   C4199     1.0  0.33424  0.96001  0.57518  1.0000
  C   C4200     1.0  0.34555  0.88280  0.50658  1.0000
  C   C4201     1.0  0.35842  0.88302  0.49922  1.0000
  H   H3378     1.0  0.47298  0.84369  0.95189  1.0000
  H   H3379     1.0  0.44109  0.85969  0.94745  1.0000
  S   S572      1.0  0.48124  0.85831  0.90880  1.0000
  C   C4202     1.0  0.35477  0.97720  0.53660  1.0000
  H   H3380     1.0  0.27214  0.90602  0.55099  1.0000
  H   H3381     1.0  0.28104  0.95754  0.50953  1.0000
  C   C4203     1.0  0.39321  0.90268  0.49199  1.0000
  C   C4204     1.0  0.39877  0.89632  0.50305  1.0000
  H   H3382     1.0  0.29639  0.87128  0.50563  1.0000
  C   C4205     1.0  0.30817  0.88316  0.48963  1.0000
  C   C4206     1.0  0.34565  0.96250  0.57675  1.0000
  H   H3383     1.0  0.47778  0.78014  0.86702  1.0000
  C   C4207     1.0  0.45159  0.90774  0.68790  1.0000
  S   S573      1.0  0.45770  0.95249  0.70868  1.0000
  C   C4208     1.0  0.33426  0.94750  0.57375  1.0000
  C   C4209     1.0  0.29387  0.97445  0.55384  1.0000
  H   H3384     1.0  0.37945  0.97477  0.55435  1.0000
  H   H3385     1.0  0.44176  0.91158  0.69318  1.0000
  C   C4210     1.0  0.37482  0.94762  0.59543  1.0000
  C   C4211     1.0  0.24809  0.88963  0.57017  1.0000
  C   C4212     1.0  0.34382  0.95466  0.50169  1.0000
  C   C4213     1.0  0.47410  0.95989  0.74966  1.0000
  H   H3386     1.0  0.45812  0.89635  0.70580  1.0000
  H   H3387     1.0  0.34030  0.89027  0.51234  1.0000
  H   H3388     1.0  0.36281  0.89093  0.49909  1.0000
  C   C4214     1.0  0.47450  0.94323  0.85461  1.0000
  H   H3389     1.0  0.44400  0.80226  0.93112  1.0000
  H   H3390     1.0  0.34543  0.97238  0.57747  1.0000
  H   H3391     1.0  0.40197  0.90198  0.50802  1.0000
  H   H3392     1.0  0.36593  0.93208  0.57514  1.0000
  C   C4215     1.0  0.47133  0.81332  0.94963  1.0000
  C   C4216     1.0  0.27508  0.84805  0.60147  1.0000
  H   H3393     1.0  0.44659  0.97963  0.58052  1.0000
  H   H3394     1.0  0.48004  0.92956  0.77067  1.0000
  C   C4217     1.0  0.39496  0.83350  0.50040  1.0000
  C   C4218     1.0  0.40430  0.77848  0.95216  1.0000
  C   C4219     1.0  0.32385  0.95185  0.49784  1.0000
  H   H3395     1.0  0.26604  0.96321  0.53021  1.0000
  C   C4220     1.0  0.43110  0.84515  0.96168  1.0000
  C   C4221     1.0  0.46718  0.82656  0.95076  1.0000
  H   H3396     1.0  0.48478  0.91051  0.84661  1.0000
  C   C4222     1.0  0.40951  0.81655  0.92178  1.0000
  C   C4223     1.0  0.41246  0.74872  0.87652  1.0000
  C   C4224     1.0  0.41683  0.76683  0.96911  1.0000
  H   H3397     1.0  0.25661  0.84445  0.58229  1.0000
  C   C4225     1.0  0.47801  0.95972  0.66383  1.0000
  C   C4226     1.0  0.32820  0.95642  0.48417  1.0000
  C   C4227     1.0  0.26030  0.89175  0.56199  1.0000
  C   C4228     1.0  0.46926  0.88148  0.63466  1.0000
  C   C4229     1.0  0.34101  0.97999  0.54029  1.0000
  H   H3398     1.0  0.34731  0.97876  0.50496  1.0000
  S   S574      1.0  0.25045  0.89424  0.48210  1.0000
  C   C4230     1.0  0.28528  0.88384  0.49116  1.0000
  H   H3399     1.0  0.46774  0.96020  0.66456  1.0000
  C   C4231     1.0  0.26146  0.86073  0.55519  1.0000
  C   C4232     1.0  0.40476  0.82882  0.49009  1.0000
  C   C4233     1.0  0.47725  0.78045  0.95787  1.0000
  H   H3400     1.0  0.46994  0.92477  0.56741  1.0000
  H   H3401     1.0  0.41556  0.96739  0.55490  1.0000
  C   C4234     1.0  0.46268  0.93269  0.62973  1.0000
  C   C4235     1.0  0.47283  0.84665  0.97880  1.0000
  C   C4236     1.0  0.45920  0.78647  0.92441  1.0000
  C   C4237     1.0  0.45598  0.88487  0.63399  1.0000
  H   H3402     1.0  0.26790  0.88357  0.55887  1.0000
  H   H3403     1.0  0.44882  0.90023  0.84839  1.0000
  H   H3404     1.0  0.26472  0.97494  0.57405  1.0000
  H   H3405     1.0  0.45739  0.89477  0.88632  1.0000
  C   C4238     1.0  0.46648  0.76213  0.96249  1.0000
  C   C4239     1.0  0.26282  0.90450  0.55766  1.0000
  H   H3406     1.0  0.26969  0.86142  0.55861  1.0000
  C   C4240     1.0  0.47573  0.76945  0.95431  1.0000
  H   H3407     1.0  0.30265  0.95536  0.52567  1.0000
  C   C4241     1.0  0.44941  0.86391  0.85410  1.0000
  C   C4242     1.0  0.46492  0.92874  0.64273  1.0000
  H   H3408     1.0  0.26763  0.93761  0.53964  1.0000
  Fe  Fe288     1.0  0.42915  0.73630  0.92508  1.0000
  C   C4243     1.0  0.44771  0.89615  0.63821  1.0000
  H   H3409     1.0  0.47080  0.97649  0.57161  1.0000
  H   H3410     1.0  0.27879  0.91995  0.57410  1.0000
  H   H3411     1.0  0.39539  0.93639  0.53939  1.0000
  C   C4244     1.0  0.47266  0.88098  0.78602  1.0000
  C   C4245     1.0  0.46587  0.88021  0.87443  1.0000
  C   C4246     1.0  0.24392  0.95426  0.51715  1.0000
  C   C4247     1.0  0.45345  0.95524  0.63263  1.0000
  H   H3412     1.0  0.37571  0.94668  0.55410  1.0000
  H   H3413     1.0  0.34956  0.95421  0.50869  1.0000
  Fe  Fe289     1.0  0.44578  0.96208  0.69322  1.0000
  C   C4248     1.0  0.24163  0.96806  0.51301  1.0000
  C   C4249     1.0  0.48547  0.74945  0.89501  1.0000
  H   H3414     1.0  0.44887  0.96543  0.62878  1.0000
  C   C4250     1.0  0.38826  0.84681  0.49842  1.0000
  H   H3415     1.0  0.37441  0.97420  0.63514  1.0000
  S   S575      1.0  0.42968  0.95249  0.74125  1.0000
  C   C4251     1.0  0.41324  0.97571  0.54682  1.0000
  C   C4252     1.0  0.27950  0.96730  0.51139  1.0000
  C   C4253     1.0  0.25187  0.95242  0.57043  1.0000
  C   C4254     1.0  0.38090  0.94686  0.49282  1.0000
  C   C4255     1.0  0.48161  0.97024  0.66606  1.0000
  C   C4256     1.0  0.45511  0.91155  0.67401  1.0000
  H   H3416     1.0  0.40416  0.90930  0.82954  1.0000
  P   P144      1.0  0.38252  0.87274  0.48362  1.0000
  C   C4257     1.0  0.37056  0.97343  0.57530  1.0000
  C   C4258     1.0  0.45693  0.94590  0.62474  1.0000
  C   C4259     1.0  0.38640  0.94872  0.56750  1.0000
  H   H3417     1.0  0.48045  0.88697  0.69370  1.0000
  H   H3418     1.0  0.48217  0.93303  0.82382  1.0000
  C   C4260     1.0  0.36424  0.73781  0.89228  1.0000
  H   H3419     1.0  0.47920  0.91785  0.72132  1.0000
  H   H3420     1.0  0.37076  0.73982  0.88257  1.0000
  C   C4261     1.0  0.47960  0.90495  0.84360  1.0000
  C   C4262     1.0  0.47741  0.87358  0.86711  1.0000
  C   C4263     1.0  0.23796  0.97006  0.53581  1.0000
  C   C4264     1.0  0.45846  0.76589  0.97410  1.0000
  H   H3421     1.0  0.43890  0.97836  0.70957  1.0000
  C   C4265     1.0  0.47962  0.92666  0.56226  1.0000
  C   C4266     1.0  0.34627  0.86332  0.49914  1.0000
  C   C4267     1.0  0.38343  0.97800  0.74678  1.0000
  C   C4268     1.0  0.47794  0.95015  0.76054  1.0000
  H   H3422     1.0  0.35936  0.97601  0.59499  1.0000
  C   C4269     1.0  0.45989  0.77680  0.97772  1.0000
  H   H3423     1.0  0.47342  0.95212  0.84678  1.0000
  H   H3424     1.0  0.48147  0.95261  0.76781  1.0000
  C   C4270     1.0  0.23841  0.97593  0.52234  1.0000
  H   H3425     1.0  0.39331  0.75081  0.97068  1.0000
  C   C4271     1.0  0.40891  0.75753  0.97379  1.0000
  H   H3426     1.0  0.42160  0.83186  0.97830  1.0000
  H   H3427     1.0  0.39207  0.91331  0.48834  1.0000
  C   C4272     1.0  0.47725  0.93700  0.76215  1.0000
  H   H3428     1.0  0.47691  0.96082  0.61062  1.0000
  H   H3429     1.0  0.47687  0.86627  0.86221  1.0000
  C   C4273     1.0  0.48401  0.94129  0.58858  1.0000
  H   H3430     1.0  0.48455  0.88656  0.64010  1.0000
  C   C4274     1.0  0.47434  0.98228  0.58778  1.0000
  H   H3431     1.0  0.48488  0.98048  0.58390  1.0000
  C   C4275     1.0  0.36365  0.98086  0.58503  1.0000
  C   C4276     1.0  0.44744  0.98168  0.75466  1.0000
  H   H3432     1.0  0.39111  0.98210  0.69687  1.0000
  H   H3433     1.0  0.47337  0.98193  0.63935  1.0000
  C   C4277     1.0  0.45277  0.98161  0.58584  1.0000
  C   C4278     1.0  0.48610  0.84696  0.97359  1.0000
  C   C4279     1.0  0.52100  0.09959  0.98526  1.0000
  C   C4280     1.0  0.62189  0.00653  0.29627  1.0000
  H   H3434     1.0  0.49473  0.05287  0.20439  1.0000
  S   S576      1.0  0.62282  0.06176  0.47066  1.0000
  C   C4281     1.0  0.50088  0.02329  0.18783  1.0000
  H   H3435     1.0  0.50488  0.01589  0.26809  1.0000
  C   C4282     1.0  0.53932  0.98389  0.31823  1.0000
  C   C4283     1.0  0.49706  0.99484  0.11636  1.0000
  C   C4284     1.0  0.58892  0.08214  0.34172  1.0000
  C   C4285     1.0  0.53369  0.04213  0.01617  1.0000
  H   H3436     1.0  0.55787  0.04618  0.26218  1.0000
  H   H3437     1.0  0.71031  0.09952  0.43691  1.0000
  C   C4286     1.0  0.58725  0.16061  0.99111  1.0000
  Fe  Fe290     1.0  0.62771  0.03578  0.40790  1.0000
  S   S577      1.0  0.61973  0.05494  0.39466  1.0000
  S   S578      1.0  0.62140  0.02887  0.43037  1.0000
  Fe  Fe291     1.0  0.64518  0.02462  0.38403  1.0000
  S   S579      1.0  0.63882  0.04275  0.36900  1.0000
  S   S580      1.0  0.65951  0.00708  0.37727  1.0000
  Fe  Fe292     1.0  0.64094  0.05338  0.38337  1.0000
  S   S581      1.0  0.65050  0.07093  0.37472  1.0000
  Fe  Fe293     1.0  0.61844  0.04236  0.38152  1.0000
  S   S582      1.0  0.60012  0.04450  0.37392  1.0000
  S   S583      1.0  0.64898  0.03511  0.39746  1.0000
  S   S584      1.0  0.62476  0.02335  0.39572  1.0000
  Fe  Fe294     1.0  0.58330  0.03791  0.30921  1.0000
  S   S585      1.0  0.56487  0.03258  0.32317  1.0000
  S   S586      1.0  0.60070  0.04099  0.31525  1.0000
  Fe  Fe295     1.0  0.57597  0.03327  0.28490  1.0000
  S   S587      1.0  0.55718  0.02731  0.29723  1.0000
  S   S588      1.0  0.58452  0.03068  0.26360  1.0000
  Fe  Fe296     1.0  0.55465  0.04436  0.30653  1.0000
  S   S589      1.0  0.53555  0.05935  0.31053  1.0000
  Fe  Fe297     1.0  0.56917  0.01612  0.31254  1.0000
  C   C4287     1.0  0.49939  0.99105  0.27122  1.0000
  S   S590      1.0  0.57279  0.05128  0.29317  1.0000
  S   S591      1.0  0.58810  0.02062  0.29965  1.0000
  H   H3438     1.0  0.49210  0.07606  0.25341  1.0000
  H   H3439     1.0  0.57682  0.00036  0.29468  1.0000
  H   H3440     1.0  0.62999  0.06397  0.06044  1.0000
  S   S592      1.0  0.70830  0.07277  0.37606  1.0000
  C   C4288     1.0  0.52545  0.03966  0.14114  1.0000
  H   H3441     1.0  0.68658  0.07127  0.40952  1.0000
  H   H3442     1.0  0.70903  0.05951  0.35309  1.0000
  C   C4289     1.0  0.69275  0.11505  0.43559  1.0000
  C   C4290     1.0  0.51362  0.10708  0.00976  1.0000
  H   H3443     1.0  0.50432  0.00002  0.34065  1.0000
  S   S593      1.0  0.56318  0.01231  0.17653  1.0000
  H   H3444     1.0  0.61490  0.08602  0.05750  1.0000
  H   H3445     1.0  0.51424  0.04125  0.08312  1.0000
  H   H3446     1.0  0.65026  0.07003  0.44997  1.0000
  H   H3447     1.0  0.49191  0.05838  0.15896  1.0000
  H   H3448     1.0  0.49720  0.99088  0.20648  1.0000
  C   C4291     1.0  0.49542  0.06478  0.01169  1.0000
  C   C4292     1.0  0.68356  0.00496  0.34581  1.0000
  C   C4293     1.0  0.67281  0.05546  0.34730  1.0000
  H   H3449     1.0  0.60626  0.00917  0.45612  1.0000
  C   C4294     1.0  0.51120  0.00550  0.34088  1.0000
  H   H3450     1.0  0.50309  0.17053  0.01125  1.0000
  S   S594      1.0  0.55117  0.04224  0.18284  1.0000
  C   C4295     1.0  0.51151  0.02806  0.18806  1.0000
  H   H3451     1.0  0.69943  0.99331  0.36329  1.0000
  S   S595      1.0  0.58410  0.03757  0.15494  1.0000
  Fe  Fe298     1.0  0.55689  0.03327  0.20278  1.0000
  S   S596      1.0  0.55108  0.04481  0.21918  1.0000
  H   H3452     1.0  0.50641  0.21989  0.00742  1.0000
  S   S597      1.0  0.56343  0.08337  0.99343  1.0000
  C   C4296     1.0  0.73485  0.00772  0.45967  1.0000
  C   C4297     1.0  0.49648  0.04456  0.19987  1.0000
  C   C4298     1.0  0.50941  0.03860  0.19421  1.0000
  S   S598      1.0  0.59056  0.02181  0.10017  1.0000
  H   H3453     1.0  0.64587  0.09662  0.44569  1.0000
  H   H3454     1.0  0.51074  0.10981  0.01928  1.0000
  H   H3455     1.0  0.72957  0.01566  0.38701  1.0000
  H   H3456     1.0  0.51768  0.04228  0.19436  1.0000
  H   H3457     1.0  0.67705  0.00842  0.39299  1.0000
  H   H3458     1.0  0.58862  0.10848  0.28605  1.0000
  S   S599      1.0  0.52720  0.02077  0.18023  1.0000
  C   C4299     1.0  0.69272  0.09181  0.44484  1.0000
  H   H3459     1.0  0.48710  0.98454  0.29045  1.0000
  H   H3460     1.0  0.68884  0.07754  0.42906  1.0000
  C   C4300     1.0  0.69055  0.01842  0.37716  1.0000
  H   H3461     1.0  0.53482  0.03424  0.13636  1.0000
  H   H3462     1.0  0.67655  0.05203  0.46023  1.0000
  C   C4301     1.0  0.68161  0.01830  0.33922  1.0000
  C   C4302     1.0  0.49487  0.00463  0.15135  1.0000
  H   H3463     1.0  0.64814  0.06430  0.43011  1.0000
  C   C4303     1.0  0.59019  0.07541  0.29795  1.0000
  C   C4304     1.0  0.61495  0.98566  0.30284  1.0000
  H   H3464     1.0  0.51922  0.09143  0.04446  1.0000
  P   P145      1.0  0.65526  0.99287  0.45586  1.0000
  C   C4305     1.0  0.68077  0.05522  0.46649  1.0000
  H   H3465     1.0  0.62296  0.10315  0.45795  1.0000
  C   C4306     1.0  0.50112  0.99198  0.21428  1.0000
  H   H3466     1.0  0.66141  0.11037  0.44578  1.0000
  C   C4307     1.0  0.63065  0.09807  0.46340  1.0000
  C   C4308     1.0  0.49855  0.09434  0.04508  1.0000
  H   H3467     1.0  0.53513  0.02631  0.34121  1.0000
  S   S600      1.0  0.56062  0.20690  0.99001  1.0000
  C   C4309     1.0  0.58526  0.03266  0.14014  1.0000
  H   H3468     1.0  0.54696  0.09940  0.33643  1.0000
  H   H3469     1.0  0.55423  0.00328  0.29029  1.0000
  C   C4310     1.0  0.61900  0.00878  0.28378  1.0000
  C   C4311     1.0  0.65423  0.99255  0.43942  1.0000
  C   C4312     1.0  0.49938  0.04019  0.05532  1.0000
  H   H3470     1.0  0.49275  0.99048  0.24753  1.0000
  C   C4313     1.0  0.54877  0.06395  0.33859  1.0000
  C   C4314     1.0  0.58150  0.05734  0.02416  1.0000
  C   C4315     1.0  0.58625  0.04534  0.03247  1.0000
  C   C4316     1.0  0.57742  0.03845  0.04239  1.0000
  C   C4317     1.0  0.56384  0.04358  0.04398  1.0000
  C   C4318     1.0  0.55910  0.05549  0.03562  1.0000
  C   C4319     1.0  0.56790  0.06245  0.02587  1.0000
  H   H3471     1.0  0.59675  0.04127  0.03112  1.0000
  H   H3472     1.0  0.58112  0.02913  0.04868  1.0000
  H   H3473     1.0  0.54861  0.05946  0.03678  1.0000
  H   H3474     1.0  0.56414  0.07186  0.01983  1.0000
  C   C4320     1.0  0.49529  0.01787  0.14953  1.0000
  Fe  Fe299     1.0  0.72702  0.03143  0.40744  1.0000
  C   C4321     1.0  0.57587  0.02683  0.13850  1.0000
  C   C4322     1.0  0.51173  0.08747  0.04294  1.0000
  C   C4323     1.0  0.50456  0.01719  0.24764  1.0000
  P   P146      1.0  0.53150  0.98353  0.33559  1.0000
  C   C4324     1.0  0.60140  0.99232  0.41327  1.0000
  H   H3475     1.0  0.56755  0.02499  0.14660  1.0000
  C   C4325     1.0  0.55215  0.10649  0.33684  1.0000
  C   C4326     1.0  0.68806  0.01739  0.40059  1.0000
  H   H3476     1.0  0.51099  0.03558  0.34558  1.0000
  C   C4327     1.0  0.50974  0.01195  0.10803  1.0000
  H   H3477     1.0  0.54519  0.18319  0.99069  1.0000
  H   H3478     1.0  0.49947  0.07355  0.00907  1.0000
  H   H3479     1.0  0.51135  0.02128  0.10152  1.0000
  C   C4328     1.0  0.51994  0.05525  0.31601  1.0000
  C   C4329     1.0  0.50999  0.06324  0.32366  1.0000
  H   H3480     1.0  0.57826  0.12119  0.08805  1.0000
  H   H3481     1.0  0.62003  0.01798  0.27657  1.0000
  C   C4330     1.0  0.50404  0.04256  0.31697  1.0000
  C   C4331     1.0  0.51701  0.04479  0.31270  1.0000
  H   H3482     1.0  0.51214  0.07136  0.32619  1.0000
  C   C4332     1.0  0.63546  0.99715  0.47850  1.0000
  C   C4333     1.0  0.54763  0.99362  0.16696  1.0000
  H   H3483     1.0  0.52466  0.03847  0.30688  1.0000
  C   C4334     1.0  0.57497  0.03465  0.25146  1.0000
  C   C4335     1.0  0.58053  0.03001  0.23965  1.0000
  C   C4336     1.0  0.57332  0.03294  0.22970  1.0000
  C   C4337     1.0  0.56061  0.04099  0.23130  1.0000
  C   C4338     1.0  0.55515  0.04589  0.24299  1.0000
  C   C4339     1.0  0.56219  0.04252  0.25316  1.0000
  H   H3484     1.0  0.66623  0.06476  0.40993  1.0000
  H   H3485     1.0  0.57768  0.02917  0.22072  1.0000
  H   H3486     1.0  0.54539  0.05221  0.24423  1.0000
  H   H3487     1.0  0.53442  0.12176  0.33922  1.0000
  C   C4340     1.0  0.60049  0.04124  0.33182  1.0000
  C   C4341     1.0  0.58881  0.04219  0.34163  1.0000
  C   C4342     1.0  0.58898  0.04279  0.35456  1.0000
  C   C4343     1.0  0.60073  0.04261  0.35780  1.0000
  C   C4344     1.0  0.61247  0.04132  0.34810  1.0000
  C   C4345     1.0  0.61231  0.04082  0.33513  1.0000
  H   H3488     1.0  0.57964  0.04250  0.33925  1.0000
  H   H3489     1.0  0.57996  0.04338  0.36213  1.0000
  H   H3490     1.0  0.62162  0.04106  0.35048  1.0000
  H   H3491     1.0  0.62137  0.04022  0.32759  1.0000
  C   C4346     1.0  0.66686  0.07028  0.37527  1.0000
  C   C4347     1.0  0.67383  0.06033  0.38400  1.0000
  C   C4348     1.0  0.68653  0.06098  0.38457  1.0000
  C   C4349     1.0  0.69242  0.07129  0.37610  1.0000
  C   C4350     1.0  0.68554  0.08093  0.36719  1.0000
  C   C4351     1.0  0.67282  0.08051  0.36688  1.0000
  H   H3492     1.0  0.66931  0.05239  0.39056  1.0000
  H   H3493     1.0  0.69167  0.05366  0.39167  1.0000
  H   H3494     1.0  0.68997  0.08894  0.36062  1.0000
  H   H3495     1.0  0.66754  0.08823  0.36011  1.0000
  C   C4352     1.0  0.63761  0.00237  0.37306  1.0000
  C   C4353     1.0  0.73367  0.98680  0.41011  1.0000
  C   C4354     1.0  0.50569  0.98764  0.12474  1.0000
  H   H3496     1.0  0.63364  0.01294  0.37175  1.0000
  H   H3497     1.0  0.60812  0.11007  0.99428  1.0000
  C   C4355     1.0  0.67898  0.11801  0.43814  1.0000
  C   C4356     1.0  0.51123  0.20267  0.99902  1.0000
  C   C4357     1.0  0.60202  0.00924  0.35269  1.0000
  H   H3498     1.0  0.52758  0.05860  0.98179  1.0000
  C   C4358     1.0  0.68804  0.02193  0.32593  1.0000
  H   H3499     1.0  0.61987  0.99822  0.37156  1.0000
  C   C4359     1.0  0.53802  0.11329  0.06492  1.0000
  S   S601      1.0  0.57726  0.02276  0.19395  1.0000
  C   C4360     1.0  0.59759  0.00072  0.33227  1.0000
  H   H3500     1.0  0.61801  0.13236  0.01624  1.0000
  C   C4361     1.0  0.62307  0.05238  0.45940  1.0000
  C   C4362     1.0  0.62255  0.05876  0.44612  1.0000
  C   C4363     1.0  0.62239  0.05159  0.43702  1.0000
  C   C4364     1.0  0.62226  0.03809  0.44128  1.0000
  C   C4365     1.0  0.62263  0.03174  0.45459  1.0000
  C   C4366     1.0  0.62335  0.03878  0.46354  1.0000
  H   H3501     1.0  0.62230  0.06928  0.44286  1.0000
  H   H3502     1.0  0.62203  0.05658  0.42680  1.0000
  H   H3503     1.0  0.62270  0.02126  0.45793  1.0000
  H   H3504     1.0  0.62395  0.03371  0.47367  1.0000
  C   C4367     1.0  0.58267  0.09915  0.30675  1.0000
  C   C4368     1.0  0.68196  0.04604  0.35400  1.0000
  H   H3505     1.0  0.49469  0.10356  0.01110  1.0000
  S   S602      1.0  0.59112  0.21078  0.98191  1.0000
  C   C4369     1.0  0.51231  0.99053  0.26352  1.0000
  H   H3506     1.0  0.59412  0.99272  0.25330  1.0000
  C   C4370     1.0  0.57933  0.98978  0.29853  1.0000
  C   C4371     1.0  0.48803  0.05393  0.10020  1.0000
  C   C4372     1.0  0.61399  0.07857  0.05301  1.0000
  H   H3507     1.0  0.52558  0.05557  0.06344  1.0000
  H   H3508     1.0  0.59324  0.06615  0.29463  1.0000
  S   S603      1.0  0.55581  0.02852  0.09267  1.0000
  P   P147      1.0  0.59340  0.09751  0.04309  1.0000
  C   C4373     1.0  0.66212  0.99659  0.31441  1.0000
  C   C4374     1.0  0.69994  0.02623  0.37378  1.0000
  C   C4375     1.0  0.65827  0.07048  0.44121  1.0000
  C   C4376     1.0  0.69544  0.04352  0.34778  1.0000
  C   C4377     1.0  0.62265  0.06613  0.05458  1.0000
  H   H3509     1.0  0.66858  0.01392  0.31408  1.0000
  P   P148      1.0  0.51525  0.00102  0.24690  1.0000
  C   C4378     1.0  0.61206  0.07251  0.34189  1.0000
  H   H3510     1.0  0.51705  0.12255  0.03035  1.0000
  H   H3511     1.0  0.69364  0.06623  0.31842  1.0000
  H   H3512     1.0  0.64588  0.02780  0.31820  1.0000
  C   C4379     1.0  0.56510  0.12528  0.33770  1.0000
  Fe  Fe300     1.0  0.56764  0.00593  0.19673  1.0000
  C   C4380     1.0  0.67989  0.07463  0.42952  1.0000
  C   C4381     1.0  0.58318  0.14885  0.99835  1.0000
  C   C4382     1.0  0.60150  0.07583  0.33561  1.0000
  C   C4383     1.0  0.58910  0.10506  0.05725  1.0000
  C   C4384     1.0  0.60803  0.11198  0.00373  1.0000
  C   C4385     1.0  0.59589  0.03510  0.12952  1.0000
  C   C4386     1.0  0.57770  0.09681  0.04092  1.0000
  P   P149      1.0  0.57518  0.08674  0.33363  1.0000
  C   C4387     1.0  0.66951  0.07477  0.44089  1.0000
  H   H3513     1.0  0.57023  0.99506  0.13180  1.0000
  H   H3514     1.0  0.54010  0.10270  0.98405  1.0000
  C   C4388     1.0  0.53597  0.01192  0.24615  1.0000
  C   C4389     1.0  0.65708  0.06700  0.43003  1.0000
  C   C4390     1.0  0.59140  0.08736  0.28878  1.0000
  C   C4391     1.0  0.58890  0.09710  0.07014  1.0000
  C   C4392     1.0  0.66727  0.06728  0.41864  1.0000
  H   H3515     1.0  0.52192  0.98797  0.13250  1.0000
  S   S604      1.0  0.57927  0.00897  0.07564  1.0000
  H   H3516     1.0  0.60322  0.07328  0.32610  1.0000
  Fe  Fe301     1.0  0.54406  0.02365  0.18639  1.0000
  P   P150      1.0  0.70758  0.03176  0.35648  1.0000
  H   H3517     1.0  0.53334  0.00851  0.15716  1.0000
  C   C4393     1.0  0.52645  0.10688  0.00216  1.0000
  H   H3518     1.0  0.57013  0.13257  0.33800  1.0000
  C   C4394     1.0  0.60211  0.10445  0.01566  1.0000
  C   C4395     1.0  0.58135  0.08717  0.31601  1.0000
  C   C4396     1.0  0.59732  0.03165  0.11744  1.0000
  C   C4397     1.0  0.58800  0.02594  0.11567  1.0000
  H   H3519     1.0  0.66608  0.99086  0.34633  1.0000
  C   C4398     1.0  0.67871  0.07098  0.41843  1.0000
  H   H3520     1.0  0.57784  0.13536  0.06543  1.0000
  H   H3521     1.0  0.56310  0.98490  0.23064  1.0000
  H   H3522     1.0  0.67365  0.12817  0.43548  1.0000
  H   H3523     1.0  0.70124  0.01495  0.30889  1.0000
  C   C4399     1.0  0.69209  0.99509  0.33935  1.0000
  H   H3524     1.0  0.55771  0.07803  0.32271  1.0000
  C   C4400     1.0  0.57229  0.11260  0.33613  1.0000
  C   C4401     1.0  0.51109  0.04221  0.04602  1.0000
  H   H3525     1.0  0.53294  0.01893  0.06277  1.0000
  Fe  Fe302     1.0  0.58252  0.08303  0.99776  1.0000
  C   C4402     1.0  0.56585  0.10307  0.33578  1.0000
  C   C4403     1.0  0.54306  0.00201  0.15588  1.0000
  H   H3526     1.0  0.57742  0.08944  0.35936  1.0000
  C   C4404     1.0  0.73060  0.09254  0.46392  1.0000
  H   H3527     1.0  0.70476  0.99141  0.32052  1.0000
  H   H3528     1.0  0.50186  0.02197  0.22730  1.0000
  H   H3529     1.0  0.54789  0.00918  0.13463  1.0000
  C   C4405     1.0  0.60438  0.08136  0.04552  1.0000
  H   H3530     1.0  0.58344  0.98506  0.27927  1.0000
  C   C4406     1.0  0.66389  0.01055  0.46436  1.0000
  H   H3531     1.0  0.67828  0.00225  0.35595  1.0000
  C   C4407     1.0  0.62751  0.09495  0.47733  1.0000
  H   H3532     1.0  0.71489  0.06040  0.46370  1.0000
  C   C4408     1.0  0.72096  0.03946  0.35490  1.0000
  H   H3533     1.0  0.51832  0.98910  0.09401  1.0000
  H   H3534     1.0  0.55162  0.03231  0.00457  1.0000
  C   C4409     1.0  0.51319  0.99567  0.21121  1.0000
  H   H3535     1.0  0.56934  0.00226  0.23711  1.0000
  H   H3536     1.0  0.53244  0.03666  0.04258  1.0000
  C   C4410     1.0  0.65396  0.01995  0.44520  1.0000
  C   C4411     1.0  0.49734  0.06069  0.32833  1.0000
  C   C4412     1.0  0.65558  0.98339  0.37633  1.0000
  H   H3537     1.0  0.67345  0.98580  0.40976  1.0000
  C   C4413     1.0  0.59712  0.99719  0.39107  1.0000
  C   C4414     1.0  0.65810  0.00889  0.45491  1.0000
  C   C4415     1.0  0.52823  0.10593  0.07027  1.0000
  H   H3538     1.0  0.50178  0.03446  0.31457  1.0000
  H   H3539     1.0  0.49110  0.99730  0.26709  1.0000
  H   H3540     1.0  0.69811  0.12290  0.43094  1.0000
  C   C4416     1.0  0.56453  0.07506  0.34079  1.0000
  S   S605      1.0  0.58433  0.17378  0.99903  1.0000
  H   H3541     1.0  0.70993  0.04977  0.33016  1.0000
  H   H3542     1.0  0.48984  0.03656  0.39884  1.0000
  H   H3543     1.0  0.49402  0.13219  0.02750  1.0000
  S   S606      1.0  0.53780  0.11143  0.00793  1.0000
  H   H3544     1.0  0.58506  0.09671  0.09111  1.0000
  H   H3545     1.0  0.52677  0.00140  0.21838  1.0000
  C   C4417     1.0  0.58706  0.08478  0.35434  1.0000
  H   H3546     1.0  0.57798  0.07676  0.05261  1.0000
  C   C4418     1.0  0.50574  0.07060  0.03616  1.0000
  H   H3547     1.0  0.51228  0.05697  0.16568  1.0000
  C   C4419     1.0  0.60781  0.11688  0.02811  1.0000
  C   C4420     1.0  0.49735  0.06990  0.28919  1.0000
  C   C4421     1.0  0.52484  0.04562  0.15139  1.0000
  H   H3548     1.0  0.53121  0.03290  0.02223  1.0000
  H   H3549     1.0  0.70026  0.02751  0.40514  1.0000
  C   C4422     1.0  0.57022  0.10797  0.03376  1.0000
  C   C4423     1.0  0.49974  0.03030  0.06701  1.0000
  H   H3550     1.0  0.49578  0.03464  0.03328  1.0000
  C   C4424     1.0  0.59513  0.98807  0.24518  1.0000
  C   C4425     1.0  0.54499  0.11919  0.33839  1.0000
  C   C4426     1.0  0.52353  0.02472  0.06062  1.0000
  C   C4427     1.0  0.61354  0.12218  0.00394  1.0000
  H   H3551     1.0  0.57392  0.11695  0.02922  1.0000
  H   H3552     1.0  0.56928  0.99522  0.05981  1.0000
  C   C4428     1.0  0.60202  0.00141  0.45548  1.0000
  C   C4429     1.0  0.52843  0.02041  0.34137  1.0000
  C   C4430     1.0  0.58115  0.11669  0.07948  1.0000
  C   C4431     1.0  0.61357  0.12453  0.01613  1.0000
  C   C4432     1.0  0.57716  0.02363  0.12618  1.0000
  H   H3553     1.0  0.58289  0.11025  0.33513  1.0000
  C   C4433     1.0  0.59290  0.99606  0.46630  1.0000
  H   H3554     1.0  0.62169  0.06748  0.33722  1.0000
  C   C4434     1.0  0.54391  0.99501  0.30984  1.0000
  H   H3555     1.0  0.58224  0.12927  0.99783  1.0000
  H   H3556     1.0  0.59530  0.08737  0.27828  1.0000
  H   H3557     1.0  0.53242  0.98818  0.07187  1.0000
  C   C4435     1.0  0.54226  0.16298  0.99669  1.0000
  C   C4436     1.0  0.54656  0.15046  0.99340  1.0000
  P   P151      1.0  0.53128  0.16508  0.01250  1.0000
  C   C4437     1.0  0.52305  0.18236  0.01118  1.0000
  C   C4438     1.0  0.51937  0.15476  0.01711  1.0000
  H   H3558     1.0  0.49324  0.01193  0.10062  1.0000
  H   H3559     1.0  0.65197  0.99504  0.40321  1.0000
  C   C4439     1.0  0.69729  0.98425  0.36992  1.0000
  C   C4440     1.0  0.69835  0.99878  0.32590  1.0000
  C   C4441     1.0  0.52309  0.14114  0.02254  1.0000
  C   C4442     1.0  0.52272  0.18920  0.02075  1.0000
  C   C4443     1.0  0.51676  0.20269  0.01936  1.0000
  C   C4444     1.0  0.51101  0.20943  0.00850  1.0000
  C   C4445     1.0  0.48812  0.02887  0.19392  1.0000
  C   C4446     1.0  0.51729  0.18924  0.00026  1.0000
  C   C4447     1.0  0.54117  0.16050  0.02482  1.0000
  C   C4448     1.0  0.55381  0.16316  0.02123  1.0000
  C   C4449     1.0  0.56129  0.16027  0.03081  1.0000
  C   C4450     1.0  0.55616  0.15480  0.04410  1.0000
  C   C4451     1.0  0.54349  0.15228  0.04783  1.0000
  C   C4452     1.0  0.53596  0.15520  0.03824  1.0000
  C   C4453     1.0  0.56027  0.98543  0.16532  1.0000
  H   H3560     1.0  0.59568  0.99735  0.32452  1.0000
  C   C4454     1.0  0.70340  0.02948  0.38396  1.0000
  H   H3561     1.0  0.51213  0.01478  0.07861  1.0000
  H   H3562     1.0  0.54279  0.14201  0.99983  1.0000
  C   C4455     1.0  0.51583  0.99301  0.12536  1.0000
  H   H3563     1.0  0.68340  0.01410  0.41093  1.0000
  C   C4456     1.0  0.61237  0.98780  0.29024  1.0000
  H   H3564     1.0  0.71054  0.03556  0.38166  1.0000
  H   H3565     1.0  0.53313  0.13668  0.02364  1.0000
  H   H3566     1.0  0.52722  0.18425  0.02918  1.0000
  H   H3567     1.0  0.51672  0.20799  0.02662  1.0000
  H   H3568     1.0  0.61271  0.99776  0.11059  1.0000
  C   C4457     1.0  0.49722  0.15203  0.01942  1.0000
  H   H3569     1.0  0.54222  0.98926  0.03232  1.0000
  H   H3570     1.0  0.55790  0.16769  0.01105  1.0000
  H   H3571     1.0  0.57101  0.16253  0.02785  1.0000
  H   H3572     1.0  0.56190  0.15282  0.05151  1.0000
  H   H3573     1.0  0.53939  0.14834  0.05818  1.0000
  H   H3574     1.0  0.52601  0.15361  0.04135  1.0000
  C   C4458     1.0  0.48876  0.04695  0.11321  1.0000
  C   C4459     1.0  0.68455  0.01414  0.39051  1.0000
  H   H3575     1.0  0.64939  0.01911  0.43778  1.0000
  C   C4460     1.0  0.68762  0.04565  0.47550  1.0000
  H   H3576     1.0  0.60316  0.03961  0.13068  1.0000
  C   C4461     1.0  0.51530  0.07559  0.03859  1.0000
  C   C4462     1.0  0.71936  0.00504  0.35745  1.0000
  C   C4463     1.0  0.68473  0.07260  0.47418  1.0000
  C   C4464     1.0  0.69751  0.02501  0.39732  1.0000
  H   H3577     1.0  0.50252  0.01513  0.18309  1.0000
  H   H3578     1.0  0.50029  0.99744  0.07309  1.0000
  H   H3579     1.0  0.59792  0.09655  0.01531  1.0000
  Fe  Fe303     1.0  0.57079  0.22387  0.98464  1.0000
  H   H3580     1.0  0.58431  0.06598  0.31848  1.0000
  C   C4465     1.0  0.64366  0.09430  0.45649  1.0000
  H   H3581     1.0  0.48987  0.06679  0.33454  1.0000
  C   C4466     1.0  0.55095  0.05877  0.12841  1.0000
  C   C4467     1.0  0.54282  0.06942  0.13388  1.0000
  C   C4468     1.0  0.53594  0.08028  0.12594  1.0000
  C   C4469     1.0  0.53737  0.08062  0.11245  1.0000
  C   C4470     1.0  0.54574  0.07008  0.10682  1.0000
  C   C4471     1.0  0.55228  0.05899  0.11499  1.0000
  P   P152      1.0  0.54782  0.07040  0.08940  1.0000
  C   C4472     1.0  0.56499  0.06325  0.08317  1.0000
  C   C4473     1.0  0.53690  0.06134  0.08754  1.0000
  C   C4474     1.0  0.53492  0.06231  0.07486  1.0000
  C   C4475     1.0  0.52666  0.05519  0.07331  1.0000
  C   C4476     1.0  0.52031  0.04706  0.08439  1.0000
  C   C4477     1.0  0.52201  0.04623  0.09708  1.0000
  C   C4478     1.0  0.53019  0.05341  0.09870  1.0000
  C   C4479     1.0  0.56870  0.05533  0.07372  1.0000
  C   C4480     1.0  0.58196  0.04930  0.06964  1.0000
  C   C4481     1.0  0.59159  0.05111  0.07488  1.0000
  C   C4482     1.0  0.58804  0.05911  0.08413  1.0000
  C   C4483     1.0  0.57483  0.06523  0.08819  1.0000
  C   C4484     1.0  0.54391  0.08733  0.08013  1.0000
  C   C4485     1.0  0.53112  0.09304  0.07793  1.0000
  H   H3582     1.0  0.58696  0.00057  0.15312  1.0000
  H   H3583     1.0  0.72334  0.99125  0.44200  1.0000
  H   H3584     1.0  0.72661  0.00827  0.31929  1.0000
  C   C4486     1.0  0.55359  0.09491  0.07497  1.0000
  H   H3585     1.0  0.55626  0.05034  0.13459  1.0000
  H   H3586     1.0  0.54183  0.06918  0.14430  1.0000
  H   H3587     1.0  0.52954  0.08845  0.13027  1.0000
  H   H3588     1.0  0.53199  0.08913  0.10646  1.0000
  H   H3589     1.0  0.55854  0.05055  0.11098  1.0000
  H   H3590     1.0  0.53997  0.06832  0.06611  1.0000
  C   C4487     1.0  0.63658  0.01213  0.31939  1.0000
  C   C4488     1.0  0.54927  0.01183  0.24437  1.0000
  H   H3591     1.0  0.51728  0.03975  0.10565  1.0000
  H   H3592     1.0  0.53150  0.05235  0.10862  1.0000
  H   H3593     1.0  0.56146  0.05341  0.06973  1.0000
  H   H3594     1.0  0.58475  0.04281  0.06274  1.0000
  H   H3595     1.0  0.60175  0.04595  0.07211  1.0000
  H   H3596     1.0  0.59548  0.06014  0.08851  1.0000
  H   H3597     1.0  0.57227  0.07119  0.09556  1.0000
  H   H3598     1.0  0.52338  0.08753  0.08205  1.0000
  C   C4489     1.0  0.52844  0.06612  0.00960  1.0000
  H   H3599     1.0  0.55406  0.05421  0.37006  1.0000
  C   C4490     1.0  0.72890  0.99521  0.33819  1.0000
  H   H3600     1.0  0.56347  0.09082  0.07660  1.0000
  H   H3601     1.0  0.62523  0.01409  0.29849  1.0000
  C   C4491     1.0  0.58515  0.07533  0.31149  1.0000
  H   H3602     1.0  0.50685  0.07061  0.29003  1.0000
  C   C4492     1.0  0.57258  0.08537  0.04676  1.0000
  C   C4493     1.0  0.58469  0.11889  0.05567  1.0000
  H   H3603     1.0  0.52197  0.07568  0.01054  1.0000
  H   H3604     1.0  0.59006  0.99960  0.47543  1.0000
  H   H3605     1.0  0.62675  0.01840  0.32099  1.0000
  C   C4494     1.0  0.50160  0.04647  0.14411  1.0000
  C   C4495     1.0  0.50114  0.05307  0.15391  1.0000
  C   C4496     1.0  0.51273  0.05250  0.15762  1.0000
  C   C4497     1.0  0.60408  0.07179  0.03906  1.0000
  C   C4498     1.0  0.51770  0.00525  0.11719  1.0000
  C   C4499     1.0  0.51388  0.04015  0.13747  1.0000
  C   C4500     1.0  0.48957  0.03667  0.23801  1.0000
  H   H3606     1.0  0.61168  0.00133  0.27121  1.0000
  Fe  Fe304     1.0  0.55905  0.02116  0.07416  1.0000
  H   H3607     1.0  0.54977  0.98894  0.20117  1.0000
  H   H3608     1.0  0.61244  0.05214  0.03549  1.0000
  C   C4501     1.0  0.56333  0.99392  0.05384  1.0000
  H   H3609     1.0  0.60570  0.03348  0.10939  1.0000
  C   C4502     1.0  0.65272  0.99453  0.41319  1.0000
  H   H3610     1.0  0.50669  0.20782  0.99065  1.0000
  C   C4503     1.0  0.55145  0.12858  0.33885  1.0000
  H   H3611     1.0  0.55823  0.11351  0.06321  1.0000
  S   S607      1.0  0.57618  0.10346  0.00182  1.0000
  H   H3612     1.0  0.69823  0.08170  0.44727  1.0000
  C   C4504     1.0  0.54514  0.04174  0.00602  1.0000
  H   H3613     1.0  0.54158  0.07472  0.99227  1.0000
  C   C4505     1.0  0.58503  0.10291  0.08120  1.0000
  C   C4506     1.0  0.66489  0.02319  0.46449  1.0000
  C   C4507     1.0  0.62201  0.05653  0.04841  1.0000
  H   H3614     1.0  0.51443  0.03505  0.12988  1.0000
  S   S608      1.0  0.54779  0.01574  0.20693  1.0000
  H   H3615     1.0  0.49572  0.02241  0.34519  1.0000
  S   S609      1.0  0.71128  0.04954  0.41050  1.0000
  C   C4508     1.0  0.71752  0.01835  0.33549  1.0000
  C   C4509     1.0  0.56050  0.08486  0.04485  1.0000
  C   C4510     1.0  0.55024  0.99487  0.29655  1.0000
  H   H3616     1.0  0.48910  0.07926  0.23067  1.0000
  C   C4511     1.0  0.72494  0.05547  0.46024  1.0000
  C   C4512     1.0  0.55806  0.10746  0.03201  1.0000
  C   C4513     1.0  0.67938  0.06876  0.46569  1.0000
  H   H3617     1.0  0.61822  0.07214  0.35949  1.0000
  C   C4514     1.0  0.58914  0.01044  0.35169  1.0000
  C   C4515     1.0  0.56321  0.06839  0.35423  1.0000
  C   C4516     1.0  0.55481  0.05951  0.35975  1.0000
  C   C4517     1.0  0.49857  0.05430  0.02235  1.0000
  H   H3618     1.0  0.62879  0.04693  0.04953  1.0000
  C   C4518     1.0  0.60028  0.98681  0.44259  1.0000
  C   C4519     1.0  0.65361  0.08717  0.46347  1.0000
  Fe  Fe305     1.0  0.57078  0.03013  0.17438  1.0000
  H   H3619     1.0  0.54589  0.13841  0.34005  1.0000
  H   H3620     1.0  0.60793  0.98979  0.18439  1.0000
  H   H3621     1.0  0.68649  0.03229  0.32083  1.0000
  C   C4520     1.0  0.55549  0.99236  0.23507  1.0000
  H   H3622     1.0  0.54322  0.06219  0.33251  1.0000
  S   S610      1.0  0.57000  0.99508  0.32352  1.0000
  H   H3623     1.0  0.61295  0.00089  0.43553  1.0000
  C   C4521     1.0  0.49627  0.06412  0.27940  1.0000
  C   C4522     1.0  0.49332  0.04299  0.02532  1.0000
  P   P153      1.0  0.51090  0.05666  0.26858  1.0000
  C   C4523     1.0  0.51554  0.03920  0.27612  1.0000
  C   C4524     1.0  0.50816  0.05875  0.25210  1.0000
  C   C4525     1.0  0.51663  0.05067  0.24349  1.0000
  C   C4526     1.0  0.51501  0.05271  0.23052  1.0000
  C   C4527     1.0  0.50501  0.06291  0.22595  1.0000
  C   C4528     1.0  0.50103  0.13849  0.02479  1.0000
  C   C4529     1.0  0.49832  0.06921  0.24729  1.0000
  C   C4530     1.0  0.52826  0.03188  0.27183  1.0000
  C   C4531     1.0  0.53165  0.01824  0.27700  1.0000
  C   C4532     1.0  0.52249  0.01183  0.28678  1.0000
  C   C4533     1.0  0.51002  0.01912  0.29155  1.0000
  C   C4534     1.0  0.50651  0.03274  0.28625  1.0000
  C   C4535     1.0  0.52431  0.06449  0.26651  1.0000
  C   C4536     1.0  0.53174  0.06075  0.27632  1.0000
  C   C4537     1.0  0.54224  0.06664  0.27468  1.0000
  C   C4538     1.0  0.54555  0.07614  0.26316  1.0000
  C   C4539     1.0  0.53821  0.07995  0.25334  1.0000
  C   C4540     1.0  0.52756  0.07424  0.25504  1.0000
  C   C4541     1.0  0.53230  0.00223  0.24240  1.0000
  H   H3624     1.0  0.55211  0.00883  0.02546  1.0000
  C   C4542     1.0  0.66477  0.98916  0.41700  1.0000
  H   H3625     1.0  0.67201  0.99054  0.31254  1.0000
  C   C4543     1.0  0.65037  0.99699  0.37520  1.0000
  H   H3626     1.0  0.52475  0.04302  0.24653  1.0000
  H   H3627     1.0  0.52172  0.04649  0.22392  1.0000
  H   H3628     1.0  0.50389  0.06450  0.21584  1.0000
  C   C4544     1.0  0.60398  0.98687  0.17767  1.0000
  C   C4545     1.0  0.52485  0.00013  0.33851  1.0000
  H   H3629     1.0  0.53556  0.03667  0.26440  1.0000
  H   H3630     1.0  0.54141  0.01267  0.27337  1.0000
  H   H3631     1.0  0.52506  0.00124  0.29075  1.0000
  H   H3632     1.0  0.50303  0.01418  0.29933  1.0000
  H   H3633     1.0  0.49675  0.03810  0.29011  1.0000
  H   H3634     1.0  0.52946  0.05329  0.28525  1.0000
  H   H3635     1.0  0.54793  0.06368  0.28229  1.0000
  H   H3636     1.0  0.55388  0.08046  0.26181  1.0000
  H   H3637     1.0  0.54087  0.08722  0.24433  1.0000
  H   H3638     1.0  0.52209  0.07732  0.24725  1.0000
  P   P154      1.0  0.51038  0.05505  0.03098  1.0000
  H   H3639     1.0  0.59608  0.08295  0.37055  1.0000
  H   H3640     1.0  0.58088  0.01489  0.35866  1.0000
  S   S611      1.0  0.71944  0.06368  0.43551  1.0000
  H   H3641     1.0  0.54131  0.05020  0.35610  1.0000
  C   C4546     1.0  0.59761  0.08123  0.36068  1.0000
  H   H3642     1.0  0.59906  0.00525  0.22982  1.0000
  H   H3643     1.0  0.51750  0.18426  0.99267  1.0000
  C   C4547     1.0  0.66023  0.03420  0.45514  1.0000
  C   C4548     1.0  0.53020  0.10296  0.98998  1.0000
  C   C4549     1.0  0.51484  0.02562  0.34385  1.0000
  H   H3644     1.0  0.68762  0.01587  0.36948  1.0000
  H   H3645     1.0  0.66906  0.02446  0.47203  1.0000
  H   H3646     1.0  0.68367  0.99046  0.44809  1.0000
  C   C4550     1.0  0.50805  0.10028  0.99266  1.0000
  C   C4551     1.0  0.53963  0.06565  0.99921  1.0000
  H   H3647     1.0  0.62257  0.00235  0.34490  1.0000
  C   C4552     1.0  0.51181  0.02245  0.06958  1.0000
  H   H3648     1.0  0.51840  0.11020  0.06844  1.0000
  C   C4553     1.0  0.52551  0.05437  0.01836  1.0000
  C   C4554     1.0  0.69962  0.10194  0.43896  1.0000
  P   P155      1.0  0.67019  0.08129  0.45449  1.0000
  C   C4555     1.0  0.59381  0.01076  0.39084  1.0000
  C   C4556     1.0  0.59420  0.01514  0.40179  1.0000
  C   C4557     1.0  0.59791  0.00599  0.41300  1.0000
  C   C4558     1.0  0.58764  0.09923  0.29317  1.0000
  H   H3649     1.0  0.71441  0.02765  0.32889  1.0000
  H   H3650     1.0  0.63223  0.00327  0.41926  1.0000
  C   C4559     1.0  0.71479  0.01727  0.34932  1.0000
  C   C4560     1.0  0.58548  0.13824  0.99219  1.0000
  H   H3651     1.0  0.55205  0.01928  0.24736  1.0000
  C   C4561     1.0  0.50447  0.10366  0.00507  1.0000
  C   C4562     1.0  0.60575  0.99674  0.44373  1.0000
  C   C4563     1.0  0.50633  0.16014  0.01554  1.0000
  C   C4564     1.0  0.55367  0.00154  0.03450  1.0000
  H   H3652     1.0  0.55753  0.98338  0.28138  1.0000
  H   H3653     1.0  0.57823  0.14793  0.00871  1.0000
  H   H3654     1.0  0.53583  0.12320  0.05883  1.0000
  C   C4565     1.0  0.61011  0.07512  0.35444  1.0000
  H   H3655     1.0  0.53370  0.04465  0.15473  1.0000
  S   S612      1.0  0.55244  0.03542  0.05625  1.0000
  H   H3656     1.0  0.67494  0.02576  0.34444  1.0000
  H   H3657     1.0  0.59115  0.01794  0.38212  1.0000
  H   H3658     1.0  0.59188  0.02570  0.40145  1.0000
  H   H3659     1.0  0.59809  0.00976  0.42125  1.0000
  C   C4566     1.0  0.55330  0.09584  0.03737  1.0000
  H   H3660     1.0  0.55258  0.11588  0.02599  1.0000
  H   H3661     1.0  0.54418  0.09529  0.03545  1.0000
  S   S613      1.0  0.54878  0.00431  0.08436  1.0000
  Fe  Fe306     1.0  0.57510  0.01483  0.09524  1.0000
  H   H3662     1.0  0.56984  0.01938  0.12479  1.0000
  H   H3663     1.0  0.59051  0.02419  0.23819  1.0000
  C   C4567     1.0  0.69036  0.06039  0.32825  1.0000
  Fe  Fe307     1.0  0.72086  0.05880  0.39002  1.0000
  H   H3664     1.0  0.52554  0.07037  0.03696  1.0000
  H   H3665     1.0  0.68347  0.08299  0.47402  1.0000
  C   C4568     1.0  0.65037  0.08423  0.47747  1.0000
  H   H3666     1.0  0.59696  0.00701  0.16766  1.0000
  C   C4569     1.0  0.67699  0.06262  0.33444  1.0000
  H   H3667     1.0  0.66986  0.07013  0.32946  1.0000
  H   H3668     1.0  0.50244  0.02007  0.15344  1.0000
  C   C4570     1.0  0.54785  0.17353  0.98825  1.0000
  H   H3669     1.0  0.59157  0.08639  0.07171  1.0000
  C   C4571     1.0  0.61278  0.05941  0.04057  1.0000
  C   C4572     1.0  0.59209  0.99288  0.16005  1.0000
  H   H3670     1.0  0.50198  0.99686  0.15609  1.0000
  Fe  Fe308     1.0  0.54732  0.01070  0.10297  1.0000
  C   C4573     1.0  0.58092  0.12467  0.06673  1.0000
  C   C4574     1.0  0.56386  0.99419  0.14158  1.0000
  C   C4575     1.0  0.65505  0.03253  0.44532  1.0000
  H   H3671     1.0  0.66249  0.05751  0.35230  1.0000
  C   C4576     1.0  0.67205  0.10786  0.44400  1.0000
  H   H3672     1.0  0.66721  0.00216  0.47191  1.0000
  H   H3673     1.0  0.66052  0.04402  0.45557  1.0000
  C   C4577     1.0  0.59775  0.99657  0.16830  1.0000
  S   S614      1.0  0.52924  0.01259  0.11925  1.0000
  H   H3674     1.0  0.57991  0.10844  0.30992  1.0000
  C   C4578     1.0  0.50076  0.02161  0.25958  1.0000
  C   C4579     1.0  0.60153  0.10716  0.02792  1.0000
  H   H3675     1.0  0.54296  0.00367  0.31355  1.0000
  Fe  Fe309     1.0  0.56880  0.99258  0.08742  1.0000
  H   H3676     1.0  0.55694  0.07579  0.04887  1.0000
  C   C4580     1.0  0.67888  0.09465  0.44739  1.0000
  H   H3677     1.0  0.53280  0.98498  0.36212  1.0000
  H   H3678     1.0  0.55696  0.05326  0.98965  1.0000
  C   C4581     1.0  0.64743  0.01754  0.31766  1.0000
  C   C4582     1.0  0.56125  0.00333  0.04222  1.0000
  S   S615      1.0  0.59260  0.06585  0.01171  1.0000
  H   H3679     1.0  0.49576  0.10362  0.04830  1.0000
  C   C4583     1.0  0.54766  0.05722  0.35191  1.0000
  C   C4584     1.0  0.55709  0.07288  0.33305  1.0000
  C   C4585     1.0  0.61425  0.99941  0.28076  1.0000
  C   C4586     1.0  0.49274  0.99481  0.07016  1.0000
  C   C4587     1.0  0.53340  0.00767  0.33886  1.0000
  P   P156      1.0  0.71869  0.00404  0.46439  1.0000
  H   H3680     1.0  0.60824  0.11865  0.03741  1.0000
  C   C4588     1.0  0.70844  0.01539  0.45355  1.0000
  C   C4589     1.0  0.70833  0.02898  0.45048  1.0000
  C   C4590     1.0  0.69983  0.03802  0.44276  1.0000
  C   C4591     1.0  0.69161  0.03355  0.43781  1.0000
  C   C4592     1.0  0.69169  0.02004  0.44081  1.0000
  C   C4593     1.0  0.69986  0.01101  0.44891  1.0000
  C   C4594     1.0  0.69956  0.05096  0.33491  1.0000
  Fe  Fe310     1.0  0.55775  0.10433  0.99579  1.0000
  H   H3681     1.0  0.52858  0.01947  0.25059  1.0000
  S   S616      1.0  0.49622  0.09783  0.98589  1.0000
  C   C4595     1.0  0.62982  0.99405  0.37283  1.0000
  H   H3682     1.0  0.56884  0.06974  0.36045  1.0000
  C   C4596     1.0  0.49909  0.02497  0.23673  1.0000
  H   H3683     1.0  0.65134  0.04101  0.43809  1.0000
  H   H3684     1.0  0.51864  0.99757  0.20095  1.0000
  C   C4597     1.0  0.49116  0.03319  0.26086  1.0000
  H   H3685     1.0  0.71471  0.03264  0.45413  1.0000
  H   H3686     1.0  0.69976  0.04850  0.44048  1.0000
  H   H3687     1.0  0.68520  0.04057  0.43163  1.0000
  H   H3688     1.0  0.68529  0.01660  0.43699  1.0000
  H   H3689     1.0  0.69948  0.00066  0.45151  1.0000
  H   H3690     1.0  0.67837  0.04113  0.36414  1.0000
  H   H3691     1.0  0.58412  0.12520  0.04590  1.0000
  C   C4598     1.0  0.52320  0.03471  0.04901  1.0000
  H   H3692     1.0  0.48902  0.19081  0.01907  1.0000
  H   H3693     1.0  0.63342  0.00172  0.44234  1.0000
  C   C4599     1.0  0.55065  0.10782  0.06738  1.0000
  H   H3694     1.0  0.59721  0.07392  0.03269  1.0000
  C   C4600     1.0  0.61269  0.00359  0.34365  1.0000
  H   H3695     1.0  0.54394  0.00371  0.33709  1.0000
  H   H3696     1.0  0.72920  0.04898  0.47972  1.0000
  C   C4601     1.0  0.54815  0.05351  0.99759  1.0000
  C   C4602     1.0  0.49396  0.98990  0.22745  1.0000
  H   H3697     1.0  0.56547  0.01204  0.03927  1.0000
  C   C4603     1.0  0.58693  0.00609  0.34155  1.0000
  Fe  Fe311     1.0  0.72623  0.05559  0.41699  1.0000
  S   S617      1.0  0.56636  0.99740  0.10709  1.0000
  C   C4604     1.0  0.55123  0.00237  0.14319  1.0000
  H   H3698     1.0  0.61774  0.12828  0.99464  1.0000
  C   C4605     1.0  0.58751  0.98607  0.46535  1.0000
  C   C4606     1.0  0.48893  0.08926  0.04296  1.0000
  H   H3699     1.0  0.60375  0.01286  0.36037  1.0000
  C   C4607     1.0  0.69636  0.01216  0.31924  1.0000
  Fe  Fe312     1.0  0.58087  0.19415  0.98545  1.0000
  H   H3700     1.0  0.72751  0.06987  0.35013  1.0000
  C   C4608     1.0  0.49667  0.07118  0.23432  1.0000
  C   C4609     1.0  0.55904  0.00213  0.23873  1.0000
  C   C4610     1.0  0.51396  0.13307  0.02641  1.0000
  C   C4611     1.0  0.64219  0.99790  0.43545  1.0000
  C   C4612     1.0  0.51792  0.99760  0.22124  1.0000
  C   C4613     1.0  0.51078  0.99554  0.23455  1.0000
  C   C4614     1.0  0.49877  0.99160  0.23756  1.0000
  C   C4615     1.0  0.64148  0.99894  0.42237  1.0000
  H   H3701     1.0  0.57696  0.00689  0.34082  1.0000
  H   H3702     1.0  0.68860  0.03519  0.47619  1.0000
  P   P157      1.0  0.62426  0.99171  0.32182  1.0000
  H   H3703     1.0  0.54149  0.99376  0.17686  1.0000
  C   C4616     1.0  0.63839  0.99877  0.31903  1.0000
  H   H3704     1.0  0.59708  0.99373  0.38249  1.0000
  C   C4617     1.0  0.61055  0.99963  0.33312  1.0000
  C   C4618     1.0  0.60664  0.99045  0.11453  1.0000
  C   C4619     1.0  0.49936  0.00677  0.10768  1.0000
  C   C4620     1.0  0.48660  0.02800  0.14272  1.0000
  C   C4621     1.0  0.50624  0.01818  0.34360  1.0000
  H   H3705     1.0  0.71761  0.00394  0.36813  1.0000
  C   C4622     1.0  0.54217  0.99235  0.23696  1.0000
  C   C4623     1.0  0.49424  0.05046  0.32497  1.0000
  C   C4624     1.0  0.72452  0.00736  0.32997  1.0000
  H   H3706     1.0  0.60036  0.99497  0.21136  1.0000
  C   C4625     1.0  0.66020  0.00975  0.31529  1.0000
  S   S618      1.0  0.57670  0.98451  0.20353  1.0000
  H   H3707     1.0  0.60379  0.99188  0.13467  1.0000
  H   H3708     1.0  0.73248  0.98310  0.42073  1.0000
  H   H3709     1.0  0.49668  0.12652  0.98205  1.0000
  H   H3710     1.0  0.72157  0.10009  0.46494  1.0000
  C   C4626     1.0  0.62006  0.99485  0.30585  1.0000
  C   C4627     1.0  0.71883  0.05328  0.35298  1.0000
  C   C4628     1.0  0.48711  0.06399  0.00418  1.0000
  C   C4629     1.0  0.60102  0.98803  0.40215  1.0000
  C   C4630     1.0  0.59787  0.99516  0.23199  1.0000
  C   C4631     1.0  0.57774  0.98467  0.31228  1.0000
  C   C4632     1.0  0.73269  0.08178  0.47458  1.0000
  C   C4633     1.0  0.73220  0.00517  0.39111  1.0000
  H   H3711     1.0  0.67502  0.98415  0.43270  1.0000
  H   H3712     1.0  0.52012  0.23273  0.98574  1.0000
  C   C4634     1.0  0.59878  0.98931  0.22156  1.0000
  C   C4635     1.0  0.64009  0.99064  0.46783  1.0000
  C   C4636     1.0  0.60343  0.98495  0.10580  1.0000
  H   H3713     1.0  0.49068  0.03624  0.11535  1.0000
  H   H3714     1.0  0.64042  0.00422  0.47935  1.0000
  C   C4637     1.0  0.72982  0.05565  0.44668  1.0000
  C   C4638     1.0  0.72634  0.99407  0.35193  1.0000
  H   H3715     1.0  0.49062  0.02874  0.07406  1.0000
  C   C4639     1.0  0.73478  0.08979  0.41348  1.0000
  C   C4640     1.0  0.66555  0.98817  0.43007  1.0000
  H   H3716     1.0  0.48995  0.04625  0.05349  1.0000
  H   H3717     1.0  0.48776  0.01384  0.05711  1.0000
  H   H3718     1.0  0.48902  0.04859  0.09263  1.0000
  C   C4641     1.0  0.56835  0.98542  0.15259  1.0000
  C   C4642     1.0  0.65127  0.99113  0.31620  1.0000
  C   C4643     1.0  0.60144  0.98715  0.12824  1.0000
  S   S619      1.0  0.72315  0.01102  0.41602  1.0000
  C   C4644     1.0  0.49248  0.07738  0.03861  1.0000
  H   H3719     1.0  0.48982  0.16276  0.99259  1.0000
  C   C4645     1.0  0.54809  0.99038  0.03844  1.0000
  C   C4646     1.0  0.72165  0.98694  0.46336  1.0000
  H   H3720     1.0  0.53959  0.98466  0.23417  1.0000
  H   H3721     1.0  0.60703  0.98797  0.09514  1.0000
  C   C4647     1.0  0.55618  0.14863  0.98182  1.0000
  C   C4648     1.0  0.72933  0.05922  0.35127  1.0000
  H   H3722     1.0  0.48771  0.03607  0.27036  1.0000
  H   H3723     1.0  0.72985  0.98471  0.35835  1.0000
  C   C4649     1.0  0.73368  0.03168  0.35548  1.0000
  C   C4650     1.0  0.73304  0.04887  0.46934  1.0000
  H   H3724     1.0  0.51183  0.98502  0.32114  1.0000
  H   H3725     1.0  0.72545  0.08700  0.41529  1.0000
  H   H3726     1.0  0.50024  0.98387  0.04038  1.0000
  H   H3727     1.0  0.48706  0.07867  0.30608  1.0000
  H   H3728     1.0  0.70260  0.98806  0.38624  1.0000
  H   H3729     1.0  0.48721  0.15624  0.01812  1.0000
  C   C4651     1.0  0.73004  0.00037  0.40493  1.0000
  H   H3730     1.0  0.73436  0.98670  0.33393  1.0000
  H   H3731     1.0  0.73460  0.09969  0.39304  1.0000
  C   C4652     1.0  0.55212  0.98366  0.29152  1.0000
  C   C4653     1.0  0.72397  0.98358  0.45100  1.0000
  C   C4654     1.0  0.49709  0.98405  0.28451  1.0000
  S   S620      1.0  0.73485  0.06642  0.39663  1.0000
  S   S621      1.0  0.73564  0.04009  0.38625  1.0000
  H   H3732     1.0  0.73551  0.02102  0.35743  1.0000
  H   H3733     1.0  0.73559  0.01221  0.43849  1.0000
  C   C4655     1.0  0.48698  0.05381  0.12322  1.0000
  P   P158      1.0  0.48678  0.04519  0.14037  1.0000
  C   C4656     1.0  0.52291  0.98303  0.26951  1.0000
  Fe  Fe313     1.0  0.53686  0.05637  0.56855  1.0000
  S   S622      1.0  0.54665  0.05115  0.58579  1.0000
  S   S623      1.0  0.54855  0.05761  0.54726  1.0000
  Fe  Fe314     1.0  0.53217  0.06897  0.59202  1.0000
  S   S624      1.0  0.53827  0.08529  0.59661  1.0000
  Fe  Fe315     1.0  0.53023  0.04064  0.59657  1.0000
  C   C4657     1.0  0.66093  0.01164  0.54564  1.0000
  H   H3734     1.0  0.60135  0.13505  0.52677  1.0000
  C   C4658     1.0  0.55297  0.10920  0.55532  1.0000
  H   H3735     1.0  0.53043  0.00118  0.70664  1.0000
  C   C4659     1.0  0.49157  0.08670  0.62753  1.0000
  C   C4660     1.0  0.49838  0.13203  0.97181  1.0000
  S   S625      1.0  0.55604  0.07332  0.67691  1.0000
  Fe  Fe316     1.0  0.56299  0.03573  0.67799  1.0000
  S   S626      1.0  0.57894  0.04703  0.67208  1.0000
  S   S627      1.0  0.57081  0.01417  0.67752  1.0000
  Fe  Fe317     1.0  0.56769  0.05629  0.68951  1.0000
  S   S628      1.0  0.57944  0.05580  0.70413  1.0000
  Fe  Fe318     1.0  0.56568  0.06270  0.66013  1.0000
  S   S629      1.0  0.57287  0.07369  0.63922  1.0000
  S   S630      1.0  0.55247  0.04390  0.69621  1.0000
  S   S631      1.0  0.55060  0.05064  0.66455  1.0000
  C   C4661     1.0  0.49327  0.07928  0.84329  1.0000
  C   C4662     1.0  0.60254  0.18521  0.84948  1.0000
  C   C4663     1.0  0.53112  0.07096  0.72545  1.0000
  H   H3736     1.0  0.61257  0.17979  0.91132  1.0000
  C   C4664     1.0  0.54683  0.11949  0.93893  1.0000
  C   C4665     1.0  0.51923  0.08588  0.70904  1.0000
  S   S632      1.0  0.53180  0.02082  0.61032  1.0000
  H   H3737     1.0  0.68952  0.00870  0.51669  1.0000
  C   C4666     1.0  0.59154  0.16517  0.88162  1.0000
  C   C4667     1.0  0.58984  0.00481  0.73185  1.0000
  S   S633      1.0  0.56480  0.11302  0.97416  1.0000
  S   S634      1.0  0.56800  0.08449  0.95642  1.0000
  C   C4668     1.0  0.59451  0.01068  0.86980  1.0000
  C   C4669     1.0  0.54856  0.98383  0.73780  1.0000
  H   H3738     1.0  0.71923  0.02026  0.48258  1.0000
  H   H3739     1.0  0.54814  0.01952  0.83291  1.0000
  H   H3740     1.0  0.55533  0.02555  0.77095  1.0000
  H   H3741     1.0  0.52527  0.04170  0.69372  1.0000
  C   C4670     1.0  0.57665  0.01530  0.85846  1.0000
  H   H3742     1.0  0.63511  0.01002  0.57068  1.0000
  Fe  Fe319     1.0  0.58394  0.11028  0.97998  1.0000
  S   S635      1.0  0.60589  0.21818  0.94298  1.0000
  Fe  Fe320     1.0  0.53996  0.06058  0.80222  1.0000
  S   S636      1.0  0.54866  0.07828  0.79172  1.0000
  S   S637      1.0  0.51937  0.06430  0.81475  1.0000
  Fe  Fe321     1.0  0.56409  0.04141  0.79125  1.0000
  S   S638      1.0  0.57500  0.05760  0.77974  1.0000
  S   S639      1.0  0.57340  0.02023  0.78918  1.0000
  Fe  Fe322     1.0  0.56705  0.06588  0.79826  1.0000
  S   S640      1.0  0.57953  0.07602  0.80424  1.0000
  Fe  Fe323     1.0  0.55582  0.06878  0.77412  1.0000
  S   S641      1.0  0.55290  0.08199  0.75420  1.0000
  S   S642      1.0  0.55777  0.04877  0.81030  1.0000
  S   S643      1.0  0.54554  0.05202  0.78405  1.0000
  Fe  Fe324     1.0  0.57486  0.11968  0.88336  1.0000
  S   S644      1.0  0.58447  0.11620  0.86279  1.0000
  S   S645      1.0  0.58681  0.11717  0.89831  1.0000
  Fe  Fe325     1.0  0.54790  0.13096  0.87670  1.0000
  S   S646      1.0  0.55531  0.12850  0.85566  1.0000
  S   S647      1.0  0.52685  0.14091  0.88304  1.0000
  Fe  Fe326     1.0  0.56651  0.10854  0.86458  1.0000
  S   S648      1.0  0.56426  0.08932  0.86151  1.0000
  Fe  Fe327     1.0  0.57220  0.13655  0.85620  1.0000
  S   S649      1.0  0.58023  0.15268  0.83996  1.0000
  S   S650      1.0  0.55787  0.11062  0.88582  1.0000
  S   S651      1.0  0.56384  0.14040  0.87660  1.0000
  Fe  Fe328     1.0  0.57966  0.21960  0.88252  1.0000
  C   C4671     1.0  0.49100  0.98382  0.84233  1.0000
  S   S652      1.0  0.59732  0.20796  0.89099  1.0000
  Fe  Fe329     1.0  0.56702  0.22139  0.85993  1.0000
  S   S653      1.0  0.56767  0.21369  0.84200  1.0000
  S   S654      1.0  0.56454  0.20975  0.88102  1.0000
  C   C4672     1.0  0.57572  0.16954  0.84123  1.0000
  C   C4673     1.0  0.57844  0.17918  0.82959  1.0000
  C   C4674     1.0  0.57552  0.19263  0.83000  1.0000
  C   C4675     1.0  0.57018  0.19666  0.84211  1.0000
  C   C4676     1.0  0.56706  0.18715  0.85376  1.0000
  C   C4677     1.0  0.56981  0.17359  0.85335  1.0000
  H   H3743     1.0  0.58292  0.17623  0.82018  1.0000
  H   H3744     1.0  0.57778  0.19992  0.82090  1.0000
  H   H3745     1.0  0.56249  0.19031  0.86302  1.0000
  H   H3746     1.0  0.56759  0.16632  0.86242  1.0000
  H   H3747     1.0  0.53673  0.19818  0.83881  1.0000
  C   C4678     1.0  0.50180  0.14712  0.84714  1.0000
  H   H3748     1.0  0.56184  0.17977  0.97054  1.0000
  C   C4679     1.0  0.51627  0.13122  0.88306  1.0000
  C   C4680     1.0  0.52030  0.11738  0.88515  1.0000
  C   C4681     1.0  0.51121  0.10974  0.88652  1.0000
  C   C4682     1.0  0.52276  0.17862  0.84154  1.0000
  C   C4683     1.0  0.59038  0.99896  0.54335  1.0000
  H   H3749     1.0  0.53025  0.11252  0.88619  1.0000
  H   H3750     1.0  0.51419  0.09904  0.88857  1.0000
  C   C4684     1.0  0.57512  0.07959  0.82021  1.0000
  C   C4685     1.0  0.56720  0.07254  0.83094  1.0000
  C   C4686     1.0  0.56413  0.07546  0.84362  1.0000
  C   C4687     1.0  0.56866  0.08566  0.84556  1.0000
  C   C4688     1.0  0.57669  0.09259  0.83488  1.0000
  C   C4689     1.0  0.58002  0.08946  0.82227  1.0000
  H   H3751     1.0  0.56354  0.06479  0.82946  1.0000
  H   H3752     1.0  0.55803  0.06996  0.85191  1.0000
  H   H3753     1.0  0.58049  0.10022  0.83639  1.0000
  H   H3754     1.0  0.58640  0.09473  0.81408  1.0000
  H   H3755     1.0  0.59736  0.17047  0.97219  1.0000
  H   H3756     1.0  0.58345  0.07371  0.54477  1.0000
  C   C4690     1.0  0.60306  0.21554  0.92865  1.0000
  C   C4691     1.0  0.61378  0.21028  0.91939  1.0000
  C   C4692     1.0  0.61187  0.20815  0.90783  1.0000
  C   C4693     1.0  0.59922  0.21149  0.90531  1.0000
  C   C4694     1.0  0.58842  0.21682  0.91451  1.0000
  H   H3757     1.0  0.51748  0.07128  0.90660  1.0000
  H   H3758     1.0  0.62356  0.20757  0.92133  1.0000
  H   H3759     1.0  0.62022  0.20393  0.90080  1.0000
  C   C4695     1.0  0.49801  0.11154  0.94667  1.0000
  H   H3760     1.0  0.51326  0.04146  0.72769  1.0000
  C   C4696     1.0  0.57325  0.09347  0.94023  1.0000
  C   C4697     1.0  0.57067  0.09068  0.92930  1.0000
  C   C4698     1.0  0.57454  0.09808  0.91636  1.0000
  C   C4699     1.0  0.58123  0.10810  0.91434  1.0000
  C   C4700     1.0  0.58387  0.11080  0.92525  1.0000
  C   C4701     1.0  0.57986  0.10355  0.93819  1.0000
  H   H3761     1.0  0.56579  0.08272  0.93079  1.0000
  H   H3762     1.0  0.57267  0.09580  0.90794  1.0000
  H   H3763     1.0  0.58898  0.11856  0.92366  1.0000
  H   H3764     1.0  0.58198  0.10568  0.94656  1.0000
  H   H3765     1.0  0.57392  0.04261  0.60829  1.0000
  H   H3766     1.0  0.52705  0.03590  0.83247  1.0000
  C   C4702     1.0  0.55118  0.00498  0.64438  1.0000
  C   C4703     1.0  0.69534  0.06659  0.51681  1.0000
  H   H3767     1.0  0.51449  0.98998  0.64252  1.0000
  C   C4704     1.0  0.58776  0.15579  0.92211  1.0000
  C   C4705     1.0  0.58280  0.99418  0.83497  1.0000
  H   H3768     1.0  0.56871  0.02593  0.59443  1.0000
  C   C4706     1.0  0.55969  0.09091  0.53913  1.0000
  C   C4707     1.0  0.53780  0.07023  0.96411  1.0000
  C   C4708     1.0  0.57181  0.06311  0.71799  1.0000
  C   C4709     1.0  0.57447  0.05633  0.73052  1.0000
  C   C4710     1.0  0.56855  0.06195  0.74173  1.0000
  C   C4711     1.0  0.56040  0.07467  0.74033  1.0000
  C   C4712     1.0  0.55817  0.08168  0.72770  1.0000
  C   C4713     1.0  0.56376  0.07585  0.71657  1.0000
  H   H3769     1.0  0.58101  0.04662  0.73160  1.0000
  H   H3770     1.0  0.57042  0.05651  0.75141  1.0000
  H   H3771     1.0  0.55202  0.09159  0.72654  1.0000
  H   H3772     1.0  0.56213  0.08131  0.70681  1.0000
  C   C4714     1.0  0.56137  0.00303  0.68835  1.0000
  C   C4715     1.0  0.49592  0.04251  0.64660  1.0000
  C   C4716     1.0  0.55500  0.02904  0.84422  1.0000
  C   C4717     1.0  0.54074  0.99791  0.70229  1.0000
  C   C4718     1.0  0.54807  0.00729  0.69414  1.0000
  C   C4719     1.0  0.53860  0.14770  0.95852  1.0000
  H   H3773     1.0  0.66674  0.08845  0.51162  1.0000
  H   H3774     1.0  0.54341  0.01773  0.69221  1.0000
  H   H3775     1.0  0.51390  0.17756  0.82615  1.0000
  C   C4720     1.0  0.56428  0.00685  0.53764  1.0000
  C   C4721     1.0  0.70493  0.01501  0.50045  1.0000
  C   C4722     1.0  0.51121  0.13125  0.96408  1.0000
  H   H3776     1.0  0.53964  0.06803  0.72984  1.0000
  H   H3777     1.0  0.53279  0.03841  0.76923  1.0000
  H   H3778     1.0  0.58564  0.99940  0.64452  1.0000
  C   C4723     1.0  0.60754  0.18283  0.86089  1.0000
  H   H3779     1.0  0.50802  0.11481  0.84549  1.0000
  C   C4724     1.0  0.69228  0.99993  0.50012  1.0000
  H   H3780     1.0  0.65134  0.01835  0.54617  1.0000
  H   H3781     1.0  0.49305  0.09305  0.82453  1.0000
  C   C4725     1.0  0.51701  0.07934  0.64567  1.0000
  C   C4726     1.0  0.55634  0.99775  0.54500  1.0000
  H   H3782     1.0  0.65774  0.07871  0.48318  1.0000
  C   C4727     1.0  0.56557  0.05059  0.54508  1.0000
  C   C4728     1.0  0.57422  0.05537  0.53334  1.0000
  C   C4729     1.0  0.58789  0.05033  0.53167  1.0000
  C   C4730     1.0  0.59292  0.04016  0.54154  1.0000
  C   C4731     1.0  0.58426  0.03515  0.55313  1.0000
  C   C4732     1.0  0.57061  0.04034  0.55491  1.0000
  H   H3783     1.0  0.57037  0.06311  0.52559  1.0000
  H   H3784     1.0  0.55595  0.01429  0.72476  1.0000
  S   S655      1.0  0.71110  0.06697  0.51827  1.0000
  H   H3785     1.0  0.56398  0.03639  0.56384  1.0000
  C   C4733     1.0  0.54763  0.08149  0.60878  1.0000
  C   C4734     1.0  0.54915  0.06921  0.61785  1.0000
  C   C4735     1.0  0.55666  0.06679  0.62748  1.0000
  C   C4736     1.0  0.56293  0.07645  0.62776  1.0000
  C   C4737     1.0  0.56153  0.08857  0.61854  1.0000
  C   C4738     1.0  0.55368  0.09118  0.60931  1.0000
  H   H3786     1.0  0.54442  0.06171  0.61757  1.0000
  H   H3787     1.0  0.55759  0.05749  0.63468  1.0000
  H   H3788     1.0  0.56632  0.09608  0.61871  1.0000
  H   H3789     1.0  0.55246  0.10071  0.60241  1.0000
  C   C4739     1.0  0.55151  0.00151  0.58081  1.0000
  C   C4740     1.0  0.53875  0.00851  0.60116  1.0000
  C   C4741     1.0  0.54628  0.01142  0.58819  1.0000
  C   C4742     1.0  0.59200  0.98305  0.65985  1.0000
  H   H3790     1.0  0.54806  0.02129  0.58385  1.0000
  H   H3791     1.0  0.60708  0.00652  0.52991  1.0000
  H   H3792     1.0  0.61526  0.14938  0.93531  1.0000
  C   C4743     1.0  0.49333  0.04477  0.66909  1.0000
  C   C4744     1.0  0.56598  0.00723  0.79968  1.0000
  C   C4745     1.0  0.55401  0.00977  0.80885  1.0000
  H   H3793     1.0  0.62957  0.07946  0.52838  1.0000
  P   P159      1.0  0.57107  0.01799  0.84338  1.0000
  H   H3794     1.0  0.54921  0.01988  0.80963  1.0000
  C   C4746     1.0  0.56807  0.09949  0.53719  1.0000
  P   P160      1.0  0.58321  0.09853  0.52449  1.0000
  H   H3795     1.0  0.51108  0.00383  0.83745  1.0000
  H   H3796     1.0  0.54809  0.09308  0.91518  1.0000
  C   C4747     1.0  0.51966  0.16248  0.96890  1.0000
  H   H3797     1.0  0.58916  0.00027  0.50190  1.0000
  C   C4748     1.0  0.69314  0.04960  0.48371  1.0000
  S   S656      1.0  0.62667  0.03079  0.50172  1.0000
  C   C4749     1.0  0.54306  0.02122  0.65830  1.0000
  C   C4750     1.0  0.53132  0.02553  0.65380  1.0000
  C   C4751     1.0  0.52934  0.01931  0.64490  1.0000
  H   H3798     1.0  0.54451  0.02571  0.66551  1.0000
  H   H3799     1.0  0.52379  0.03365  0.65725  1.0000
  H   H3800     1.0  0.52033  0.02262  0.64126  1.0000
  C   C4752     1.0  0.56847  0.09215  0.49601  1.0000
  C   C4753     1.0  0.51100  0.23161  0.83689  1.0000
  C   C4754     1.0  0.53676  0.07577  0.90037  1.0000
  C   C4755     1.0  0.54535  0.08186  0.90290  1.0000
  H   H3801     1.0  0.49729  0.18091  0.90390  1.0000
  C   C4756     1.0  0.52414  0.07603  0.90853  1.0000
  H   H3802     1.0  0.53993  0.07087  0.89207  1.0000
  H   H3803     1.0  0.55518  0.08154  0.89661  1.0000
  H   H3804     1.0  0.60181  0.08165  0.50688  1.0000
  C   C4757     1.0  0.54010  0.03675  0.76024  1.0000
  C   C4758     1.0  0.53772  0.01578  0.54970  1.0000
  C   C4759     1.0  0.60263  0.00247  0.54012  1.0000
  C   C4760     1.0  0.68620  0.07864  0.51474  1.0000
  H   H3805     1.0  0.50998  0.00748  0.62264  1.0000
  C   C4761     1.0  0.59408  0.13953  0.50887  1.0000
  H   H3806     1.0  0.63906  0.06824  0.59119  1.0000
  H   H3807     1.0  0.67635  0.04611  0.51629  1.0000
  C   C4762     1.0  0.52352  0.06762  0.76196  1.0000
  H   H3808     1.0  0.52383  0.09680  0.97572  1.0000
  C   C4763     1.0  0.54583  0.02752  0.83803  1.0000
  C   C4764     1.0  0.49789  0.02471  0.76365  1.0000
  H   H3809     1.0  0.54759  0.13207  0.90591  1.0000
  H   H3810     1.0  0.59454  0.05431  0.52276  1.0000
  H   H3811     1.0  0.51362  0.10252  0.82063  1.0000
  C   C4765     1.0  0.59339  0.07533  0.54136  1.0000
  H   H3812     1.0  0.57095  0.11519  0.54441  1.0000
  C   C4766     1.0  0.50553  0.04470  0.79630  1.0000
  C   C4767     1.0  0.58477  0.12267  0.50617  1.0000
  C   C4768     1.0  0.50605  0.03719  0.70249  1.0000
  C   C4769     1.0  0.53201  0.16305  0.82690  1.0000
  Fe  Fe330     1.0  0.54172  0.06015  0.68210  1.0000
  H   H3813     1.0  0.64919  0.21258  0.91750  1.0000
  H   H3814     1.0  0.59547  0.11317  0.53521  1.0000
  C   C4770     1.0  0.50242  0.11298  0.73627  1.0000
  H   H3815     1.0  0.49843  0.22232  0.96772  1.0000
  H   H3816     1.0  0.51018  0.08274  0.92525  1.0000
  C   C4771     1.0  0.50231  0.09132  0.61835  1.0000
  C   C4772     1.0  0.58740  0.11462  0.51836  1.0000
  H   H3817     1.0  0.53402  0.06512  0.75784  1.0000
  H   H3818     1.0  0.52567  0.08013  0.77343  1.0000
  H   H3819     1.0  0.58364  0.03971  0.84060  1.0000
  H   H3820     1.0  0.57234  0.02195  0.75061  1.0000
  C   C4773     1.0  0.59241  0.08459  0.50406  1.0000
  C   C4774     1.0  0.62173  0.12311  0.88806  1.0000
  C   C4775     1.0  0.49583  0.99686  0.65536  1.0000
  H   H3821     1.0  0.53700  0.00851  0.77127  1.0000
  C   C4776     1.0  0.50577  0.10750  0.93497  1.0000
  C   C4777     1.0  0.52000  0.08265  0.91902  1.0000
  H   H3822     1.0  0.56453  0.02784  0.53134  1.0000
  H   H3823     1.0  0.60199  0.15149  0.96147  1.0000
  H   H3824     1.0  0.49917  0.20899  0.86659  1.0000
  C   C4778     1.0  0.48825  0.08873  0.86264  1.0000
  C   C4779     1.0  0.53036  0.16139  0.90485  1.0000
  C   C4780     1.0  0.53145  0.17064  0.89271  1.0000
  C   C4781     1.0  0.53161  0.18367  0.89233  1.0000
  C   C4782     1.0  0.53144  0.18724  0.90397  1.0000
  C   C4783     1.0  0.53155  0.17769  0.91601  1.0000
  C   C4784     1.0  0.53049  0.16483  0.91647  1.0000
  P   P161      1.0  0.53246  0.18241  0.93062  1.0000
  C   C4785     1.0  0.54831  0.18611  0.92872  1.0000
  C   C4786     1.0  0.51908  0.19660  0.93239  1.0000
  C   C4787     1.0  0.52101  0.20835  0.93405  1.0000
  H   H3825     1.0  0.51085  0.09243  0.74364  1.0000
  H   H3826     1.0  0.65121  0.14402  0.94736  1.0000
  C   C4788     1.0  0.66220  0.99825  0.54598  1.0000
  H   H3827     1.0  0.53069  0.99343  0.61676  1.0000
  C   C4789     1.0  0.55275  0.18534  0.94010  1.0000
  C   C4790     1.0  0.56529  0.18738  0.93884  1.0000
  C   C4791     1.0  0.57347  0.19027  0.92628  1.0000
  C   C4792     1.0  0.56904  0.19140  0.91490  1.0000
  C   C4793     1.0  0.55650  0.18938  0.91610  1.0000
  C   C4794     1.0  0.53032  0.16954  0.94565  1.0000
  C   C4795     1.0  0.53943  0.15728  0.94656  1.0000
  H   H3828     1.0  0.55674  0.16109  0.90257  1.0000
  H   H3829     1.0  0.53728  0.07678  0.64640  1.0000
  H   H3830     1.0  0.60687  0.07828  0.62352  1.0000
  C   C4796     1.0  0.52050  0.17211  0.95699  1.0000
  H   H3831     1.0  0.52945  0.15153  0.90514  1.0000
  H   H3832     1.0  0.53175  0.16779  0.88366  1.0000
  H   H3833     1.0  0.53182  0.19104  0.88302  1.0000
  H   H3834     1.0  0.53144  0.19746  0.90352  1.0000
  H   H3835     1.0  0.52979  0.15744  0.92569  1.0000
  H   H3836     1.0  0.53070  0.20932  0.93406  1.0000
  Fe  Fe331     1.0  0.56155  0.21070  0.96821  1.0000
  C   C4797     1.0  0.56812  0.17431  0.88808  1.0000
  C   C4798     1.0  0.52078  0.06424  0.73089  1.0000
  C   C4799     1.0  0.50758  0.13358  0.84906  1.0000
  H   H3837     1.0  0.54650  0.18335  0.94997  1.0000
  H   H3838     1.0  0.56857  0.18706  0.94760  1.0000
  H   H3839     1.0  0.58315  0.19188  0.92539  1.0000
  H   H3840     1.0  0.57531  0.19397  0.90515  1.0000
  H   H3841     1.0  0.55330  0.19055  0.90712  1.0000
  H   H3842     1.0  0.54727  0.15522  0.93807  1.0000
  Fe  Fe332     1.0  0.64804  0.02685  0.50189  1.0000
  H   H3843     1.0  0.62687  0.03286  0.55859  1.0000
  C   C4800     1.0  0.50718  0.17534  0.87245  1.0000
  C   C4801     1.0  0.52835  0.08935  0.92123  1.0000
  S   S657      1.0  0.59629  0.12565  0.97121  1.0000
  C   C4802     1.0  0.59010  0.03090  0.63885  1.0000
  C   C4803     1.0  0.50885  0.03702  0.73780  1.0000
  C   C4804     1.0  0.52937  0.20736  0.83824  1.0000
  H   H3844     1.0  0.53776  0.01616  0.79079  1.0000
  C   C4805     1.0  0.53155  0.99129  0.67439  1.0000
  H   H3845     1.0  0.59707  0.01638  0.48170  1.0000
  C   C4806     1.0  0.65252  0.99472  0.50487  1.0000
  H   H3846     1.0  0.49199  0.14039  0.92867  1.0000
  C   C4807     1.0  0.69509  0.00789  0.50675  1.0000
  C   C4808     1.0  0.60380  0.99580  0.56341  1.0000
  C   C4809     1.0  0.58900  0.05909  0.58944  1.0000
  H   H3847     1.0  0.56311  0.08153  0.56920  1.0000
  C   C4810     1.0  0.54012  0.04937  0.84960  1.0000
  C   C4811     1.0  0.52992  0.01144  0.79137  1.0000
  H   H3848     1.0  0.56617  0.99004  0.51946  1.0000
  H   H3849     1.0  0.51179  0.22811  0.93705  1.0000
  C   C4812     1.0  0.51933  0.00119  0.78110  1.0000
  H   H3850     1.0  0.60495  0.00891  0.86943  1.0000
  C   C4813     1.0  0.53654  0.07994  0.95246  1.0000
  H   H3851     1.0  0.61187  0.09642  0.51926  1.0000
  H   H3852     1.0  0.59451  0.04327  0.50567  1.0000
  H   H3853     1.0  0.57083  0.09079  0.58355  1.0000
  C   C4814     1.0  0.49532  0.01520  0.82734  1.0000
  H   H3854     1.0  0.64076  0.22335  0.93683  1.0000
  H   H3855     1.0  0.55760  0.13289  0.92378  1.0000
  H   H3856     1.0  0.50939  0.03668  0.79112  1.0000
  C   C4815     1.0  0.50278  0.00717  0.63201  1.0000
  C   C4816     1.0  0.56964  0.09665  0.50660  1.0000
  H   H3857     1.0  0.59429  0.02810  0.64759  1.0000
  H   H3858     1.0  0.61357  0.02044  0.60796  1.0000
  C   C4817     1.0  0.51583  0.20747  0.84144  1.0000
  C   C4818     1.0  0.62404  0.03019  0.56939  1.0000
  H   H3859     1.0  0.55166  0.15854  0.84832  1.0000
  C   C4819     1.0  0.62381  0.07410  0.60767  1.0000
  C   C4820     1.0  0.49644  0.07526  0.77196  1.0000
  C   C4821     1.0  0.50271  0.14669  0.94559  1.0000
  C   C4822     1.0  0.61787  0.08164  0.95016  1.0000
  C   C4823     1.0  0.49238  0.05155  0.79715  1.0000
  H   H3860     1.0  0.64184  0.22366  0.89632  1.0000
  C   C4824     1.0  0.50966  0.99942  0.79287  1.0000
  H   H3861     1.0  0.51994  0.11653  0.77823  1.0000
  C   C4825     1.0  0.50344  0.13740  0.88154  1.0000
  C   C4826     1.0  0.57722  0.15166  0.89798  1.0000
  H   H3862     1.0  0.61482  0.21294  0.85595  1.0000
  H   H3863     1.0  0.49355  0.04575  0.57664  1.0000
  H   H3864     1.0  0.49361  0.02004  0.77370  1.0000
  C   C4827     1.0  0.56240  0.02730  0.74979  1.0000
  C   C4828     1.0  0.58068  0.17584  0.88061  1.0000
  C   C4829     1.0  0.51479  0.04572  0.69641  1.0000
  H   H3865     1.0  0.61256  0.04967  0.57110  1.0000
  H   H3866     1.0  0.50382  0.15237  0.81034  1.0000
  C   C4830     1.0  0.49762  0.21796  0.93610  1.0000
  S   S658      1.0  0.52040  0.07032  0.68577  1.0000
  C   C4831     1.0  0.55928  0.03247  0.73727  1.0000
  H   H3867     1.0  0.54444  0.04385  0.72639  1.0000
  H   H3868     1.0  0.62130  0.99902  0.49691  1.0000
  C   C4832     1.0  0.54660  0.03982  0.73619  1.0000
  H   H3869     1.0  0.52329  0.13821  0.94505  1.0000
  C   C4833     1.0  0.56734  0.98955  0.69098  1.0000
  H   H3870     1.0  0.53425  0.17683  0.85585  1.0000
  H   H3871     1.0  0.50667  0.03659  0.77027  1.0000
  H   H3872     1.0  0.55730  0.00382  0.57080  1.0000
  C   C4834     1.0  0.53641  0.99577  0.60672  1.0000
  C   C4835     1.0  0.58155  0.02670  0.82943  1.0000
  C   C4836     1.0  0.58424  0.02410  0.81668  1.0000
  C   C4837     1.0  0.59169  0.03149  0.80578  1.0000
  C   C4838     1.0  0.59623  0.04173  0.80747  1.0000
  C   C4839     1.0  0.59343  0.04450  0.82008  1.0000
  C   C4840     1.0  0.58607  0.03708  0.83101  1.0000
  C   C4841     1.0  0.52411  0.08581  0.94945  1.0000
  C   C4842     1.0  0.59236  0.13912  0.97891  1.0000
  C   C4843     1.0  0.50568  0.18850  0.86512  1.0000
  H   H3873     1.0  0.56682  0.03123  0.72833  1.0000
  H   H3874     1.0  0.59963  0.07380  0.48831  1.0000
  C   C4844     1.0  0.59161  0.04044  0.61518  1.0000
  C   C4845     1.0  0.60932  0.08808  0.52707  1.0000
  C   C4846     1.0  0.54672  0.98434  0.70477  1.0000
  Fe  Fe333     1.0  0.50901  0.06204  0.58612  1.0000
  H   H3875     1.0  0.50983  0.02659  0.70431  1.0000
  H   H3876     1.0  0.55927  0.04186  0.85414  1.0000
  C   C4847     1.0  0.67909  0.05518  0.51584  1.0000
  C   C4848     1.0  0.54467  0.12652  0.91599  1.0000
  C   C4849     1.0  0.52206  0.17351  0.83109  1.0000
  Fe  Fe334     1.0  0.72688  0.04829  0.51757  1.0000
  H   H3877     1.0  0.58024  0.01670  0.81499  1.0000
  H   H3878     1.0  0.59354  0.02957  0.79593  1.0000
  H   H3879     1.0  0.60153  0.04781  0.79894  1.0000
  H   H3880     1.0  0.59655  0.05277  0.82126  1.0000
  H   H3881     1.0  0.51925  0.07148  0.64034  1.0000
  H   H3882     1.0  0.58200  0.22260  0.93354  1.0000
  C   C4850     1.0  0.61534  0.15465  0.86246  1.0000
  C   C4851     1.0  0.61656  0.16583  0.88509  1.0000
  C   C4852     1.0  0.62889  0.15724  0.88579  1.0000
  C   C4853     1.0  0.63537  0.15691  0.89555  1.0000
  C   C4854     1.0  0.62953  0.16504  0.90474  1.0000
  C   C4855     1.0  0.61715  0.17342  0.90426  1.0000
  C   C4856     1.0  0.61066  0.17374  0.89455  1.0000
  C   C4857     1.0  0.62648  0.13699  0.84523  1.0000
  C   C4858     1.0  0.63395  0.14505  0.84657  1.0000
  C   C4859     1.0  0.62835  0.15397  0.85501  1.0000
  H   H3883     1.0  0.63354  0.15078  0.87891  1.0000
  H   H3884     1.0  0.64496  0.15039  0.89597  1.0000
  H   H3885     1.0  0.63460  0.16488  0.91220  1.0000
  H   H3886     1.0  0.63070  0.13026  0.83850  1.0000
  H   H3887     1.0  0.64398  0.14462  0.84080  1.0000
  H   H3888     1.0  0.63407  0.16056  0.85552  1.0000
  H   H3889     1.0  0.53557  0.10548  0.95173  1.0000
  C   C4860     1.0  0.51879  0.07634  0.77063  1.0000
  C   C4861     1.0  0.55280  0.02937  0.76127  1.0000
  C   C4862     1.0  0.55875  0.02049  0.53655  1.0000
  C   C4863     1.0  0.55029  0.12701  0.92606  1.0000
  C   C4864     1.0  0.50015  0.11042  0.92385  1.0000
  C   C4865     1.0  0.52870  0.15029  0.96968  1.0000
  C   C4866     1.0  0.50381  0.01306  0.83592  1.0000
  C   C4867     1.0  0.54814  0.99920  0.81681  1.0000
  H   H3890     1.0  0.70699  0.02113  0.50575  1.0000
  C   C4868     1.0  0.50069  0.19883  0.87197  1.0000
  Fe  Fe335     1.0  0.57210  0.09185  0.97224  1.0000
  C   C4869     1.0  0.55211  0.04013  0.84987  1.0000
  H   H3891     1.0  0.49103  0.06452  0.67150  1.0000
  H   H3892     1.0  0.51881  0.09393  0.70033  1.0000
  C   C4870     1.0  0.51940  0.21554  0.96426  1.0000
  H   H3893     1.0  0.59744  0.14767  0.86557  1.0000
  H   H3894     1.0  0.61229  0.07923  0.93333  1.0000
  S   S659      1.0  0.65400  0.06889  0.51171  1.0000
  H   H3895     1.0  0.49163  0.13251  0.72868  1.0000
  H   H3896     1.0  0.51903  0.20520  0.96633  1.0000
  C   C4871     1.0  0.59613  0.01545  0.72626  1.0000
  C   C4872     1.0  0.59478  0.02327  0.71369  1.0000
  C   C4873     1.0  0.58710  0.02051  0.70670  1.0000
  C   C4874     1.0  0.58075  0.00994  0.71226  1.0000
  C   C4875     1.0  0.58397  0.07244  0.59026  1.0000
  C   C4876     1.0  0.53700  0.04225  0.74766  1.0000
  H   H3897     1.0  0.58186  0.18528  0.87397  1.0000
  C   C4877     1.0  0.60428  0.06527  0.61289  1.0000
  H   H3898     1.0  0.59939  0.03799  0.48353  1.0000
  C   C4878     1.0  0.50598  0.98991  0.70983  1.0000
  C   C4879     1.0  0.58540  0.01071  0.88198  1.0000
  H   H3899     1.0  0.49549  0.07074  0.83891  1.0000
  C   C4880     1.0  0.62935  0.06738  0.59726  1.0000
  C   C4881     1.0  0.50138  0.02764  0.73979  1.0000
  C   C4882     1.0  0.52469  0.09236  0.65586  1.0000
  C   C4883     1.0  0.49557  0.19424  0.84086  1.0000
  S   S660      1.0  0.66094  0.00757  0.49785  1.0000
  C   C4884     1.0  0.51944  0.99258  0.67138  1.0000
  H   H3900     1.0  0.61866  0.00380  0.54749  1.0000
  C   C4885     1.0  0.51416  0.11748  0.78811  1.0000
  H   H3901     1.0  0.60201  0.01769  0.73169  1.0000
  H   H3902     1.0  0.59954  0.03161  0.70941  1.0000
  H   H3903     1.0  0.58596  0.02670  0.69701  1.0000
  H   H3904     1.0  0.57487  0.00793  0.70667  1.0000
  C   C4886     1.0  0.54460  0.10079  0.55698  1.0000
  H   H3905     1.0  0.58780  0.04357  0.58081  1.0000
  C   C4887     1.0  0.53041  0.08162  0.71445  1.0000
  H   H3906     1.0  0.59451  0.06469  0.61897  1.0000
  P   P162      1.0  0.52075  0.05216  0.74640  1.0000
  C   C4888     1.0  0.58747  0.01282  0.59667  1.0000
  H   H3907     1.0  0.60739  0.13209  0.85082  1.0000
  C   C4889     1.0  0.53349  0.17308  0.84776  1.0000
  C   C4890     1.0  0.61127  0.07305  0.61546  1.0000
  C   C4891     1.0  0.60977  0.05841  0.60252  1.0000
  H   H3908     1.0  0.52755  0.01925  0.55447  1.0000
  S   S661      1.0  0.52172  0.04400  0.57881  1.0000
  C   C4892     1.0  0.53267  0.11036  0.93151  1.0000
  H   H3909     1.0  0.53163  0.11798  0.91074  1.0000
  H   H3910     1.0  0.69859  0.04538  0.51937  1.0000
  H   H3911     1.0  0.60739  0.14964  0.91100  1.0000
  C   C4893     1.0  0.64110  0.99630  0.51491  1.0000
  C   C4894     1.0  0.56626  0.98355  0.80665  1.0000
  P   P163      1.0  0.60052  0.04842  0.59939  1.0000
  C   C4895     1.0  0.69173  0.05478  0.51749  1.0000
  C   C4896     1.0  0.49944  0.18304  0.89311  1.0000
  C   C4897     1.0  0.51373  0.04826  0.80215  1.0000
  Fe  Fe336     1.0  0.62985  0.05079  0.48961  1.0000
  S   S662      1.0  0.52321  0.07495  0.57412  1.0000
  H   H3912     1.0  0.50476  0.18679  0.93092  1.0000
  H   H3913     1.0  0.60106  0.18030  0.89431  1.0000
  H   H3914     1.0  0.58811  0.02717  0.56072  1.0000
  H   H3915     1.0  0.49185  0.14049  0.90595  1.0000
  H   H3916     1.0  0.55670  0.01599  0.61640  1.0000
  H   H3917     1.0  0.55047  0.14966  0.82984  1.0000
  S   S663      1.0  0.64476  0.03349  0.52080  1.0000
  H   H3918     1.0  0.59798  0.14474  0.89126  1.0000
  C   C4898     1.0  0.67367  0.07902  0.51320  1.0000
  C   C4899     1.0  0.52729  0.08235  0.64896  1.0000
  C   C4900     1.0  0.62236  0.05957  0.59467  1.0000
  C   C4901     1.0  0.56642  0.16227  0.89681  1.0000
  H   H3919     1.0  0.53808  0.05805  0.85371  1.0000
  C   C4902     1.0  0.52667  0.06605  0.97271  1.0000
  S   S664      1.0  0.62453  0.05966  0.50764  1.0000
  P   P164      1.0  0.52267  0.09847  0.93439  1.0000
  H   H3920     1.0  0.53269  0.09442  0.65862  1.0000
  H   H3921     1.0  0.54144  0.03544  0.54183  1.0000
  C   C4903     1.0  0.57871  0.03911  0.61663  1.0000
  C   C4904     1.0  0.57487  0.08057  0.58273  1.0000
  P   P165      1.0  0.58159  0.00095  0.53059  1.0000
  H   H3922     1.0  0.60723  0.03706  0.62553  1.0000
  H   H3923     1.0  0.53749  0.00432  0.63344  1.0000
  C   C4905     1.0  0.56464  0.10860  0.54545  1.0000
  H   H3924     1.0  0.59271  0.01718  0.58691  1.0000
  C   C4906     1.0  0.61641  0.02329  0.59721  1.0000
  H   H3925     1.0  0.57182  0.05817  0.56757  1.0000
  H   H3926     1.0  0.62922  0.08014  0.60969  1.0000
  S   S665      1.0  0.58110  0.19684  0.96394  1.0000
  H   H3927     1.0  0.53150  0.15914  0.81882  1.0000
  C   C4907     1.0  0.62862  0.01731  0.57620  1.0000
  C   C4908     1.0  0.54554  0.02490  0.54255  1.0000
  H   H3928     1.0  0.50161  0.08662  0.78265  1.0000
  C   C4909     1.0  0.54312  0.00220  0.55092  1.0000
  H   H3929     1.0  0.49422  0.06249  0.76091  1.0000
  C   C4910     1.0  0.61549  0.09884  0.93029  1.0000
  P   P166      1.0  0.61907  0.12449  0.92654  1.0000
  C   C4911     1.0  0.62944  0.13096  0.93267  1.0000
  C   C4912     1.0  0.64188  0.12329  0.93460  1.0000
  C   C4913     1.0  0.64974  0.12803  0.93977  1.0000
  C   C4914     1.0  0.64520  0.14041  0.94318  1.0000
  C   C4915     1.0  0.63279  0.14804  0.94146  1.0000
  C   C4916     1.0  0.62493  0.14335  0.93625  1.0000
  C   C4917     1.0  0.60267  0.13487  0.92878  1.0000
  C   C4918     1.0  0.59287  0.13149  0.94003  1.0000
  C   C4919     1.0  0.58064  0.14029  0.94239  1.0000
  C   C4920     1.0  0.57813  0.15250  0.93349  1.0000
  C   C4921     1.0  0.49255  0.99559  0.59934  1.0000
  H   H3930     1.0  0.61316  0.10189  0.92055  1.0000
  H   H3931     1.0  0.64539  0.11353  0.93233  1.0000
  H   H3932     1.0  0.65928  0.12202  0.94131  1.0000
  H   H3933     1.0  0.55919  0.09506  0.49287  1.0000
  C   C4922     1.0  0.50669  0.21972  0.84067  1.0000
  H   H3934     1.0  0.50239  0.20703  0.82201  1.0000
  H   H3935     1.0  0.59470  0.12212  0.94706  1.0000
  H   H3936     1.0  0.57328  0.13770  0.95131  1.0000
  H   H3937     1.0  0.56881  0.15947  0.93545  1.0000
  C   C4923     1.0  0.60355  0.06562  0.54626  1.0000
  H   H3938     1.0  0.60135  0.05668  0.55327  1.0000
  H   H3939     1.0  0.62450  0.05942  0.54515  1.0000
  H   H3940     1.0  0.55045  0.11609  0.56181  1.0000
  H   H3941     1.0  0.53567  0.10109  0.56479  1.0000
  C   C4924     1.0  0.55913  0.10635  0.77242  1.0000
  C   C4925     1.0  0.57265  0.10121  0.77123  1.0000
  C   C4926     1.0  0.57921  0.10363  0.77953  1.0000
  C   C4927     1.0  0.57225  0.11112  0.78911  1.0000
  C   C4928     1.0  0.55865  0.11638  0.79036  1.0000
  C   C4929     1.0  0.55213  0.11378  0.78204  1.0000
  P   P167      1.0  0.54945  0.12530  0.80333  1.0000
  C   C4930     1.0  0.55999  0.13417  0.80618  1.0000
  C   C4931     1.0  0.53541  0.13728  0.79805  1.0000
  C   C4932     1.0  0.53643  0.14405  0.78464  1.0000
  C   C4933     1.0  0.52574  0.15359  0.78054  1.0000
  C   C4934     1.0  0.51398  0.15657  0.78982  1.0000
  C   C4935     1.0  0.51291  0.14998  0.80318  1.0000
  C   C4936     1.0  0.52353  0.14032  0.80731  1.0000
  C   C4937     1.0  0.56816  0.12789  0.81528  1.0000
  C   C4938     1.0  0.57639  0.13464  0.81749  1.0000
  C   C4939     1.0  0.57661  0.14769  0.81054  1.0000
  C   C4940     1.0  0.56857  0.15402  0.80142  1.0000
  C   C4941     1.0  0.56031  0.14730  0.79920  1.0000
  C   C4942     1.0  0.54400  0.11373  0.81848  1.0000
  C   C4943     1.0  0.54270  0.10127  0.81795  1.0000
  C   C4944     1.0  0.53813  0.09249  0.82963  1.0000
  C   C4945     1.0  0.53524  0.09589  0.84197  1.0000
  C   C4946     1.0  0.53683  0.10812  0.84263  1.0000
  C   C4947     1.0  0.54097  0.11711  0.83093  1.0000
  H   H3942     1.0  0.55404  0.10417  0.76615  1.0000
  H   H3943     1.0  0.57797  0.09504  0.76410  1.0000
  H   H3944     1.0  0.58960  0.09919  0.77896  1.0000
  H   H3945     1.0  0.57747  0.11245  0.79573  1.0000
  H   H3946     1.0  0.54161  0.11731  0.78308  1.0000
  H   H3947     1.0  0.54557  0.14205  0.77735  1.0000
  H   H3948     1.0  0.52662  0.15875  0.77018  1.0000
  H   H3949     1.0  0.50571  0.16402  0.78666  1.0000
  H   H3950     1.0  0.55714  0.01653  0.87131  1.0000
  H   H3951     1.0  0.52243  0.13533  0.81771  1.0000
  H   H3952     1.0  0.56818  0.11777  0.82068  1.0000
  H   H3953     1.0  0.58253  0.12981  0.82469  1.0000
  H   H3954     1.0  0.58296  0.15293  0.81231  1.0000
  H   H3955     1.0  0.56875  0.16417  0.79609  1.0000
  H   H3956     1.0  0.55427  0.15240  0.79202  1.0000
  H   H3957     1.0  0.54539  0.09819  0.80859  1.0000
  H   H3958     1.0  0.53728  0.08284  0.82912  1.0000
  H   H3959     1.0  0.53218  0.08889  0.85107  1.0000
  H   H3960     1.0  0.53507  0.11050  0.85227  1.0000
  H   H3961     1.0  0.54201  0.12659  0.83166  1.0000
  H   H3962     1.0  0.59917  0.98762  0.66114  1.0000
  S   S666      1.0  0.60995  0.03342  0.53965  1.0000
  C   C4948     1.0  0.48793  0.14418  0.83439  1.0000
  H   H3963     1.0  0.69301  0.01155  0.54277  1.0000
  H   H3964     1.0  0.63752  0.00541  0.51845  1.0000
  H   H3965     1.0  0.50188  0.99477  0.79327  1.0000
  H   H3966     1.0  0.58609  0.14124  0.49204  1.0000
  C   C4949     1.0  0.58973  0.15309  0.89038  1.0000
  H   H3967     1.0  0.51504  0.12945  0.85495  1.0000
  C   C4950     1.0  0.68571  0.99441  0.54407  1.0000
  H   H3968     1.0  0.55144  0.00137  0.85331  1.0000
  C   C4951     1.0  0.59618  0.08666  0.53175  1.0000
  H   H3969     1.0  0.58016  0.11943  0.50025  1.0000
  H   H3970     1.0  0.56219  0.08351  0.53324  1.0000
  C   C4952     1.0  0.61338  0.13794  0.85224  1.0000
  H   H3971     1.0  0.51062  0.09213  0.62157  1.0000
  H   H3972     1.0  0.54158  0.08505  0.55017  1.0000
  C   C4953     1.0  0.52948  0.00718  0.78036  1.0000
  C   C4954     1.0  0.60219  0.19743  0.84038  1.0000
  H   H3973     1.0  0.50014  0.08273  0.71038  1.0000
  H   H3974     1.0  0.59816  0.19931  0.83168  1.0000
  H   H3975     1.0  0.58715  0.02708  0.52605  1.0000
  H   H3976     1.0  0.57147  0.02647  0.65003  1.0000
  C   C4955     1.0  0.54270  0.15768  0.83309  1.0000
  H   H3977     1.0  0.65344  0.99496  0.54672  1.0000
  C   C4956     1.0  0.55293  0.01096  0.65365  1.0000
  C   C4957     1.0  0.59734  0.03605  0.62635  1.0000
  C   C4958     1.0  0.53796  0.11130  0.94171  1.0000
  C   C4959     1.0  0.53491  0.98770  0.73900  1.0000
  C   C4960     1.0  0.51473  0.00617  0.58498  1.0000
  H   H3978     1.0  0.52380  0.04279  0.80167  1.0000
  C   C4961     1.0  0.53916  0.00898  0.64035  1.0000
  C   C4962     1.0  0.61865  0.10769  0.93577  1.0000
  H   H3979     1.0  0.61741  0.09763  0.48268  1.0000
  C   C4963     1.0  0.59995  0.14697  0.91973  1.0000
  H   H3980     1.0  0.64585  0.12315  0.90878  1.0000
  C   C4964     1.0  0.54122  0.08853  0.91336  1.0000
  H   H3981     1.0  0.49618  0.22013  0.84348  1.0000
  H   H3982     1.0  0.56185  0.00774  0.65738  1.0000
  C   C4965     1.0  0.54122  0.98606  0.59915  1.0000
  C   C4966     1.0  0.67202  0.01644  0.54444  1.0000
  C   C4967     1.0  0.61657  0.06713  0.54164  1.0000
  H   H3983     1.0  0.53234  0.22119  0.87577  1.0000
  C   C4968     1.0  0.57536  0.06211  0.57382  1.0000
  C   C4969     1.0  0.59670  0.13160  0.52103  1.0000
  H   H3984     1.0  0.58581  0.16522  0.91516  1.0000
  C   C4970     1.0  0.51245  0.22658  0.87301  1.0000
  C   C4971     1.0  0.54796  0.09169  0.54884  1.0000
  H   H3985     1.0  0.62252  0.11033  0.95357  1.0000
  C   C4972     1.0  0.62550  0.12412  0.90908  1.0000
  C   C4973     1.0  0.63897  0.12322  0.90316  1.0000
  C   C4974     1.0  0.50117  0.06629  0.76354  1.0000
  C   C4975     1.0  0.59168  0.99215  0.56670  1.0000
  P   P168      1.0  0.56449  0.99286  0.63712  1.0000
  H   H3986     1.0  0.53450  0.99992  0.67484  1.0000
  C   C4976     1.0  0.52899  0.00099  0.73485  1.0000
  H   H3987     1.0  0.53851  0.08662  0.71010  1.0000
  C   C4977     1.0  0.56663  0.98742  0.75933  1.0000
  H   H3988     1.0  0.50465  0.15266  0.93557  1.0000
  H   H3989     1.0  0.52189  0.05507  0.84295  1.0000
  C   C4978     1.0  0.50886  0.05883  0.80866  1.0000
  H   H3990     1.0  0.65414  0.12156  0.88529  1.0000
  C   C4979     1.0  0.61168  0.03622  0.59042  1.0000
  C   C4980     1.0  0.54340  0.16269  0.84351  1.0000
  C   C4981     1.0  0.51799  0.10853  0.79933  1.0000
  C   C4982     1.0  0.50641  0.19575  0.93228  1.0000
  C   C4983     1.0  0.61504  0.08590  0.93750  1.0000
  C   C4984     1.0  0.51066  0.04051  0.74876  1.0000
  C   C4985     1.0  0.49766  0.19614  0.88588  1.0000
  C   C4986     1.0  0.57376  0.00139  0.62185  1.0000
  C   C4987     1.0  0.58730  0.99638  0.61747  1.0000
  C   C4988     1.0  0.52020  0.00979  0.80312  1.0000
  H   H3991     1.0  0.52067  0.01341  0.81138  1.0000
  C   C4989     1.0  0.67006  0.06737  0.51364  1.0000
  H   H3992     1.0  0.59877  0.17769  0.84766  1.0000
  C   C4990     1.0  0.64373  0.12233  0.88978  1.0000
  C   C4991     1.0  0.61697  0.12404  0.90138  1.0000
  P   P169      1.0  0.60790  0.16695  0.87249  1.0000
  C   C4992     1.0  0.58445  0.05392  0.58131  1.0000
  C   C4993     1.0  0.61943  0.07841  0.53213  1.0000
  C   C4994     1.0  0.62492  0.01390  0.59011  1.0000
  H   H3993     1.0  0.57859  0.21916  0.91273  1.0000
  C   C4995     1.0  0.58905  0.02473  0.51643  1.0000
  C   C4996     1.0  0.53386  0.03679  0.83776  1.0000
  C   C4997     1.0  0.50529  0.99733  0.64329  1.0000
  C   C4998     1.0  0.59412  0.00212  0.60495  1.0000
  H   H3994     1.0  0.58879  0.00901  0.89106  1.0000
  C   C4999     1.0  0.56158  0.15921  0.97346  1.0000
  H   H3995     1.0  0.57591  0.14230  0.90471  1.0000
  H   H3996     1.0  0.50223  0.10983  0.95523  1.0000
  C   C5000     1.0  0.50414  0.17266  0.88638  1.0000
  H   H3997     1.0  0.60662  0.12442  0.90578  1.0000
  H   H3998     1.0  0.56491  0.01275  0.89194  1.0000
  C   C5001     1.0  0.55033  0.00668  0.72865  1.0000
  H   H3999     1.0  0.52667  0.10060  0.79815  1.0000
  H   H4000     1.0  0.58680  0.07663  0.59684  1.0000
  C   C5002     1.0  0.58203  0.00201  0.72492  1.0000
  C   C5003     1.0  0.51304  0.08121  0.95791  1.0000
  C   C5004     1.0  0.56717  0.01211  0.61343  1.0000
  C   C5005     1.0  0.51028  0.21904  0.93578  1.0000
  C   C5006     1.0  0.51431  0.07149  0.96956  1.0000
  C   C5007     1.0  0.49203  0.09201  0.83510  1.0000
  C   C5008     1.0  0.57213  0.99410  0.79869  1.0000
  H   H4001     1.0  0.51213  0.16461  0.97762  1.0000
  C   C5009     1.0  0.57399  0.01778  0.60090  1.0000
  C   C5010     1.0  0.51336  0.13862  0.95098  1.0000
  P   P170      1.0  0.51006  0.19212  0.84710  1.0000
  C   C5011     1.0  0.53099  0.04768  0.84357  1.0000
  C   C5012     1.0  0.63511  0.12227  0.88223  1.0000
  H   H4002     1.0  0.63878  0.12146  0.87191  1.0000
  H   H4003     1.0  0.50995  0.02128  0.84877  1.0000
  H   H4004     1.0  0.61500  0.12282  0.88235  1.0000
  C   C5013     1.0  0.58735  0.01257  0.51556  1.0000
  C   C5014     1.0  0.61215  0.19287  0.86304  1.0000
  H   H4005     1.0  0.54570  0.13831  0.95922  1.0000
  C   C5015     1.0  0.51046  0.10956  0.81208  1.0000
  H   H4006     1.0  0.55145  0.11954  0.94667  1.0000
  H   H4007     1.0  0.51368  0.18165  0.95687  1.0000
  H   H4008     1.0  0.59113  0.99886  0.74157  1.0000
  H   H4009     1.0  0.61601  0.19148  0.87172  1.0000
  H   H4010     1.0  0.50566  0.06833  0.97624  1.0000
  S   S667      1.0  0.51666  0.05787  0.60460  1.0000
  H   H4011     1.0  0.51094  0.09808  0.59763  1.0000
  C   C5016     1.0  0.50992  0.00381  0.80395  1.0000
  C   C5017     1.0  0.53670  0.01048  0.72969  1.0000
  C   C5018     1.0  0.51475  0.06231  0.75859  1.0000
  C   C5019     1.0  0.59023  0.00960  0.50293  1.0000
  S   S668      1.0  0.65157  0.04629  0.48853  1.0000
  C   C5020     1.0  0.50987  0.05945  0.69355  1.0000
  Fe  Fe337     1.0  0.62346  0.03917  0.51970  1.0000
  C   C5021     1.0  0.57052  0.07538  0.57460  1.0000
  C   C5022     1.0  0.50951  0.06872  0.72551  1.0000
  C   C5023     1.0  0.57160  0.03370  0.62911  1.0000
  H   H4012     1.0  0.54744  0.06607  0.96646  1.0000
  C   C5024     1.0  0.59336  0.11920  0.52577  1.0000
  C   C5025     1.0  0.58811  0.13507  0.50146  1.0000
  C   C5026     1.0  0.61578  0.03965  0.57648  1.0000
  C   C5027     1.0  0.49082  0.99409  0.73040  1.0000
  H   H4013     1.0  0.60595  0.21700  0.83581  1.0000
  H   H4014     1.0  0.56122  0.10315  0.51147  1.0000
  C   C5028     1.0  0.60932  0.00083  0.55011  1.0000
  C   C5029     1.0  0.57721  0.02988  0.64024  1.0000
  H   H4015     1.0  0.62865  0.00397  0.59541  1.0000
  C   C5030     1.0  0.61163  0.20511  0.85399  1.0000
  H   H4016     1.0  0.55970  0.18246  0.88698  1.0000
  H   H4017     1.0  0.51085  0.16711  0.86748  1.0000
  C   C5031     1.0  0.59324  0.03389  0.50492  1.0000
  Fe  Fe338     1.0  0.58930  0.21466  0.96064  1.0000
  H   H4018     1.0  0.56151  0.03308  0.63026  1.0000
  C   C5032     1.0  0.68438  0.00781  0.54375  1.0000
  H   H4019     1.0  0.54528  0.08300  0.94591  1.0000
  C   C5033     1.0  0.60664  0.20740  0.84267  1.0000
  S   S669      1.0  0.53076  0.22705  0.90078  1.0000
  H   H4020     1.0  0.49567  0.02626  0.66372  1.0000
  C   C5034     1.0  0.60778  0.14678  0.86075  1.0000
  H   H4021     1.0  0.62682  0.05452  0.58654  1.0000
  H   H4022     1.0  0.67107  0.02687  0.54393  1.0000
  C   C5035     1.0  0.58157  0.09267  0.51088  1.0000
  C   C5036     1.0  0.53573  0.11840  0.91874  1.0000
  H   H4023     1.0  0.61735  0.07165  0.95581  1.0000
  C   C5037     1.0  0.59032  0.21867  0.92631  1.0000
  C   C5038     1.0  0.57124  0.00175  0.84151  1.0000
  C   C5039     1.0  0.49338  0.13047  0.83667  1.0000
  C   C5040     1.0  0.64250  0.22222  0.91661  1.0000
  H   H4024     1.0  0.58147  0.99207  0.79172  1.0000
  H   H4025     1.0  0.51343  0.00242  0.66888  1.0000
  H   H4026     1.0  0.49247  0.09590  0.58954  1.0000
  C   C5041     1.0  0.50388  0.01384  0.59209  1.0000
  C   C5042     1.0  0.49871  0.11924  0.81369  1.0000
  H   H4027     1.0  0.52336  0.01019  0.57970  1.0000
  H   H4028     1.0  0.53888  0.00118  0.82388  1.0000
  C   C5043     1.0  0.58511  0.99354  0.55670  1.0000
  H   H4029     1.0  0.49989  0.13456  0.78098  1.0000
  H   H4030     1.0  0.53723  0.99507  0.55684  1.0000
  H   H4031     1.0  0.63502  0.08568  0.49515  1.0000
  C   C5044     1.0  0.62084  0.09043  0.95576  1.0000
  H   H4032     1.0  0.54362  0.23024  0.92010  1.0000
  C   C5045     1.0  0.48766  0.05617  0.70319  1.0000
  C   C5046     1.0  0.56758  0.01505  0.87076  1.0000
  C   C5047     1.0  0.50345  0.12529  0.84380  1.0000
  C   C5048     1.0  0.53150  0.21912  0.96126  1.0000
  C   C5049     1.0  0.50523  0.03418  0.76169  1.0000
  H   H4033     1.0  0.48927  0.22603  0.93788  1.0000
  C   C5050     1.0  0.62090  0.10350  0.94875  1.0000
  Fe  Fe339     1.0  0.64618  0.05342  0.50755  1.0000
  H   H4034     1.0  0.69546  0.98799  0.54343  1.0000
  C   C5051     1.0  0.59017  0.01288  0.85807  1.0000
  C   C5052     1.0  0.67461  0.98945  0.54527  1.0000
  C   C5053     1.0  0.56025  0.99603  0.84767  1.0000
  H   H4035     1.0  0.50602  0.10816  0.91444  1.0000
  S   S670      1.0  0.59192  0.08968  0.97623  1.0000
  C   C5054     1.0  0.49916  0.23157  0.87832  1.0000
  C   C5055     1.0  0.49572  0.20638  0.93420  1.0000
  H   H4036     1.0  0.57837  0.08034  0.48127  1.0000
  H   H4037     1.0  0.59265  0.98724  0.70574  1.0000
  H   H4038     1.0  0.62259  0.08725  0.96577  1.0000
  H   H4039     1.0  0.49173  0.07352  0.81499  1.0000
  H   H4040     1.0  0.50337  0.08511  0.95566  1.0000
  C   C5056     1.0  0.51175  0.09932  0.65963  1.0000
  H   H4041     1.0  0.50478  0.15344  0.85153  1.0000
  C   C5057     1.0  0.52209  0.22485  0.88008  1.0000
  C   C5058     1.0  0.50253  0.09944  0.74007  1.0000
  C   C5059     1.0  0.49560  0.06539  0.80991  1.0000
  H   H4042     1.0  0.56932  0.15769  0.96471  1.0000
  H   H4043     1.0  0.48705  0.10896  0.68392  1.0000
  S   S671      1.0  0.72015  0.00209  0.53111  1.0000
  C   C5060     1.0  0.59123  0.08014  0.49346  1.0000
  H   H4044     1.0  0.62913  0.15752  0.94439  1.0000
  H   H4045     1.0  0.60452  0.99811  0.60159  1.0000
  C   C5061     1.0  0.53363  0.21929  0.83443  1.0000
  H   H4046     1.0  0.50977  0.10683  0.66529  1.0000
  C   C5062     1.0  0.50874  0.07949  0.71465  1.0000
  H   H4047     1.0  0.53222  0.02078  0.72622  1.0000
  C   C5063     1.0  0.50398  0.08638  0.64927  1.0000
  C   C5064     1.0  0.50325  0.02294  0.84234  1.0000
  C   C5065     1.0  0.50048  0.99782  0.71922  1.0000
  C   C5066     1.0  0.57195  0.01285  0.88247  1.0000
  H   H4048     1.0  0.68883  0.08777  0.51430  1.0000
  C   C5067     1.0  0.48974  0.14711  0.95313  1.0000
  H   H4049     1.0  0.60887  0.99483  0.57113  1.0000
  C   C5068     1.0  0.49283  0.00861  0.59922  1.0000
  C   C5069     1.0  0.50252  0.09478  0.60471  1.0000
  C   C5070     1.0  0.52447  0.23140  0.83381  1.0000
  H   H4050     1.0  0.49981  0.02518  0.73129  1.0000
  C   C5071     1.0  0.63740  0.08816  0.48434  1.0000
  C   C5072     1.0  0.50140  0.09631  0.65642  1.0000
  H   H4051     1.0  0.50409  0.02380  0.59225  1.0000
  H   H4052     1.0  0.59735  0.01268  0.84872  1.0000
  C   C5073     1.0  0.55645  0.99326  0.73250  1.0000
  H   H4053     1.0  0.51065  0.11646  0.73693  1.0000
  H   H4054     1.0  0.51851  0.00381  0.73531  1.0000
  S   S672      1.0  0.48692  0.06850  0.58873  1.0000
  C   C5074     1.0  0.48943  0.10318  0.84057  1.0000
  H   H4055     1.0  0.72531  0.08093  0.48387  1.0000
  C   C5075     1.0  0.69171  0.06306  0.48301  1.0000
  H   H4056     1.0  0.57588  0.99039  0.55942  1.0000
  C   C5076     1.0  0.49246  0.04245  0.70573  1.0000
  C   C5077     1.0  0.49481  0.05617  0.64196  1.0000
  H   H4057     1.0  0.50376  0.00681  0.71784  1.0000
  C   C5078     1.0  0.50283  0.12757  0.78966  1.0000
  C   C5079     1.0  0.49600  0.02139  0.75271  1.0000
  C   C5080     1.0  0.59464  0.01871  0.49143  1.0000
  C   C5081     1.0  0.49436  0.12979  0.88297  1.0000
  C   C5082     1.0  0.49502  0.03682  0.66016  1.0000
  H   H4058     1.0  0.68454  0.99453  0.50499  1.0000
  C   C5083     1.0  0.51460  0.99322  0.58503  1.0000
  P   P171      1.0  0.49668  0.00245  0.81871  1.0000
  H   H4059     1.0  0.55896  0.99608  0.75704  1.0000
  H   H4060     1.0  0.59669  0.14914  0.50520  1.0000
  H   H4061     1.0  0.49387  0.04282  0.84504  1.0000
  P   P172      1.0  0.49864  0.98336  0.66948  1.0000
  H   H4062     1.0  0.52811  0.14289  0.97897  1.0000
  C   C5084     1.0  0.50525  0.08011  0.77568  1.0000
  C   C5085     1.0  0.49419  0.03504  0.84028  1.0000
  S   S673      1.0  0.54576  0.20658  0.96124  1.0000
  H   H4063     1.0  0.50035  0.14808  0.87957  1.0000
  C   C5086     1.0  0.50771  0.22526  0.96504  1.0000
  C   C5087     1.0  0.57925  0.08385  0.48947  1.0000
  H   H4064     1.0  0.50576  0.16248  0.89194  1.0000
  H   H4065     1.0  0.49265  0.04038  0.67962  1.0000
  C   C5088     1.0  0.49198  0.09490  0.73918  1.0000
  S   S674      1.0  0.73112  0.03199  0.53524  1.0000
  C   C5089     1.0  0.49812  0.11594  0.88584  1.0000
  C   C5090     1.0  0.48738  0.06177  0.80413  1.0000
  C   C5091     1.0  0.49236  0.05846  0.66447  1.0000
  C   C5092     1.0  0.48719  0.98766  0.68439  1.0000
  Fe  Fe340     1.0  0.55015  0.22808  0.88610  1.0000
  S   S675      1.0  0.72509  0.03515  0.50566  1.0000
  H   H4066     1.0  0.50119  0.06410  0.72987  1.0000
  C   C5093     1.0  0.50032  0.98691  0.83046  1.0000
  C   C5094     1.0  0.49512  0.12847  0.80240  1.0000
  C   C5095     1.0  0.59604  0.03089  0.49242  1.0000
  C   C5096     1.0  0.49456  0.20211  0.82813  1.0000
  H   H4067     1.0  0.58729  0.98829  0.57700  1.0000
  H   H4068     1.0  0.49253  0.07527  0.69473  1.0000
  H   H4069     1.0  0.51946  0.12506  0.96830  1.0000
  P   P173      1.0  0.48805  0.11964  0.82998  1.0000
  C   C5097     1.0  0.49633  0.06466  0.69696  1.0000
  C   C5098     1.0  0.49281  0.06429  0.65091  1.0000
  C   C5099     1.0  0.49203  0.15243  0.83974  1.0000
  H   H4070     1.0  0.54408  0.21911  0.83220  1.0000
  H   H4071     1.0  0.49149  0.10160  0.65974  1.0000
  C   C5100     1.0  0.63833  0.22844  0.90471  1.0000
  H   H4072     1.0  0.51899  0.99790  0.77255  1.0000
  C   C5101     1.0  0.48707  0.10147  0.85446  1.0000
  C   C5102     1.0  0.61822  0.98475  0.48805  1.0000
  H   H4073     1.0  0.59164  0.99807  0.83071  1.0000
  C   C5103     1.0  0.49208  0.09367  0.60014  1.0000
  H   H4074     1.0  0.49037  0.01401  0.75424  1.0000
  H   H4075     1.0  0.49226  0.08440  0.74216  1.0000
  C   C5104     1.0  0.59661  0.15078  0.97173  1.0000
  H   H4076     1.0  0.48746  0.16291  0.83836  1.0000
  H   H4077     1.0  0.62582  0.98702  0.52855  1.0000
  H   H4078     1.0  0.51371  0.99260  0.70133  1.0000
  C   C5105     1.0  0.50359  0.98794  0.59217  1.0000
  H   H4079     1.0  0.56042  0.98716  0.54659  1.0000
  H   H4080     1.0  0.49250  0.17110  0.95418  1.0000
  H   H4081     1.0  0.49403  0.20429  0.89098  1.0000
  H   H4082     1.0  0.55976  0.13891  0.97955  1.0000
  S   S676      1.0  0.56967  0.22897  0.96303  1.0000
  C   C5106     1.0  0.58429  0.98971  0.65045  1.0000
  H   H4083     1.0  0.69597  0.06610  0.48940  1.0000
  C   C5107     1.0  0.49172  0.12200  0.73161  1.0000
  H   H4084     1.0  0.49550  0.06028  0.63141  1.0000
  C   C5108     1.0  0.71197  0.01425  0.48745  1.0000
  C   C5109     1.0  0.49150  0.07763  0.85704  1.0000
  C   C5110     1.0  0.69934  0.99898  0.48722  1.0000
  C   C5111     1.0  0.62456  0.99421  0.48854  1.0000
  C   C5112     1.0  0.59391  0.16157  0.97775  1.0000
  C   C5113     1.0  0.72752  0.98976  0.52198  1.0000
  H   H4085     1.0  0.49214  0.00666  0.68115  1.0000
  H   H4086     1.0  0.57767  0.98631  0.68676  1.0000
  P   P174      1.0  0.57397  0.98817  0.73204  1.0000
  C   C5114     1.0  0.53199  0.23250  0.95845  1.0000
  H   H4087     1.0  0.69845  0.04230  0.49069  1.0000
  H   H4088     1.0  0.51537  0.22426  0.86327  1.0000
  P   P175      1.0  0.49083  0.08204  0.64522  1.0000
  H   H4089     1.0  0.49246  0.06777  0.86338  1.0000
  C   C5115     1.0  0.48686  0.14924  0.92287  1.0000
  Fe  Fe341     1.0  0.73075  0.01881  0.52254  1.0000
  C   C5116     1.0  0.55416  0.98609  0.81558  1.0000
  C   C5117     1.0  0.63451  0.98590  0.52066  1.0000
  C   C5118     1.0  0.57465  0.98408  0.64905  1.0000
  C   C5119     1.0  0.49093  0.01665  0.63272  1.0000
  H   H4090     1.0  0.49742  0.03639  0.63960  1.0000
  C   C5120     1.0  0.48769  0.13990  0.96636  1.0000
  C   C5121     1.0  0.54894  0.98881  0.58631  1.0000
  H   H4091     1.0  0.48684  0.00026  0.73766  1.0000
  H   H4092     1.0  0.56064  0.98642  0.78053  1.0000
  H   H4093     1.0  0.48904  0.02429  0.62397  1.0000
  H   H4094     1.0  0.69682  0.99288  0.48221  1.0000
  C   C5122     1.0  0.51850  0.22802  0.89258  1.0000
  H   H4095     1.0  0.48686  0.19069  0.96397  1.0000
  H   H4096     1.0  0.59252  0.98780  0.62352  1.0000
  C   C5123     1.0  0.55741  0.17163  0.97671  1.0000
  S   S677      1.0  0.58343  0.22989  0.86089  1.0000
  C   C5124     1.0  0.63777  0.22830  0.92750  1.0000
  C   C5125     1.0  0.58404  0.98495  0.52684  1.0000
  H   H4097     1.0  0.52318  0.98711  0.57987  1.0000
  H   H4098     1.0  0.52062  0.98795  0.54034  1.0000
  C   C5126     1.0  0.70952  0.00582  0.48092  1.0000
  C   C5127     1.0  0.73614  0.99252  0.50964  1.0000
  C   C5128     1.0  0.48667  0.11593  0.92491  1.0000
  H   H4099     1.0  0.48661  0.08754  0.87334  1.0000
  C   C5129     1.0  0.48664  0.14916  0.90997  1.0000
  C   C5130     1.0  0.50516  0.23257  0.89817  1.0000
  C   C5131     1.0  0.56050  0.98335  0.84644  1.0000
  S   S678      1.0  0.48627  0.10647  0.88937  1.0000
  Fe  Fe342     1.0  0.66080  0.37572  0.00061  1.0000
  S   S679      1.0  0.65626  0.36182  0.02052  1.0000
  C   C5132     1.0  0.63784  0.36191  0.98679  1.0000
  Fe  Fe343     1.0  0.64912  0.40029  0.01194  1.0000
  S   S680      1.0  0.64362  0.38876  0.03268  1.0000
  S   S681      1.0  0.64594  0.42232  0.00427  1.0000
  Fe  Fe344     1.0  0.66369  0.37560  0.02786  1.0000
  S   S682      1.0  0.67630  0.36828  0.04320  1.0000
  Fe  Fe345     1.0  0.63654  0.37610  0.02368  1.0000
  S   S683      1.0  0.61539  0.37331  0.02998  1.0000
  S   S684      1.0  0.66969  0.38819  0.00775  1.0000
  S   S685      1.0  0.64058  0.38882  0.00329  1.0000
  Fe  Fe346     1.0  0.58266  0.32511  0.00778  1.0000
  S   S686      1.0  0.56442  0.33907  0.00164  1.0000
  S   S687      1.0  0.59766  0.32662  0.01838  1.0000
  Fe  Fe347     1.0  0.58153  0.30402  0.99384  1.0000
  S   S688      1.0  0.56339  0.31613  0.98660  1.0000
  C   C5133     1.0  0.69429  0.35454  0.01241  1.0000
  H   H4100     1.0  0.60739  0.44294  0.00437  1.0000
  P   P176      1.0  0.59641  0.40394  0.05643  1.0000
  Fe  Fe348     1.0  0.55610  0.32075  0.00686  1.0000
  S   S689      1.0  0.53517  0.31896  0.01723  1.0000
  C   C5134     1.0  0.68853  0.45973  0.98759  1.0000
  S   S690      1.0  0.57360  0.30711  0.01471  1.0000
  C   C5135     1.0  0.65777  0.31714  0.99904  1.0000
  C   C5136     1.0  0.58693  0.41869  0.01998  1.0000
  H   H4101     1.0  0.61192  0.30002  0.01169  1.0000
  H   H4102     1.0  0.71459  0.46690  0.04021  1.0000
  C   C5137     1.0  0.71713  0.33589  0.00481  1.0000
  Fe  Fe349     1.0  0.57304  0.33331  0.98182  1.0000
  C   C5138     1.0  0.69022  0.44875  0.98219  1.0000
  H   H4103     1.0  0.55319  0.26650  0.03937  1.0000
  H   H4104     1.0  0.71776  0.35173  0.03174  1.0000
  S   S691      1.0  0.61536  0.46337  0.04089  1.0000
  H   H4105     1.0  0.49020  0.32773  0.01058  1.0000
  H   H4106     1.0  0.57772  0.36825  0.05304  1.0000
  H   H4107     1.0  0.57803  0.42224  0.01615  1.0000
  H   H4108     1.0  0.57605  0.37096  0.09277  1.0000
  H   H4109     1.0  0.57259  0.41109  0.07748  1.0000
  H   H4110     1.0  0.62241  0.47948  0.98610  1.0000
  H   H4111     1.0  0.73207  0.42439  0.01100  1.0000
  H   H4112     1.0  0.63675  0.40464  0.06950  1.0000
  H   H4113     1.0  0.56649  0.28240  0.00103  1.0000
  C   C5139     1.0  0.50569  0.26027  0.99855  1.0000
  H   H4114     1.0  0.55494  0.26437  0.00466  1.0000
  C   C5140     1.0  0.73344  0.36819  0.99383  1.0000
  C   C5141     1.0  0.69393  0.43867  0.03788  1.0000
  S   S692      1.0  0.59178  0.32093  0.98741  1.0000
  C   C5142     1.0  0.52282  0.32620  0.00789  1.0000
  C   C5143     1.0  0.51016  0.32356  0.01322  1.0000
  C   C5144     1.0  0.49997  0.32966  0.00628  1.0000
  C   C5145     1.0  0.50231  0.33866  0.99407  1.0000
  C   C5146     1.0  0.65841  0.47593  0.01606  1.0000
  C   C5147     1.0  0.52528  0.33485  0.99545  1.0000
  H   H4115     1.0  0.50819  0.31694  0.02287  1.0000
  C   C5148     1.0  0.70666  0.35720  0.01057  1.0000
  H   H4116     1.0  0.71502  0.47755  0.05742  1.0000
  H   H4117     1.0  0.53498  0.33697  0.99126  1.0000
  C   C5149     1.0  0.63736  0.43322  0.01490  1.0000
  C   C5150     1.0  0.63324  0.42885  0.02868  1.0000
  C   C5151     1.0  0.62654  0.43817  0.03666  1.0000
  C   C5152     1.0  0.62385  0.45179  0.03084  1.0000
  C   C5153     1.0  0.62795  0.45601  0.01708  1.0000
  C   C5154     1.0  0.63478  0.44677  0.00919  1.0000
  H   H4118     1.0  0.63545  0.41839  0.03320  1.0000
  H   H4119     1.0  0.62359  0.43485  0.04734  1.0000
  H   H4120     1.0  0.62566  0.46636  0.01242  1.0000
  H   H4121     1.0  0.63807  0.45009  0.99859  1.0000
  C   C5155     1.0  0.61087  0.36071  0.02564  1.0000
  C   C5156     1.0  0.61930  0.34823  0.02553  1.0000
  C   C5157     1.0  0.61500  0.33795  0.02341  1.0000
  C   C5158     1.0  0.60245  0.34013  0.02078  1.0000
  C   C5159     1.0  0.59409  0.35272  0.02058  1.0000
  C   C5160     1.0  0.59822  0.36290  0.02321  1.0000
  H   H4122     1.0  0.62895  0.34636  0.02762  1.0000
  H   H4123     1.0  0.62143  0.32821  0.02392  1.0000
  H   H4124     1.0  0.58435  0.35449  0.01875  1.0000
  H   H4125     1.0  0.59158  0.37248  0.02343  1.0000
  C   C5161     1.0  0.68971  0.37419  0.04412  1.0000
  C   C5162     1.0  0.69753  0.38128  0.03312  1.0000
  C   C5163     1.0  0.70875  0.38462  0.03466  1.0000
  C   C5164     1.0  0.71184  0.38121  0.04729  1.0000
  C   C5165     1.0  0.70367  0.37463  0.05818  1.0000
  C   C5166     1.0  0.69290  0.37096  0.05658  1.0000
  H   H4126     1.0  0.69507  0.38396  0.02347  1.0000
  H   H4127     1.0  0.71496  0.38978  0.02617  1.0000
  H   H4128     1.0  0.70589  0.37202  0.06796  1.0000
  H   H4129     1.0  0.68699  0.36552  0.06512  1.0000
  H   H4130     1.0  0.63494  0.36735  0.06369  1.0000
  C   C5167     1.0  0.59923  0.41856  0.01122  1.0000
  C   C5168     1.0  0.68216  0.48247  0.04702  1.0000
  C   C5169     1.0  0.65388  0.46510  0.03940  1.0000
  C   C5170     1.0  0.68905  0.42079  0.98541  1.0000
  C   C5171     1.0  0.70037  0.42546  0.04182  1.0000
  C   C5172     1.0  0.71399  0.42218  0.04061  1.0000
  C   C5173     1.0  0.69745  0.40829  0.98482  1.0000
  C   C5174     1.0  0.66278  0.43711  0.02490  1.0000
  C   C5175     1.0  0.66577  0.42525  0.03411  1.0000
  C   C5176     1.0  0.67725  0.41580  0.03082  1.0000
  C   C5177     1.0  0.68580  0.41829  0.01836  1.0000
  C   C5178     1.0  0.68295  0.43028  0.00910  1.0000
  C   C5179     1.0  0.67119  0.43955  0.01235  1.0000
  H   H4131     1.0  0.58184  0.36239  0.98558  1.0000
  C   C5180     1.0  0.66195  0.31960  0.01929  1.0000
  H   H4132     1.0  0.69484  0.41770  0.04587  1.0000
  H   H4133     1.0  0.53817  0.25723  0.99729  1.0000
  H   H4134     1.0  0.65493  0.48114  0.00704  1.0000
  C   C5181     1.0  0.62410  0.36457  0.98965  1.0000
  H   H4135     1.0  0.68729  0.48083  0.98347  1.0000
  C   C5182     1.0  0.71500  0.42728  0.00315  1.0000
  H   H4136     1.0  0.49784  0.29664  0.99232  1.0000
  C   C5183     1.0  0.49968  0.28045  0.01895  1.0000
  C   C5184     1.0  0.59342  0.43041  0.05650  1.0000
  C   C5185     1.0  0.60308  0.46371  0.99451  1.0000
  C   C5186     1.0  0.71818  0.34786  0.00688  1.0000
  H   H4137     1.0  0.65939  0.32482  0.02729  1.0000
  H   H4138     1.0  0.70393  0.32420  0.00468  1.0000
  H   H4139     1.0  0.59696  0.44668  0.02686  1.0000
  H   H4140     1.0  0.62574  0.31606  0.00744  1.0000
  C   C5187     1.0  0.58492  0.25028  0.98805  1.0000
  C   C5188     1.0  0.51923  0.24125  0.98969  1.0000
  H   H4141     1.0  0.65361  0.44416  0.02727  1.0000
  H   H4142     1.0  0.65898  0.42323  0.04365  1.0000
  H   H4143     1.0  0.67937  0.40641  0.03779  1.0000
  H   H4144     1.0  0.69443  0.41066  0.01580  1.0000
  H   H4145     1.0  0.66817  0.44840  0.00511  1.0000
  C   C5189     1.0  0.53049  0.24414  0.99110  1.0000
  C   C5190     1.0  0.57171  0.25162  0.99483  1.0000
  C   C5191     1.0  0.67155  0.47453  0.01635  1.0000
  H   H4146     1.0  0.70655  0.40543  0.98825  1.0000
  H   H4147     1.0  0.70828  0.42808  0.01264  1.0000
  C   C5192     1.0  0.54041  0.28139  0.02778  1.0000
  P   P177      1.0  0.73406  0.35167  0.00422  1.0000
  C   C5193     1.0  0.73097  0.35143  0.04341  1.0000
  C   C5194     1.0  0.63713  0.38530  0.06717  1.0000
  H   H4148     1.0  0.68778  0.45843  0.99815  1.0000
  C   C5195     1.0  0.71485  0.44522  0.03136  1.0000
  H   H4149     1.0  0.58582  0.38360  0.98694  1.0000
  C   C5196     1.0  0.67607  0.46801  0.02807  1.0000
  C   C5197     1.0  0.50765  0.29859  0.98851  1.0000
  H   H4150     1.0  0.60704  0.35650  0.99340  1.0000
  H   H4151     1.0  0.67082  0.30064  0.99089  1.0000
  C   C5198     1.0  0.62487  0.34197  0.98919  1.0000
  H   H4152     1.0  0.68343  0.44078  0.03873  1.0000
  C   C5199     1.0  0.53097  0.29261  0.98840  1.0000
  C   C5200     1.0  0.51821  0.29034  0.99405  1.0000
  H   H4153     1.0  0.61346  0.37740  0.05760  1.0000
  C   C5201     1.0  0.70471  0.33336  0.00644  1.0000
  S   S693      1.0  0.72558  0.38465  0.05061  1.0000
  H   H4154     1.0  0.54592  0.24771  0.03652  1.0000
  H   H4155     1.0  0.49739  0.26010  0.02599  1.0000
  H   H4156     1.0  0.61950  0.33453  0.99019  1.0000
  C   C5202     1.0  0.54167  0.25781  0.03206  1.0000
  H   H4157     1.0  0.59172  0.45088  0.05640  1.0000
  C   C5203     1.0  0.53108  0.28385  0.02014  1.0000
  C   C5204     1.0  0.57705  0.41954  0.07293  1.0000
  C   C5205     1.0  0.53233  0.26023  0.02441  1.0000
  H   H4158     1.0  0.61887  0.40618  0.03354  1.0000
  C   C5206     1.0  0.71036  0.42846  0.99181  1.0000
  C   C5207     1.0  0.56516  0.26321  0.99955  1.0000
  C   C5208     1.0  0.62040  0.30013  0.00337  1.0000
  H   H4159     1.0  0.71062  0.45561  0.00537  1.0000
  C   C5209     1.0  0.57921  0.37335  0.05974  1.0000
  C   C5210     1.0  0.64961  0.47120  0.02757  1.0000
  H   H4160     1.0  0.57654  0.41435  0.04043  1.0000
  H   H4161     1.0  0.52699  0.29404  0.01575  1.0000
  C   C5211     1.0  0.61072  0.41410  0.01619  1.0000
  C   C5212     1.0  0.57115  0.43134  0.07740  1.0000
  C   C5213     1.0  0.60993  0.40952  0.02988  1.0000
  C   C5214     1.0  0.58740  0.39080  0.06308  1.0000
  H   H4162     1.0  0.57137  0.36008  0.07751  1.0000
  H   H4163     1.0  0.67021  0.45897  0.04899  1.0000
  C   C5215     1.0  0.51691  0.26283  0.00064  1.0000
  H   H4164     1.0  0.49604  0.26661  0.00104  1.0000
  C   C5216     1.0  0.62817  0.30935  0.00082  1.0000
  C   C5217     1.0  0.59179  0.47868  0.00952  1.0000
  C   C5218     1.0  0.70995  0.46618  0.00332  1.0000
  H   H4165     1.0  0.59986  0.42201  0.00060  1.0000
  H   H4166     1.0  0.67835  0.30548  0.02637  1.0000
  H   H4167     1.0  0.58732  0.46954  0.03043  1.0000
  C   C5219     1.0  0.57837  0.37484  0.08210  1.0000
  C   C5220     1.0  0.57169  0.27346  0.99745  1.0000
  C   C5221     1.0  0.58757  0.44215  0.06102  1.0000
  H   H4168     1.0  0.64681  0.38090  0.06938  1.0000
  C   C5222     1.0  0.63043  0.37765  0.06398  1.0000
  H   H4169     1.0  0.56244  0.43177  0.08543  1.0000
  C   C5223     1.0  0.61243  0.39686  0.06053  1.0000
  H   H4170     1.0  0.58689  0.38998  0.08364  1.0000
  C   C5224     1.0  0.59766  0.40934  0.03870  1.0000
  S   S694      1.0  0.59329  0.28494  0.98750  1.0000
  P   P178      1.0  0.51550  0.27656  0.00786  1.0000
  C   C5225     1.0  0.63150  0.39869  0.06713  1.0000
  H   H4171     1.0  0.64691  0.46168  0.04834  1.0000
  C   C5226     1.0  0.67576  0.30189  0.00853  1.0000
  H   H4172     1.0  0.73178  0.42954  0.03410  1.0000
  P   P179      1.0  0.69296  0.43219  0.99238  1.0000
  S   S695      1.0  0.56307  0.23908  0.99751  1.0000
  H   H4173     1.0  0.70726  0.36653  0.01209  1.0000
  H   H4174     1.0  0.61724  0.28417  0.99703  1.0000
  C   C5227     1.0  0.69358  0.47421  0.04111  1.0000
  C   C5228     1.0  0.72121  0.43206  0.03529  1.0000
  C   C5229     1.0  0.70221  0.47374  0.01271  1.0000
  H   H4175     1.0  0.59007  0.24136  0.98441  1.0000
  C   C5230     1.0  0.66706  0.46353  0.03968  1.0000
  C   C5231     1.0  0.70111  0.44876  0.03291  1.0000
  H   H4176     1.0  0.53939  0.28604  0.99211  1.0000
  H   H4177     1.0  0.64501  0.48078  0.98464  1.0000
  H   H4178     1.0  0.57196  0.45172  0.07502  1.0000
  H   H4179     1.0  0.61845  0.37426  0.99126  1.0000
  C   C5232     1.0  0.61823  0.38342  0.06051  1.0000
  C   C5233     1.0  0.60272  0.45293  0.00554  1.0000
  C   C5234     1.0  0.72849  0.42534  0.00224  1.0000
  C   C5235     1.0  0.57646  0.44261  0.07151  1.0000
  H   H4180     1.0  0.64286  0.36962  0.98591  1.0000
  C   C5236     1.0  0.59142  0.46790  0.02041  1.0000
  C   C5237     1.0  0.59683  0.45502  0.01840  1.0000
  C   C5238     1.0  0.66833  0.30604  0.99873  1.0000
  H   H4181     1.0  0.72583  0.32856  0.00179  1.0000
  C   C5239     1.0  0.59771  0.47662  0.99666  1.0000
  C   C5240     1.0  0.58506  0.38431  0.05452  1.0000
  C   C5241     1.0  0.61917  0.40445  0.06392  1.0000
  C   C5242     1.0  0.58435  0.38572  0.07690  1.0000
  H   H4182     1.0  0.72329  0.46633  0.98409  1.0000
  H   H4183     1.0  0.52930  0.25192  0.02326  1.0000
  H   H4184     1.0  0.62936  0.43632  0.98732  1.0000
  C   C5243     1.0  0.70579  0.47872  0.05469  1.0000
  C   C5244     1.0  0.62302  0.43406  0.98246  1.0000
  C   C5245     1.0  0.58840  0.41892  0.06259  1.0000
  C   C5246     1.0  0.71710  0.47224  0.99118  1.0000
  C   C5247     1.0  0.69329  0.34269  0.01024  1.0000
  C   C5248     1.0  0.72715  0.37208  0.98310  1.0000
  H   H4185     1.0  0.61505  0.41478  0.06408  1.0000
  C   C5249     1.0  0.63876  0.31007  0.98970  1.0000
  H   H4186     1.0  0.72076  0.45261  0.02701  1.0000
  H   H4187     1.0  0.62028  0.41417  0.00950  1.0000
  H   H4188     1.0  0.63941  0.47240  0.02742  1.0000
  C   C5250     1.0  0.57576  0.36868  0.07352  1.0000
  H   H4189     1.0  0.71898  0.41200  0.04372  1.0000
  H   H4190     1.0  0.49821  0.24757  0.99146  1.0000
  H   H4191     1.0  0.66986  0.43307  0.98309  1.0000
  C   C5251     1.0  0.52935  0.25500  0.99640  1.0000
  H   H4192     1.0  0.68365  0.34080  0.01146  1.0000
  C   C5252     1.0  0.58491  0.27209  0.99072  1.0000
  H   H4193     1.0  0.60195  0.43028  0.04827  1.0000
  C   C5253     1.0  0.54579  0.26838  0.03365  1.0000
  H   H4194     1.0  0.72329  0.35188  0.05239  1.0000
  H   H4195     1.0  0.58827  0.38723  0.04381  1.0000
  C   C5254     1.0  0.72787  0.35138  0.03159  1.0000
  P   P180      1.0  0.69307  0.46610  0.02857  1.0000
  S   S696      1.0  0.48942  0.34757  0.98576  1.0000
  H   H4196     1.0  0.68548  0.36168  0.01555  1.0000
  H   H4197     1.0  0.54351  0.28964  0.02905  1.0000
  C   C5255     1.0  0.58613  0.41418  0.03370  1.0000
  C   C5256     1.0  0.51502  0.34115  0.98864  1.0000
  C   C5257     1.0  0.52726  0.27326  0.01808  1.0000
  H   H4198     1.0  0.54011  0.23793  0.98813  1.0000
  C   C5258     1.0  0.61766  0.35462  0.99076  1.0000
  C   C5259     1.0  0.63868  0.33906  0.98686  1.0000
  C   C5260     1.0  0.70546  0.47260  0.04490  1.0000
  C   C5261     1.0  0.49415  0.29353  0.02050  1.0000
  C   C5262     1.0  0.62342  0.29119  0.99513  1.0000
  S   S697      1.0  0.67089  0.36913  0.98129  1.0000
  C   C5263     1.0  0.50687  0.24948  0.99312  1.0000
  C   C5264     1.0  0.49312  0.27033  0.02668  1.0000
  H   H4199     1.0  0.68393  0.29334  0.00822  1.0000
  C   C5265     1.0  0.65448  0.32375  0.00954  1.0000
  H   H4200     1.0  0.64613  0.33207  0.01032  1.0000
  H   H4201     1.0  0.49920  0.30143  0.01497  1.0000
  H   H4202     1.0  0.72248  0.36536  0.98112  1.0000
  P   P181      1.0  0.64835  0.32249  0.98626  1.0000
  H   H4203     1.0  0.67802  0.47884  0.00750  1.0000
  H   H4204     1.0  0.63285  0.41351  0.98485  1.0000
  C   C5266     1.0  0.64512  0.34921  0.98543  1.0000
  C   C5267     1.0  0.63441  0.29127  0.98450  1.0000
  C   C5268     1.0  0.67261  0.30870  0.01876  1.0000
  H   H4205     1.0  0.65579  0.34728  0.98357  1.0000
  C   C5269     1.0  0.59153  0.26044  0.98612  1.0000
  C   C5270     1.0  0.67683  0.42381  0.98190  1.0000
  H   H4206     1.0  0.60177  0.25933  0.98091  1.0000
  C   C5271     1.0  0.62497  0.42108  0.98111  1.0000
  C   C5272     1.0  0.64214  0.30058  0.98186  1.0000
  C   C5273     1.0  0.60690  0.28111  0.92928  1.0000
  P   P182      1.0  0.61408  0.26326  0.91259  1.0000
  H   H4207     1.0  0.70480  0.40546  0.93212  1.0000
  H   H4208     1.0  0.51692  0.34807  0.97922  1.0000
  H   H4209     1.0  0.60093  0.42547  0.96462  1.0000
  C   C5274     1.0  0.69459  0.48089  0.91949  1.0000
  C   C5275     1.0  0.64050  0.36898  0.84568  1.0000
  Fe  Fe350     1.0  0.65094  0.40578  0.91495  1.0000
  S   S698      1.0  0.66346  0.38778  0.90758  1.0000
  S   S699      1.0  0.64325  0.40791  0.93612  1.0000
  Fe  Fe351     1.0  0.64914  0.42214  0.88742  1.0000
  S   S700      1.0  0.66103  0.40528  0.87750  1.0000
  S   S701      1.0  0.64344  0.44316  0.87599  1.0000
  Fe  Fe352     1.0  0.64921  0.39246  0.89426  1.0000
  S   S702      1.0  0.64384  0.37339  0.89465  1.0000
  Fe  Fe353     1.0  0.67414  0.40193  0.89156  1.0000
  S   S703      1.0  0.69591  0.39986  0.88308  1.0000
  S   S704      1.0  0.63592  0.40970  0.90279  1.0000
  S   S705      1.0  0.66308  0.41952  0.90034  1.0000
  Fe  Fe354     1.0  0.56690  0.34108  0.87349  1.0000
  S   S706      1.0  0.58744  0.34126  0.86138  1.0000
  S   S707      1.0  0.55115  0.34918  0.86151  1.0000
  Fe  Fe355     1.0  0.57662  0.32818  0.89915  1.0000
  S   S708      1.0  0.59779  0.32766  0.88897  1.0000
  S   S709      1.0  0.57254  0.31743  0.92050  1.0000
  Fe  Fe356     1.0  0.59008  0.34837  0.87814  1.0000
  S   S710      1.0  0.59718  0.36745  0.87336  1.0000
  Fe  Fe357     1.0  0.59280  0.32060  0.87345  1.0000
  S   S711      1.0  0.60471  0.30216  0.86588  1.0000
  S   S712      1.0  0.56907  0.34940  0.88957  1.0000
  S   S713      1.0  0.57209  0.31996  0.88441  1.0000
  H   H4210     1.0  0.55697  0.25199  0.82891  1.0000
  H   H4211     1.0  0.52310  0.40667  0.90097  1.0000
  C   C5276     1.0  0.65931  0.34697  0.83487  1.0000
  C   C5277     1.0  0.73320  0.45730  0.88431  1.0000
  S   S714      1.0  0.49309  0.34453  0.89202  1.0000
  P   P183      1.0  0.65228  0.35361  0.84971  1.0000
  C   C5278     1.0  0.53504  0.34782  0.86997  1.0000
  C   C5279     1.0  0.52536  0.35021  0.86268  1.0000
  C   C5280     1.0  0.51235  0.34938  0.86932  1.0000
  C   C5281     1.0  0.50906  0.34609  0.88325  1.0000
  C   C5282     1.0  0.51874  0.34372  0.89049  1.0000
  C   C5283     1.0  0.53171  0.34465  0.88387  1.0000
  H   H4212     1.0  0.52793  0.35277  0.85190  1.0000
  H   H4213     1.0  0.50489  0.35126  0.86369  1.0000
  H   H4214     1.0  0.51611  0.34136  0.90125  1.0000
  H   H4215     1.0  0.53911  0.34308  0.88948  1.0000
  C   C5284     1.0  0.57532  0.32586  0.93089  1.0000
  C   C5285     1.0  0.57358  0.33967  0.92750  1.0000
  C   C5286     1.0  0.57362  0.34645  0.93692  1.0000
  C   C5287     1.0  0.57581  0.33938  0.94952  1.0000
  C   C5288     1.0  0.57873  0.32554  0.95240  1.0000
  C   C5289     1.0  0.57822  0.31880  0.94319  1.0000
  H   H4216     1.0  0.57135  0.34514  0.91798  1.0000
  H   H4217     1.0  0.57130  0.35716  0.93470  1.0000
  H   H4218     1.0  0.50910  0.32355  0.94902  1.0000
  H   H4219     1.0  0.57978  0.30814  0.94573  1.0000
  C   C5290     1.0  0.64016  0.45488  0.88586  1.0000
  C   C5291     1.0  0.64009  0.46828  0.87980  1.0000
  C   C5292     1.0  0.66266  0.32532  0.94613  1.0000
  H   H4220     1.0  0.66890  0.47361  0.87061  1.0000
  C   C5293     1.0  0.63403  0.46045  0.90757  1.0000
  C   C5294     1.0  0.63731  0.45098  0.89977  1.0000
  H   H4221     1.0  0.64227  0.47134  0.86905  1.0000
  C   C5295     1.0  0.72137  0.42690  0.90805  1.0000
  H   H4222     1.0  0.63145  0.45739  0.91832  1.0000
  H   H4223     1.0  0.63723  0.44070  0.90453  1.0000
  C   C5296     1.0  0.63027  0.37228  0.88931  1.0000
  C   C5297     1.0  0.62608  0.36025  0.89350  1.0000
  C   C5298     1.0  0.61583  0.35866  0.88883  1.0000
  C   C5299     1.0  0.60969  0.36914  0.87996  1.0000
  C   C5300     1.0  0.61368  0.38128  0.87602  1.0000
  C   C5301     1.0  0.62399  0.38284  0.88061  1.0000
  H   H4224     1.0  0.63085  0.35210  0.90031  1.0000
  H   H4225     1.0  0.61276  0.34931  0.89198  1.0000
  H   H4226     1.0  0.60888  0.38946  0.86925  1.0000
  H   H4227     1.0  0.62718  0.39213  0.87731  1.0000
  C   C5302     1.0  0.70599  0.39235  0.89462  1.0000
  C   C5303     1.0  0.66817  0.37769  0.95522  1.0000
  H   H4228     1.0  0.52210  0.24629  0.92088  1.0000
  H   H4229     1.0  0.72634  0.45305  0.91719  1.0000
  C   C5304     1.0  0.54022  0.35714  0.94278  1.0000
  C   C5305     1.0  0.65260  0.39772  0.94761  1.0000
  P   P184      1.0  0.53633  0.27892  0.93532  1.0000
  C   C5306     1.0  0.66201  0.38628  0.94505  1.0000
  H   H4230     1.0  0.60133  0.29482  0.94221  1.0000
  H   H4231     1.0  0.66422  0.38384  0.93544  1.0000
  C   C5307     1.0  0.57811  0.27712  0.86253  1.0000
  C   C5308     1.0  0.57349  0.29069  0.86225  1.0000
  C   C5309     1.0  0.58169  0.29834  0.86303  1.0000
  C   C5310     1.0  0.59462  0.29247  0.86439  1.0000
  C   C5311     1.0  0.59937  0.27882  0.86466  1.0000
  C   C5312     1.0  0.59110  0.27113  0.86381  1.0000
  H   H4232     1.0  0.56353  0.29542  0.86123  1.0000
  H   H4233     1.0  0.57806  0.30889  0.86221  1.0000
  H   H4234     1.0  0.60940  0.27418  0.86558  1.0000
  H   H4235     1.0  0.59481  0.26066  0.86396  1.0000
  C   C5313     1.0  0.62483  0.27380  0.90157  1.0000
  H   H4236     1.0  0.64948  0.29492  0.87767  1.0000
  C   C5314     1.0  0.50947  0.39990  0.96097  1.0000
  H   H4237     1.0  0.64431  0.32355  0.96006  1.0000
  C   C5315     1.0  0.66436  0.47432  0.93221  1.0000
  H   H4238     1.0  0.63894  0.40218  0.83352  1.0000
  H   H4239     1.0  0.53148  0.27957  0.80428  1.0000
  C   C5316     1.0  0.63070  0.32525  0.86909  1.0000
  C   C5317     1.0  0.60129  0.38456  0.96909  1.0000
  C   C5318     1.0  0.69887  0.41663  0.91387  1.0000
  C   C5319     1.0  0.71807  0.41811  0.92020  1.0000
  C   C5320     1.0  0.67024  0.33644  0.81194  1.0000
  C   C5321     1.0  0.67097  0.47168  0.88039  1.0000
  C   C5322     1.0  0.62896  0.24065  0.92648  1.0000
  P   P185      1.0  0.53300  0.29321  0.84434  1.0000
  C   C5323     1.0  0.54562  0.30220  0.84187  1.0000
  C   C5324     1.0  0.51823  0.30556  0.84150  1.0000
  C   C5325     1.0  0.51927  0.31677  0.83100  1.0000
  C   C5326     1.0  0.50808  0.32664  0.82873  1.0000
  C   C5327     1.0  0.49574  0.32538  0.83688  1.0000
  C   C5328     1.0  0.49459  0.31426  0.84727  1.0000
  C   C5329     1.0  0.50578  0.30434  0.84963  1.0000
  C   C5330     1.0  0.54244  0.31372  0.84691  1.0000
  C   C5331     1.0  0.55192  0.32111  0.84462  1.0000
  C   C5332     1.0  0.56466  0.31705  0.83735  1.0000
  C   C5333     1.0  0.56795  0.30554  0.83240  1.0000
  C   C5334     1.0  0.55849  0.29810  0.83467  1.0000
  C   C5335     1.0  0.53067  0.28255  0.86081  1.0000
  C   C5336     1.0  0.53665  0.28341  0.87049  1.0000
  C   C5337     1.0  0.53656  0.27377  0.88240  1.0000
  C   C5338     1.0  0.53035  0.26332  0.88481  1.0000
  C   C5339     1.0  0.52426  0.26247  0.87529  1.0000
  C   C5340     1.0  0.52436  0.27205  0.86337  1.0000
  C   C5341     1.0  0.53574  0.27696  0.81294  1.0000
  C   C5342     1.0  0.71363  0.43033  0.89852  1.0000
  C   C5343     1.0  0.60015  0.26395  0.90616  1.0000
  H   H4240     1.0  0.50896  0.33530  0.82070  1.0000
  H   H4241     1.0  0.57778  0.39288  0.93389  1.0000
  C   C5344     1.0  0.55027  0.37720  0.91311  1.0000
  H   H4242     1.0  0.50468  0.29586  0.85783  1.0000
  H   H4243     1.0  0.53261  0.31702  0.85259  1.0000
  H   H4244     1.0  0.54943  0.32995  0.84857  1.0000
  H   H4245     1.0  0.57206  0.32266  0.83585  1.0000
  C   C5345     1.0  0.59465  0.26408  0.95113  1.0000
  H   H4246     1.0  0.56135  0.28908  0.83101  1.0000
  H   H4247     1.0  0.54194  0.29111  0.86865  1.0000
  H   H4248     1.0  0.54173  0.27411  0.88954  1.0000
  H   H4249     1.0  0.53059  0.25565  0.89386  1.0000
  H   H4250     1.0  0.51992  0.25406  0.87694  1.0000
  H   H4251     1.0  0.52004  0.27095  0.85588  1.0000
  H   H4252     1.0  0.69102  0.38393  0.90991  1.0000
  C   C5346     1.0  0.62391  0.27923  0.88825  1.0000
  H   H4253     1.0  0.64365  0.41040  0.96144  1.0000
  H   H4254     1.0  0.48986  0.30351  0.93849  1.0000
  H   H4255     1.0  0.65932  0.44749  0.92564  1.0000
  H   H4256     1.0  0.63184  0.29113  0.86947  1.0000
  S   S715      1.0  0.56743  0.26854  0.86032  1.0000
  C   C5347     1.0  0.54161  0.39347  0.89516  1.0000
  H   H4257     1.0  0.65892  0.32559  0.93765  1.0000
  C   C5348     1.0  0.70701  0.41273  0.92296  1.0000
  C   C5349     1.0  0.53859  0.26337  0.93075  1.0000
  C   C5350     1.0  0.49180  0.38797  0.92404  1.0000
  H   H4258     1.0  0.55991  0.37896  0.89233  1.0000
  C   C5351     1.0  0.50093  0.39173  0.96903  1.0000
  H   H4259     1.0  0.49011  0.41820  0.93812  1.0000
  C   C5352     1.0  0.49575  0.39935  0.91544  1.0000
  H   H4260     1.0  0.69563  0.42812  0.89489  1.0000
  C   C5353     1.0  0.62943  0.24073  0.90370  1.0000
  C   C5354     1.0  0.67198  0.32564  0.96787  1.0000
  C   C5355     1.0  0.67326  0.41458  0.97741  1.0000
  C   C5356     1.0  0.55081  0.37897  0.94563  1.0000
  H   H4261     1.0  0.51344  0.34351  0.95283  1.0000
  P   P186      1.0  0.67784  0.46398  0.92281  1.0000
  H   H4262     1.0  0.49895  0.37928  0.86872  1.0000
  C   C5357     1.0  0.67585  0.45618  0.90056  1.0000
  C   C5358     1.0  0.54419  0.32950  0.94655  1.0000
  C   C5359     1.0  0.70208  0.42547  0.90174  1.0000
  C   C5360     1.0  0.48916  0.27639  0.91838  1.0000
  C   C5361     1.0  0.53066  0.39844  0.90441  1.0000
  S   S716      1.0  0.55150  0.23921  0.86486  1.0000
  H   H4263     1.0  0.66011  0.45119  0.96102  1.0000
  H   H4264     1.0  0.54727  0.25800  0.80901  1.0000
  C   C5362     1.0  0.58147  0.27698  0.89653  1.0000
  H   H4265     1.0  0.66507  0.35654  0.80095  1.0000
  C   C5363     1.0  0.60121  0.28506  0.94137  1.0000
  H   H4266     1.0  0.55915  0.25659  0.93201  1.0000
  C   C5364     1.0  0.66520  0.35693  0.85512  1.0000
  H   H4267     1.0  0.66369  0.41682  0.97501  1.0000
  C   C5365     1.0  0.68826  0.35292  0.85590  1.0000
  C   C5366     1.0  0.70878  0.44219  0.87073  1.0000
  C   C5367     1.0  0.67563  0.42089  0.94490  1.0000
  C   C5368     1.0  0.62455  0.24685  0.91462  1.0000
  C   C5369     1.0  0.63711  0.47774  0.88763  1.0000
  C   C5370     1.0  0.67184  0.36839  0.86793  1.0000
  P   P187      1.0  0.49120  0.37440  0.91761  1.0000
  H   H4268     1.0  0.54419  0.25783  0.95756  1.0000
  C   C5371     1.0  0.64267  0.28898  0.88434  1.0000
  C   C5372     1.0  0.52025  0.24230  0.95868  1.0000
  C   C5373     1.0  0.50010  0.31898  0.87661  1.0000
  C   C5374     1.0  0.66486  0.38060  0.96787  1.0000
  C   C5375     1.0  0.52826  0.26047  0.92732  1.0000
  H   H4269     1.0  0.62631  0.24548  0.89439  1.0000
  C   C5376     1.0  0.66472  0.33331  0.83599  1.0000
  C   C5377     1.0  0.66619  0.42864  0.93768  1.0000
  Fe  Fe358     1.0  0.56774  0.24662  0.86785  1.0000
  C   C5378     1.0  0.50996  0.29240  0.93703  1.0000
  H   H4270     1.0  0.50690  0.36552  0.93849  1.0000
  H   H4271     1.0  0.51876  0.26731  0.92774  1.0000
  H   H4272     1.0  0.58313  0.24399  0.90146  1.0000
  C   C5379     1.0  0.68497  0.36195  0.86412  1.0000
  H   H4273     1.0  0.65073  0.30026  0.97374  1.0000
  H   H4274     1.0  0.49783  0.32878  0.87034  1.0000
  H   H4275     1.0  0.70499  0.44810  0.91885  1.0000
  H   H4276     1.0  0.67809  0.44600  0.90590  1.0000
  C   C5380     1.0  0.66498  0.35005  0.81074  1.0000
  C   C5381     1.0  0.63218  0.32255  0.88219  1.0000
  C   C5382     1.0  0.54120  0.33778  0.93470  1.0000
  C   C5383     1.0  0.66667  0.44178  0.93135  1.0000
  C   C5384     1.0  0.70545  0.43107  0.86924  1.0000
  C   C5385     1.0  0.67557  0.32666  0.94426  1.0000
  H   H4277     1.0  0.67346  0.45052  0.88372  1.0000
  H   H4278     1.0  0.67541  0.41058  0.94949  1.0000
  C   C5386     1.0  0.68577  0.43964  0.93992  1.0000
  C   C5387     1.0  0.55005  0.37704  0.95935  1.0000
  C   C5388     1.0  0.52951  0.39282  0.91805  1.0000
  C   C5389     1.0  0.67682  0.44723  0.93191  1.0000
  C   C5390     1.0  0.65956  0.35532  0.82215  1.0000
  C   C5391     1.0  0.69559  0.45617  0.85483  1.0000
  C   C5392     1.0  0.63495  0.27581  0.90611  1.0000
  H   H4279     1.0  0.51250  0.29593  0.92633  1.0000
  H   H4280     1.0  0.67629  0.48039  0.94172  1.0000
  C   C5393     1.0  0.70527  0.45795  0.91922  1.0000
  C   C5394     1.0  0.49564  0.34692  0.92492  1.0000
  H   H4281     1.0  0.54253  0.39782  0.88459  1.0000
  C   C5395     1.0  0.69366  0.46784  0.92057  1.0000
  C   C5396     1.0  0.49985  0.33443  0.93270  1.0000
  C   C5397     1.0  0.70116  0.38486  0.90712  1.0000
  C   C5398     1.0  0.68530  0.42646  0.94621  1.0000
  C   C5399     1.0  0.53903  0.35154  0.93287  1.0000
  C   C5400     1.0  0.54462  0.26480  0.81560  1.0000
  H   H4282     1.0  0.69381  0.42390  0.86062  1.0000
  C   C5401     1.0  0.49327  0.29176  0.95756  1.0000
  H   H4283     1.0  0.65554  0.36588  0.82096  1.0000
  H   H4284     1.0  0.69256  0.42049  0.95194  1.0000
  H   H4285     1.0  0.52528  0.29500  0.81931  1.0000
  H   H4286     1.0  0.61758  0.31276  0.97017  1.0000
  C   C5402     1.0  0.72711  0.38459  0.97462  1.0000
  H   H4287     1.0  0.63539  0.33676  0.84920  1.0000
  C   C5403     1.0  0.63275  0.28686  0.87971  1.0000
  H   H4288     1.0  0.62464  0.32018  0.86659  1.0000
  H   H4289     1.0  0.61645  0.27756  0.88436  1.0000
  H   H4290     1.0  0.65138  0.34398  0.87858  1.0000
  C   C5404     1.0  0.55139  0.38284  0.89951  1.0000
  H   H4291     1.0  0.69256  0.36397  0.86760  1.0000
  H   H4292     1.0  0.52877  0.31793  0.82457  1.0000
  C   C5405     1.0  0.69239  0.46309  0.96003  1.0000
  H   H4293     1.0  0.61614  0.38296  0.95109  1.0000
  C   C5406     1.0  0.64377  0.28346  0.89755  1.0000
  C   C5407     1.0  0.58566  0.25301  0.90151  1.0000
  C   C5408     1.0  0.50863  0.34448  0.94489  1.0000
  H   H4294     1.0  0.69420  0.44207  0.96390  1.0000
  H   H4295     1.0  0.65150  0.28503  0.90113  1.0000
  C   C5409     1.0  0.61702  0.41796  0.97469  1.0000
  C   C5410     1.0  0.49785  0.35832  0.92707  1.0000
  C   C5411     1.0  0.50471  0.35698  0.93688  1.0000
  C   C5412     1.0  0.50621  0.33321  0.94278  1.0000
  C   C5413     1.0  0.50322  0.37871  0.96764  1.0000
  C   C5414     1.0  0.72351  0.48008  0.88622  1.0000
  H   H4296     1.0  0.50067  0.25675  0.86378  1.0000
  C   C5415     1.0  0.67842  0.35035  0.85146  1.0000
  C   C5416     1.0  0.72284  0.37915  0.91221  1.0000
  C   C5417     1.0  0.63977  0.32923  0.88548  1.0000
  C   C5418     1.0  0.51655  0.37862  0.87475  1.0000
  C   C5419     1.0  0.52223  0.37684  0.88550  1.0000
  C   C5420     1.0  0.51450  0.37538  0.89848  1.0000
  C   C5421     1.0  0.64582  0.33871  0.87570  1.0000
  H   H4297     1.0  0.54725  0.32860  0.96584  1.0000
  H   H4298     1.0  0.65494  0.38126  0.83913  1.0000
  H   H4299     1.0  0.72298  0.39916  0.88136  1.0000
  C   C5422     1.0  0.69041  0.47404  0.96550  1.0000
  C   C5423     1.0  0.50252  0.28311  0.96456  1.0000
  H   H4300     1.0  0.54375  0.35259  0.96272  1.0000
  C   C5424     1.0  0.64434  0.34154  0.86252  1.0000
  H   H4301     1.0  0.64071  0.32732  0.89569  1.0000
  C   C5425     1.0  0.59235  0.27631  0.90145  1.0000
  H   H4302     1.0  0.52264  0.37934  0.86473  1.0000
  H   H4303     1.0  0.53273  0.37616  0.88376  1.0000
  H   H4304     1.0  0.51906  0.37393  0.90673  1.0000
  C   C5426     1.0  0.61331  0.32341  0.93836  1.0000
  C   C5427     1.0  0.61455  0.31481  0.95064  1.0000
  C   C5428     1.0  0.61656  0.31945  0.96068  1.0000
  C   C5429     1.0  0.61677  0.33281  0.95870  1.0000
  C   C5430     1.0  0.61498  0.34165  0.94660  1.0000
  C   C5431     1.0  0.61386  0.33670  0.93622  1.0000
  P   P188      1.0  0.61584  0.35876  0.94403  1.0000
  C   C5432     1.0  0.60670  0.36623  0.95800  1.0000
  C   C5433     1.0  0.63310  0.35843  0.94107  1.0000
  C   C5434     1.0  0.63866  0.35830  0.95146  1.0000
  C   C5435     1.0  0.65209  0.35797  0.94908  1.0000
  C   C5436     1.0  0.66002  0.35788  0.93630  1.0000
  C   C5437     1.0  0.65461  0.35757  0.92601  1.0000
  C   C5438     1.0  0.64122  0.35764  0.92845  1.0000
  H   H4305     1.0  0.70935  0.42124  0.87458  1.0000
  C   C5439     1.0  0.69165  0.44512  0.85414  1.0000
  C   C5440     1.0  0.71112  0.47827  0.88658  1.0000
  C   C5441     1.0  0.59653  0.25229  0.90648  1.0000
  C   C5442     1.0  0.60890  0.36929  0.93017  1.0000
  C   C5443     1.0  0.59775  0.36702  0.92772  1.0000
  C   C5444     1.0  0.59269  0.37469  0.91663  1.0000
  C   C5445     1.0  0.59823  0.38525  0.90841  1.0000
  C   C5446     1.0  0.60883  0.38810  0.91128  1.0000
  C   C5447     1.0  0.61423  0.38011  0.92206  1.0000
  H   H4306     1.0  0.61174  0.31983  0.93054  1.0000
  H   H4307     1.0  0.61389  0.30456  0.95244  1.0000
  C   C5448     1.0  0.63895  0.45662  0.96717  1.0000
  H   H4308     1.0  0.56158  0.38695  0.92588  1.0000
  H   H4309     1.0  0.61331  0.34304  0.92648  1.0000
  H   H4310     1.0  0.63267  0.35849  0.96138  1.0000
  H   H4311     1.0  0.65632  0.35787  0.95714  1.0000
  H   H4312     1.0  0.67036  0.35802  0.93438  1.0000
  H   H4313     1.0  0.66069  0.35753  0.91607  1.0000
  H   H4314     1.0  0.63714  0.35733  0.92042  1.0000
  H   H4315     1.0  0.50777  0.40996  0.96215  1.0000
  C   C5449     1.0  0.54872  0.26598  0.95646  1.0000
  S   S717      1.0  0.57349  0.34783  0.96209  1.0000
  H   H4316     1.0  0.59313  0.35915  0.93429  1.0000
  H   H4317     1.0  0.58456  0.37238  0.91436  1.0000
  H   H4318     1.0  0.59448  0.39107  0.89968  1.0000
  H   H4319     1.0  0.61326  0.39617  0.90480  1.0000
  H   H4320     1.0  0.62267  0.38230  0.92388  1.0000
  C   C5450     1.0  0.57819  0.26533  0.89643  1.0000
  H   H4321     1.0  0.65480  0.39564  0.97905  1.0000
  H   H4322     1.0  0.49182  0.28559  0.91762  1.0000
  H   H4323     1.0  0.57002  0.26584  0.89219  1.0000
  C   C5451     1.0  0.71741  0.46074  0.91821  1.0000
  C   C5452     1.0  0.49703  0.29655  0.94383  1.0000
  H   H4324     1.0  0.57671  0.38859  0.95801  1.0000
  H   H4325     1.0  0.54095  0.33348  0.92677  1.0000
  H   H4326     1.0  0.67517  0.36864  0.95341  1.0000
  H   H4327     1.0  0.55105  0.26739  0.84391  1.0000
  C   C5453     1.0  0.68017  0.32699  0.95510  1.0000
  C   C5454     1.0  0.67520  0.46676  0.90621  1.0000
  H   H4328     1.0  0.69452  0.46427  0.94931  1.0000
  C   C5455     1.0  0.61823  0.38092  0.84370  1.0000
  C   C5456     1.0  0.54671  0.27019  0.83528  1.0000
  C   C5457     1.0  0.64333  0.47394  0.97985  1.0000
  C   C5458     1.0  0.65137  0.47513  0.93164  1.0000
  C   C5459     1.0  0.49546  0.23444  0.89100  1.0000
  H   H4329     1.0  0.50880  0.28358  0.89806  1.0000
  C   C5460     1.0  0.60942  0.47134  0.95176  1.0000
  H   H4330     1.0  0.69324  0.44372  0.94122  1.0000
  H   H4331     1.0  0.59988  0.25037  0.93828  1.0000
  C   C5461     1.0  0.64470  0.38102  0.84054  1.0000
  C   C5462     1.0  0.62245  0.39285  0.83880  1.0000
  C   C5463     1.0  0.51944  0.28389  0.94404  1.0000
  C   C5464     1.0  0.69673  0.43255  0.86120  1.0000
  H   H4332     1.0  0.69845  0.34789  0.85301  1.0000
  H   H4333     1.0  0.60729  0.47753  0.93143  1.0000
  C   C5465     1.0  0.51558  0.27928  0.95789  1.0000
  C   C5466     1.0  0.65022  0.40112  0.95983  1.0000
  C   C5467     1.0  0.53770  0.28237  0.83278  1.0000
  C   C5468     1.0  0.53935  0.38220  0.92252  1.0000
  H   H4334     1.0  0.49902  0.39999  0.90480  1.0000
  H   H4335     1.0  0.62350  0.36004  0.85134  1.0000
  H   H4336     1.0  0.49412  0.26767  0.93758  1.0000
  H   H4337     1.0  0.68188  0.32785  0.93435  1.0000
  H   H4338     1.0  0.66924  0.37529  0.87444  1.0000
  H   H4339     1.0  0.66476  0.32670  0.84569  1.0000
  C   C5469     1.0  0.53227  0.28572  0.82149  1.0000
  C   C5470     1.0  0.67350  0.45867  0.88781  1.0000
  C   C5471     1.0  0.49084  0.31102  0.88101  1.0000
  H   H4340     1.0  0.53663  0.35765  0.92362  1.0000
  C   C5472     1.0  0.55090  0.25441  0.92983  1.0000
  H   H4341     1.0  0.57586  0.28657  0.89244  1.0000
  H   H4342     1.0  0.67562  0.32626  0.97607  1.0000
  H   H4343     1.0  0.70008  0.46467  0.88630  1.0000
  C   C5473     1.0  0.55010  0.26142  0.82677  1.0000
  H   H4344     1.0  0.68472  0.44625  0.84809  1.0000
  C   C5474     1.0  0.48792  0.27435  0.85518  1.0000
  C   C5475     1.0  0.68192  0.40236  0.97635  1.0000
  H   H4345     1.0  0.58103  0.32000  0.96185  1.0000
  C   C5476     1.0  0.50320  0.37860  0.87699  1.0000
  C   C5477     1.0  0.48699  0.38775  0.93765  1.0000
  H   H4346     1.0  0.72245  0.38745  0.96620  1.0000
  H   H4347     1.0  0.67420  0.31753  0.82549  1.0000
  P   P189      1.0  0.71927  0.43998  0.88208  1.0000
  H   H4348     1.0  0.54138  0.23525  0.95606  1.0000
  H   H4349     1.0  0.49258  0.39543  0.97643  1.0000
  H   H4350     1.0  0.57795  0.30216  0.82714  1.0000
  H   H4351     1.0  0.61107  0.28809  0.92081  1.0000
  H   H4352     1.0  0.56730  0.27505  0.97182  1.0000
  H   H4353     1.0  0.64939  0.47013  0.92517  1.0000
  H   H4354     1.0  0.65185  0.37088  0.86665  1.0000
  H   H4355     1.0  0.61541  0.40207  0.83639  1.0000
  C   C5478     1.0  0.49206  0.27002  0.87728  1.0000
  H   H4356     1.0  0.67929  0.39512  0.97294  1.0000
  C   C5479     1.0  0.69218  0.45052  0.96833  1.0000
  C   C5480     1.0  0.72089  0.45558  0.88402  1.0000
  C   C5481     1.0  0.63676  0.33469  0.85928  1.0000
  C   C5482     1.0  0.60500  0.44088  0.97112  1.0000
  C   C5483     1.0  0.66652  0.48111  0.94061  1.0000
  H   H4357     1.0  0.60306  0.39380  0.96961  1.0000
  H   H4358     1.0  0.72754  0.47574  0.91720  1.0000
  H   H4359     1.0  0.52726  0.40121  0.94591  1.0000
  H   H4360     1.0  0.69186  0.46589  0.84913  1.0000
  H   H4361     1.0  0.70601  0.37193  0.92529  1.0000
  C   C5484     1.0  0.67013  0.32808  0.82456  1.0000
  H   H4362     1.0  0.62725  0.31542  0.88983  1.0000
  C   C5485     1.0  0.66199  0.36586  0.86350  1.0000
  H   H4363     1.0  0.68119  0.34329  0.84516  1.0000
  C   C5486     1.0  0.59515  0.27654  0.95231  1.0000
  C   C5487     1.0  0.50809  0.23864  0.96223  1.0000
  C   C5488     1.0  0.51498  0.30184  0.88866  1.0000
  C   C5489     1.0  0.51212  0.31445  0.88056  1.0000
  H   H4364     1.0  0.52428  0.29834  0.89169  1.0000
  C   C5490     1.0  0.49551  0.37681  0.88998  1.0000
  H   H4365     1.0  0.67439  0.33238  0.80308  1.0000
  H   H4366     1.0  0.69026  0.41247  0.91603  1.0000
  H   H4367     1.0  0.59476  0.28545  0.90139  1.0000
  H   H4368     1.0  0.49696  0.26354  0.88500  1.0000
  C   C5491     1.0  0.60688  0.26841  0.92817  1.0000
  H   H4369     1.0  0.73362  0.40281  0.96986  1.0000
  C   C5492     1.0  0.65402  0.46572  0.97315  1.0000
  H   H4370     1.0  0.52056  0.25262  0.95662  1.0000
  C   C5493     1.0  0.52045  0.39494  0.95173  1.0000
  C   C5494     1.0  0.50102  0.37557  0.90080  1.0000
  C   C5495     1.0  0.55266  0.24250  0.92603  1.0000
  C   C5496     1.0  0.49525  0.41019  0.92053  1.0000
  C   C5497     1.0  0.53010  0.24858  0.92344  1.0000
  C   C5498     1.0  0.56937  0.38612  0.95460  1.0000
  H   H4371     1.0  0.60790  0.38088  0.84522  1.0000
  H   H4372     1.0  0.71604  0.42895  0.97058  1.0000
  C   C5499     1.0  0.65442  0.32413  0.95885  1.0000
  H   H4373     1.0  0.51922  0.32069  0.87736  1.0000
  C   C5500     1.0  0.49060  0.40979  0.93417  1.0000
  H   H4374     1.0  0.65860  0.42443  0.93677  1.0000
  C   C5501     1.0  0.72755  0.38708  0.89995  1.0000
  C   C5502     1.0  0.54226  0.23954  0.92292  1.0000
  C   C5503     1.0  0.56027  0.28688  0.95435  1.0000
  C   C5504     1.0  0.55304  0.28773  0.94509  1.0000
  C   C5505     1.0  0.54709  0.27731  0.94614  1.0000
  C   C5506     1.0  0.53981  0.29128  0.92021  1.0000
  C   C5507     1.0  0.53546  0.30482  0.92041  1.0000
  C   C5508     1.0  0.53733  0.31441  0.90860  1.0000
  C   C5509     1.0  0.54347  0.31059  0.89650  1.0000
  C   C5510     1.0  0.54822  0.29717  0.89627  1.0000
  C   C5511     1.0  0.54643  0.28752  0.90808  1.0000
  C   C5512     1.0  0.49421  0.26616  0.86526  1.0000
  H   H4375     1.0  0.56478  0.29494  0.95353  1.0000
  H   H4376     1.0  0.55220  0.29653  0.93717  1.0000
  H   H4377     1.0  0.53054  0.30796  0.92968  1.0000
  H   H4378     1.0  0.53404  0.32481  0.90887  1.0000
  H   H4379     1.0  0.54477  0.31802  0.88730  1.0000
  H   H4380     1.0  0.55330  0.29426  0.88691  1.0000
  H   H4381     1.0  0.55017  0.27719  0.90767  1.0000
  H   H4382     1.0  0.63752  0.44992  0.96206  1.0000
  H   H4383     1.0  0.55797  0.36895  0.91632  1.0000
  H   H4384     1.0  0.63602  0.27140  0.91628  1.0000
  C   C5513     1.0  0.54476  0.33499  0.95669  1.0000
  C   C5514     1.0  0.63568  0.39290  0.83722  1.0000
  C   C5515     1.0  0.62717  0.36904  0.84721  1.0000
  C   C5516     1.0  0.67315  0.47973  0.89847  1.0000
  C   C5517     1.0  0.70425  0.45471  0.86295  1.0000
  H   H4385     1.0  0.60203  0.24263  0.91056  1.0000
  H   H4386     1.0  0.49026  0.34775  0.91750  1.0000
  H   H4387     1.0  0.59726  0.44840  0.96709  1.0000
  H   H4388     1.0  0.70734  0.46339  0.86304  1.0000
  H   H4389     1.0  0.58974  0.25754  0.95953  1.0000
  C   C5518     1.0  0.60327  0.47151  0.96514  1.0000
  H   H4390     1.0  0.56207  0.23551  0.92556  1.0000
  H   H4391     1.0  0.59069  0.27971  0.96163  1.0000
  C   C5519     1.0  0.52294  0.38177  0.95042  1.0000
  C   C5520     1.0  0.55601  0.26518  0.96565  1.0000
  C   C5521     1.0  0.70977  0.46598  0.88577  1.0000
  H   H4392     1.0  0.49953  0.27933  0.97517  1.0000
  C   C5522     1.0  0.54281  0.34872  0.95483  1.0000
  H   H4393     1.0  0.54638  0.31883  0.94772  1.0000
  H   H4394     1.0  0.50382  0.24095  0.83684  1.0000
  C   C5523     1.0  0.60875  0.37834  0.95865  1.0000
  H   H4395     1.0  0.73571  0.41299  0.88962  1.0000
  C   C5524     1.0  0.63388  0.47385  0.90154  1.0000
  C   C5525     1.0  0.71938  0.42791  0.97953  1.0000
  C   C5526     1.0  0.65917  0.32377  0.96990  1.0000
  H   H4396     1.0  0.69002  0.32850  0.95358  1.0000
  C   C5527     1.0  0.60697  0.42785  0.96976  1.0000
  H   H4397     1.0  0.49833  0.41894  0.91387  1.0000
  C   C5528     1.0  0.71811  0.47352  0.91818  1.0000
  C   C5529     1.0  0.65638  0.39266  0.96987  1.0000
  C   C5530     1.0  0.65183  0.45727  0.96657  1.0000
  H   H4398     1.0  0.61938  0.46564  0.94912  1.0000
  H   H4399     1.0  0.59520  0.35128  0.96751  1.0000
  C   C5531     1.0  0.51417  0.37372  0.95840  1.0000
  H   H4400     1.0  0.52351  0.32120  0.96569  1.0000
  C   C5532     1.0  0.73450  0.46954  0.88530  1.0000
  C   C5533     1.0  0.60043  0.26004  0.93908  1.0000
  H   H4401     1.0  0.61818  0.33627  0.96665  1.0000
  C   C5534     1.0  0.50599  0.29363  0.89257  1.0000
  C   C5535     1.0  0.59698  0.36056  0.96780  1.0000
  P   P190      1.0  0.53832  0.37492  0.94010  1.0000
  H   H4402     1.0  0.70006  0.38934  0.98013  1.0000
  H   H4403     1.0  0.73025  0.43061  0.90590  1.0000
  H   H4404     1.0  0.50131  0.31638  0.97442  1.0000
  C   C5536     1.0  0.58935  0.36690  0.97808  1.0000
  H   H4405     1.0  0.52097  0.39676  0.92505  1.0000
  C   C5537     1.0  0.56078  0.38494  0.93649  1.0000
  C   C5538     1.0  0.62814  0.46414  0.97470  1.0000
  H   H4406     1.0  0.52780  0.24059  0.83119  1.0000
  S   S718      1.0  0.49330  0.25057  0.96396  1.0000
  S   S719      1.0  0.56503  0.23692  0.88960  1.0000
  H   H4407     1.0  0.54234  0.37276  0.96668  1.0000
  C   C5539     1.0  0.49363  0.29837  0.88918  1.0000
  C   C5540     1.0  0.56169  0.27566  0.96467  1.0000
  C   C5541     1.0  0.71917  0.39350  0.89107  1.0000
  P   P191      1.0  0.61174  0.46112  0.97800  1.0000
  H   H4408     1.0  0.49670  0.37231  0.97400  1.0000
  C   C5542     1.0  0.57001  0.38847  0.94098  1.0000
  H   H4409     1.0  0.62559  0.24521  0.93499  1.0000
  H   H4410     1.0  0.51593  0.36347  0.95790  1.0000
  H   H4411     1.0  0.49778  0.32575  0.93116  1.0000
  C   C5543     1.0  0.59007  0.47837  0.96826  1.0000
  C   C5544     1.0  0.53291  0.30369  0.97813  1.0000
  C   C5545     1.0  0.70964  0.37810  0.91581  1.0000
  H   H4412     1.0  0.72431  0.41514  0.92732  1.0000
  H   H4413     1.0  0.52250  0.27259  0.96363  1.0000
  H   H4414     1.0  0.55897  0.37845  0.97437  1.0000
  C   C5546     1.0  0.52218  0.31235  0.97325  1.0000
  C   C5547     1.0  0.60255  0.47804  0.94168  1.0000
  C   C5548     1.0  0.55935  0.38048  0.96379  1.0000
  S   S720      1.0  0.73356  0.36956  0.92263  1.0000
  H   H4415     1.0  0.66397  0.46621  0.97273  1.0000
  H   H4416     1.0  0.55719  0.25644  0.97360  1.0000
  S   S721      1.0  0.48763  0.23460  0.86852  1.0000
  C   C5549     1.0  0.49032  0.26634  0.92980  1.0000
  C   C5550     1.0  0.73337  0.39329  0.97671  1.0000
  C   C5551     1.0  0.73524  0.43128  0.87441  1.0000
  C   C5552     1.0  0.50960  0.30968  0.97826  1.0000
  H   H4417     1.0  0.61882  0.40793  0.97335  1.0000
  H   H4418     1.0  0.54271  0.30566  0.97420  1.0000
  H   H4419     1.0  0.48703  0.33304  0.83519  1.0000
  H   H4420     1.0  0.50240  0.23507  0.90783  1.0000
  H   H4421     1.0  0.63685  0.28415  0.97828  1.0000
  H   H4422     1.0  0.48931  0.27116  0.84604  1.0000
  C   C5553     1.0  0.61320  0.44413  0.97729  1.0000
  C   C5554     1.0  0.73285  0.42619  0.97864  1.0000
  H   H4423     1.0  0.58478  0.47810  0.97847  1.0000
  C   C5555     1.0  0.68843  0.47237  0.97929  1.0000
  C   C5556     1.0  0.59157  0.37885  0.97881  1.0000
  C   C5557     1.0  0.69387  0.39915  0.98024  1.0000
  C   C5558     1.0  0.64078  0.48278  0.93910  1.0000
  C   C5559     1.0  0.63044  0.47321  0.98058  1.0000
  C   C5560     1.0  0.67097  0.48219  0.88565  1.0000
  C   C5561     1.0  0.48637  0.39861  0.94270  1.0000
  H   H4424     1.0  0.48639  0.24734  0.94069  1.0000
  H   H4425     1.0  0.49193  0.56696  0.05301  1.0000
  H   H4426     1.0  0.56693  0.52657  0.99681  1.0000
  H   H4427     1.0  0.68287  0.54525  0.02495  1.0000
  C   C5562     1.0  0.61374  0.60100  0.02567  1.0000
  H   H4428     1.0  0.53762  0.68550  0.00146  1.0000
  H   H4429     1.0  0.65909  0.54729  0.03332  1.0000
  C   C5563     1.0  0.60799  0.59009  0.03196  1.0000
  Fe  Fe359     1.0  0.55442  0.59508  0.02828  1.0000
  S   S722      1.0  0.55573  0.61161  0.01006  1.0000
  S   S723      1.0  0.57122  0.58702  0.03892  1.0000
  S   S724      1.0  0.59300  0.52490  0.05146  1.0000
  C   C5564     1.0  0.49580  0.54688  0.03028  1.0000
  Fe  Fe360     1.0  0.54628  0.60011  0.00234  1.0000
  C   C5565     1.0  0.50234  0.55116  0.01714  1.0000
  S   S725      1.0  0.52695  0.64200  0.01964  1.0000
  S   S726      1.0  0.71361  0.53514  0.02527  1.0000
  H   H4430     1.0  0.69506  0.49352  0.01644  1.0000
  C   C5566     1.0  0.70838  0.49353  0.99733  1.0000
  C   C5567     1.0  0.68251  0.48837  0.05696  1.0000
  Fe  Fe361     1.0  0.70460  0.51808  0.03790  1.0000
  S   S727      1.0  0.68256  0.52086  0.04622  1.0000
  C   C5568     1.0  0.52839  0.58644  0.12417  1.0000
  P   P192      1.0  0.52371  0.55846  0.99739  1.0000
  H   H4431     1.0  0.64157  0.53280  0.98701  1.0000
  C   C5569     1.0  0.48950  0.67923  0.98472  1.0000
  C   C5570     1.0  0.52091  0.64739  0.98887  1.0000
  H   H4432     1.0  0.52439  0.66894  0.00533  1.0000
  C   C5571     1.0  0.50684  0.58337  0.99888  1.0000
  Fe  Fe362     1.0  0.54621  0.70566  0.00863  1.0000
  C   C5572     1.0  0.61423  0.55619  0.99587  1.0000
  S   S728      1.0  0.55916  0.68498  0.01301  1.0000
  Fe  Fe363     1.0  0.52672  0.71984  0.99151  1.0000
  H   H4433     1.0  0.49438  0.63381  0.99711  1.0000
  C   C5573     1.0  0.55359  0.55582  0.06423  1.0000
  H   H4434     1.0  0.58230  0.58162  0.98758  1.0000
  S   S729      1.0  0.54305  0.72310  0.01790  1.0000
  C   C5574     1.0  0.49953  0.58741  0.09217  1.0000
  H   H4435     1.0  0.61938  0.54303  0.98238  1.0000
  H   H4436     1.0  0.67705  0.56485  0.98557  1.0000
  H   H4437     1.0  0.50149  0.66031  0.03211  1.0000
  C   C5575     1.0  0.71640  0.48589  0.98822  1.0000
  C   C5576     1.0  0.63519  0.54069  0.99180  1.0000
  C   C5577     1.0  0.50848  0.59186  0.08050  1.0000
  C   C5578     1.0  0.62593  0.53218  0.06157  1.0000
  H   H4438     1.0  0.69208  0.55356  0.00107  1.0000
  C   C5579     1.0  0.56156  0.53672  0.99695  1.0000
  Fe  Fe364     1.0  0.63078  0.50647  0.01773  1.0000
  H   H4439     1.0  0.56616  0.55625  0.07639  1.0000
  C   C5580     1.0  0.48683  0.67994  0.07737  1.0000
  C   C5581     1.0  0.54834  0.57153  0.07833  1.0000
  C   C5582     1.0  0.48902  0.63940  0.00471  1.0000
  C   C5583     1.0  0.53766  0.65296  0.01542  1.0000
  C   C5584     1.0  0.54964  0.64927  0.01952  1.0000
  C   C5585     1.0  0.55672  0.65899  0.01805  1.0000
  C   C5586     1.0  0.55193  0.67234  0.01231  1.0000
  C   C5587     1.0  0.54074  0.67559  0.00698  1.0000
  H   H4440     1.0  0.61017  0.56911  0.03489  1.0000
  H   H4441     1.0  0.55307  0.63911  0.02442  1.0000
  H   H4442     1.0  0.56553  0.65629  0.02195  1.0000
  C   C5588     1.0  0.52405  0.63016  0.06136  1.0000
  H   H4443     1.0  0.65292  0.56758  0.99386  1.0000
  P   P193      1.0  0.49558  0.66162  0.98586  1.0000
  C   C5589     1.0  0.51847  0.57624  0.99196  1.0000
  C   C5590     1.0  0.53720  0.63009  0.05491  1.0000
  C   C5591     1.0  0.58863  0.54227  0.04623  1.0000
  C   C5592     1.0  0.58213  0.54830  0.03571  1.0000
  C   C5593     1.0  0.57681  0.56208  0.03323  1.0000
  C   C5594     1.0  0.57831  0.56988  0.04102  1.0000
  C   C5595     1.0  0.58544  0.56389  0.05101  1.0000
  C   C5596     1.0  0.59037  0.55014  0.05376  1.0000
  P   P194      1.0  0.63645  0.55902  0.01999  1.0000
  H   H4444     1.0  0.57138  0.56655  0.02545  1.0000
  H   H4445     1.0  0.58670  0.56983  0.05703  1.0000
  H   H4446     1.0  0.59533  0.54553  0.06192  1.0000
  C   C5597     1.0  0.53343  0.66607  0.00888  1.0000
  H   H4447     1.0  0.64884  0.53953  0.00340  1.0000
  C   C5598     1.0  0.63400  0.55142  0.04747  1.0000
  C   C5599     1.0  0.67388  0.51789  0.03595  1.0000
  C   C5600     1.0  0.66119  0.51536  0.04132  1.0000
  C   C5601     1.0  0.63257  0.54825  0.03616  1.0000
  Fe  Fe365     1.0  0.60396  0.51317  0.03575  1.0000
  H   H4448     1.0  0.65670  0.51535  0.05170  1.0000
  H   H4449     1.0  0.64475  0.51031  0.03764  1.0000
  H   H4450     1.0  0.51662  0.63925  0.05995  1.0000
  C   C5602     1.0  0.68147  0.55506  0.00476  1.0000
  C   C5603     1.0  0.67629  0.55036  0.01823  1.0000
  S   S730      1.0  0.53430  0.60484  0.03825  1.0000
  C   C5604     1.0  0.51338  0.65832  0.98160  1.0000
  H   H4451     1.0  0.62292  0.51600  0.98690  1.0000
  H   H4452     1.0  0.67300  0.48472  0.04382  1.0000
  S   S731      1.0  0.52463  0.70669  0.01196  1.0000
  C   C5605     1.0  0.62758  0.57557  0.02183  1.0000
  C   C5606     1.0  0.49708  0.65465  0.04161  1.0000
  Fe  Fe366     1.0  0.60583  0.50793  0.00897  1.0000
  H   H4453     1.0  0.54272  0.57293  0.99817  1.0000
  C   C5607     1.0  0.67252  0.51559  0.01443  1.0000
  S   S732      1.0  0.52541  0.61030  0.00988  1.0000
  C   C5608     1.0  0.67948  0.51804  0.02245  1.0000
  C   C5609     1.0  0.51484  0.53064  0.98377  1.0000
  C   C5610     1.0  0.52045  0.61845  0.06936  1.0000
  C   C5611     1.0  0.51455  0.54722  0.03816  1.0000
  C   C5612     1.0  0.65435  0.51260  0.03335  1.0000
  C   C5613     1.0  0.51989  0.55012  0.98686  1.0000
  C   C5614     1.0  0.70123  0.48749  0.00948  1.0000
  H   H4454     1.0  0.64313  0.58541  0.00929  1.0000
  C   C5615     1.0  0.60291  0.60192  0.99484  1.0000
  Fe  Fe367     1.0  0.72368  0.52133  0.01153  1.0000
  C   C5616     1.0  0.52747  0.57695  0.10652  1.0000
  C   C5617     1.0  0.65406  0.55794  0.01430  1.0000
  S   S733      1.0  0.65151  0.50986  0.00941  1.0000
  C   C5618     1.0  0.55686  0.56071  0.07338  1.0000
  H   H4455     1.0  0.56625  0.56610  0.99870  1.0000
  C   C5619     1.0  0.58838  0.58703  0.98946  1.0000
  Fe  Fe368     1.0  0.53499  0.62038  0.01931  1.0000
  C   C5620     1.0  0.49062  0.59441  0.02787  1.0000
  C   C5621     1.0  0.49572  0.58403  0.03758  1.0000
  C   C5622     1.0  0.67299  0.56137  0.99605  1.0000
  H   H4456     1.0  0.54042  0.63714  0.99171  1.0000
  H   H4457     1.0  0.67372  0.49485  0.06135  1.0000
  C   C5623     1.0  0.49157  0.59648  0.06791  1.0000
  H   H4458     1.0  0.62335  0.52593  0.07135  1.0000
  C   C5624     1.0  0.52736  0.59897  0.11559  1.0000
  C   C5625     1.0  0.63076  0.54337  0.06011  1.0000
  S   S734      1.0  0.61282  0.52272  0.01496  1.0000
  H   H4459     1.0  0.67690  0.51587  0.00398  1.0000
  C   C5626     1.0  0.61484  0.57744  0.03001  1.0000
  C   C5627     1.0  0.66267  0.55164  0.02298  1.0000
  S   S735      1.0  0.62242  0.49784  0.03904  1.0000
  H   H4460     1.0  0.55123  0.57538  0.08514  1.0000
  S   S736      1.0  0.71391  0.50466  0.02360  1.0000
  H   H4461     1.0  0.49803  0.70010  0.02891  1.0000
  C   C5628     1.0  0.61833  0.56016  0.00515  1.0000
  C   C5629     1.0  0.54816  0.54055  0.99662  1.0000
  C   C5630     1.0  0.65934  0.56287  0.00079  1.0000
  H   H4462     1.0  0.51020  0.61871  0.07425  1.0000
  C   C5631     1.0  0.62268  0.54650  0.98918  1.0000
  S   S737      1.0  0.54834  0.71847  0.98796  1.0000
  H   H4463     1.0  0.57804  0.58567  0.00996  1.0000
  H   H4464     1.0  0.63767  0.56012  0.04648  1.0000
  H   H4465     1.0  0.52746  0.56834  0.10315  1.0000
  S   S738      1.0  0.72225  0.52955  0.99026  1.0000
  P   P195      1.0  0.52526  0.59134  0.08090  1.0000
  H   H4466     1.0  0.52922  0.56572  0.12629  1.0000
  H   H4467     1.0  0.55085  0.59758  0.06545  1.0000
  H   H4468     1.0  0.70783  0.50414  0.99504  1.0000
  Fe  Fe369     1.0  0.52156  0.72503  0.01924  1.0000
  C   C5632     1.0  0.52843  0.57544  0.11964  1.0000
  P   P196      1.0  0.49159  0.67762  0.05111  1.0000
  C   C5633     1.0  0.65996  0.51281  0.01986  1.0000
  S   S739      1.0  0.51146  0.58193  0.04053  1.0000
  H   H4469     1.0  0.49061  0.62396  0.05519  1.0000
  C   C5634     1.0  0.56124  0.55894  0.99807  1.0000
  H   H4470     1.0  0.60832  0.60791  0.99690  1.0000
  C   C5635     1.0  0.62438  0.52903  0.05039  1.0000
  C   C5636     1.0  0.51801  0.53707  0.99177  1.0000
  C   C5637     1.0  0.49185  0.72850  0.04154  1.0000
  H   H4471     1.0  0.62058  0.52038  0.05156  1.0000
  C   C5638     1.0  0.54682  0.61835  0.05661  1.0000
  H   H4472     1.0  0.55699  0.61823  0.05140  1.0000
  H   H4473     1.0  0.50102  0.63713  0.03391  1.0000
  H   H4474     1.0  0.63201  0.54579  0.06877  1.0000
  C   C5639     1.0  0.50803  0.68008  0.04861  1.0000
  C   C5640     1.0  0.50964  0.69201  0.05024  1.0000
  C   C5641     1.0  0.52226  0.69419  0.04825  1.0000
  C   C5642     1.0  0.53336  0.68443  0.04477  1.0000
  C   C5643     1.0  0.53185  0.67243  0.04346  1.0000
  C   C5644     1.0  0.51927  0.67029  0.04518  1.0000
  H   H4475     1.0  0.50236  0.58376  0.10167  1.0000
  H   H4476     1.0  0.52562  0.61031  0.09599  1.0000
  H   H4477     1.0  0.51907  0.54621  0.04633  1.0000
  C   C5645     1.0  0.53467  0.64538  0.98580  1.0000
  H   H4478     1.0  0.51623  0.64061  0.99715  1.0000
  C   C5646     1.0  0.50233  0.59692  0.99387  1.0000
  C   C5647     1.0  0.52112  0.55153  0.02504  1.0000
  C   C5648     1.0  0.63927  0.54453  0.00116  1.0000
  S   S740      1.0  0.72073  0.51000  0.04945  1.0000
  C   C5649     1.0  0.51516  0.55327  0.01441  1.0000
  H   H4479     1.0  0.68907  0.52036  0.01806  1.0000
  Fe  Fe370     1.0  0.73086  0.52566  0.03507  1.0000
  H   H4480     1.0  0.56033  0.54759  0.06022  1.0000
  C   C5650     1.0  0.54123  0.55369  0.99686  1.0000
  H   H4481     1.0  0.50120  0.57857  0.00811  1.0000
  H   H4482     1.0  0.60436  0.56035  0.99413  1.0000
  H   H4483     1.0  0.52342  0.70357  0.04911  1.0000
  H   H4484     1.0  0.54316  0.68625  0.04281  1.0000
  H   H4485     1.0  0.54048  0.66491  0.04076  1.0000
  H   H4486     1.0  0.51850  0.66108  0.04360  1.0000
  H   H4487     1.0  0.52413  0.57679  0.06166  1.0000
  C   C5651     1.0  0.49681  0.64149  0.04258  1.0000
  H   H4488     1.0  0.53072  0.55369  0.02330  1.0000
  H   H4489     1.0  0.54323  0.53318  0.99643  1.0000
  H   H4490     1.0  0.57844  0.54285  0.99812  1.0000
  H   H4491     1.0  0.49636  0.60170  0.02210  1.0000
  H   H4492     1.0  0.52915  0.58526  0.13434  1.0000
  C   C5652     1.0  0.53632  0.57741  0.07434  1.0000
  C   C5653     1.0  0.62769  0.53699  0.03771  1.0000
  H   H4493     1.0  0.72299  0.58732  0.03997  1.0000
  C   C5654     1.0  0.54326  0.60661  0.06459  1.0000
  C   C5655     1.0  0.54179  0.56176  0.06001  1.0000
  C   C5656     1.0  0.52641  0.60052  0.10246  1.0000
  H   H4494     1.0  0.58063  0.54224  0.02996  1.0000
  Fe  Fe371     1.0  0.52643  0.59403  0.02819  1.0000
  H   H4495     1.0  0.61153  0.56750  0.01038  1.0000
  C   C5657     1.0  0.50198  0.54474  0.04077  1.0000
  S   S741      1.0  0.55514  0.59508  0.98235  1.0000
  C   C5658     1.0  0.73069  0.58420  0.03178  1.0000
  H   H4496     1.0  0.50114  0.69979  0.05273  1.0000
  Fe  Fe372     1.0  0.73076  0.49801  0.03381  1.0000
  H   H4497     1.0  0.49791  0.70543  0.98960  1.0000
  C   C5659     1.0  0.54788  0.56283  0.99764  1.0000
  H   H4498     1.0  0.53990  0.63910  0.04843  1.0000
  C   C5660     1.0  0.73164  0.57220  0.02856  1.0000
  C   C5661     1.0  0.53316  0.57244  0.06510  1.0000
  H   H4499     1.0  0.51890  0.53187  0.00184  1.0000
  H   H4500     1.0  0.48957  0.72522  0.06275  1.0000
  C   C5662     1.0  0.59304  0.59684  0.00490  1.0000
  H   H4501     1.0  0.59838  0.48517  0.98844  1.0000
  C   C5663     1.0  0.50917  0.60336  0.98185  1.0000
  C   C5664     1.0  0.50431  0.59655  0.06840  1.0000
  H   H4502     1.0  0.48686  0.57131  0.98985  1.0000
  H   H4503     1.0  0.51102  0.59991  0.05923  1.0000
  S   S742      1.0  0.59540  0.49963  0.02966  1.0000
  H   H4504     1.0  0.52733  0.60750  0.11911  1.0000
  C   C5665     1.0  0.52651  0.58950  0.09782  1.0000
  H   H4505     1.0  0.57863  0.72792  0.00025  1.0000
  C   C5666     1.0  0.62638  0.59925  0.01745  1.0000
  H   H4506     1.0  0.60837  0.61081  0.02715  1.0000
  H   H4507     1.0  0.50581  0.68148  0.99135  1.0000
  C   C5667     1.0  0.58586  0.58935  0.00221  1.0000
  H   H4508     1.0  0.51325  0.52064  0.98771  1.0000
  C   C5668     1.0  0.63094  0.55437  0.00783  1.0000
  C   C5669     1.0  0.49222  0.69997  0.98717  1.0000
  C   C5670     1.0  0.69432  0.48658  0.06073  1.0000
  C   C5671     1.0  0.49669  0.68636  0.98806  1.0000
  H   H4509     1.0  0.59813  0.59141  0.03825  1.0000
  H   H4510     1.0  0.59068  0.59894  0.01473  1.0000
  S   S743      1.0  0.54656  0.58289  0.01987  1.0000
  H   H4511     1.0  0.62645  0.53427  0.02922  1.0000
  H   H4512     1.0  0.53936  0.55819  0.05267  1.0000
  C   C5672     1.0  0.52998  0.60651  0.07076  1.0000
  H   H4513     1.0  0.53600  0.61994  0.98166  1.0000
  H   H4514     1.0  0.49339  0.60242  0.99917  1.0000
  H   H4515     1.0  0.63085  0.60771  0.01262  1.0000
  S   S744      1.0  0.59670  0.51220  0.99130  1.0000
  C   C5673     1.0  0.63331  0.58657  0.01555  1.0000
  H   H4516     1.0  0.49732  0.55299  0.00917  1.0000
  C   C5674     1.0  0.56808  0.54589  0.99773  1.0000
  S   S745      1.0  0.62456  0.49256  0.00971  1.0000
  C   C5675     1.0  0.48951  0.69741  0.02794  1.0000
  C   C5676     1.0  0.60550  0.59958  0.98204  1.0000
  H   H4517     1.0  0.58780  0.48870  0.01105  1.0000
  H   H4518     1.0  0.69464  0.49164  0.06804  1.0000
  H   H4519     1.0  0.49679  0.54169  0.05097  1.0000
  H   H4520     1.0  0.72478  0.56592  0.03432  1.0000
  S   S746      1.0  0.50839  0.72919  0.03851  1.0000
  C   C5677     1.0  0.49098  0.63406  0.05460  1.0000
  H   H4521     1.0  0.49660  0.67369  0.07744  1.0000
  C   C5678     1.0  0.49175  0.66039  0.05278  1.0000
  C   C5679     1.0  0.48888  0.65294  0.00241  1.0000
  Fe  Fe373     1.0  0.61471  0.48509  0.03091  1.0000
  H   H4522     1.0  0.49109  0.73173  0.02096  1.0000
  H   H4523     1.0  0.48862  0.59964  0.05842  1.0000
  C   C5680     1.0  0.48822  0.57474  0.04521  1.0000
  H   H4524     1.0  0.48697  0.71334  0.01085  1.0000
  C   C5681     1.0  0.48671  0.58752  0.09167  1.0000
  Fe  Fe374     1.0  0.63543  0.50463  0.90565  1.0000
  C   C5682     1.0  0.52324  0.57601  0.92649  1.0000
  Fe  Fe375     1.0  0.63000  0.53403  0.89286  1.0000
  S   S747      1.0  0.64595  0.53787  0.89999  1.0000
  S   S748      1.0  0.61643  0.54919  0.88049  1.0000
  Fe  Fe376     1.0  0.65805  0.51890  0.89403  1.0000
  S   S749      1.0  0.67981  0.51460  0.88464  1.0000
  Fe  Fe377     1.0  0.63842  0.52465  0.91932  1.0000
  H   H4525     1.0  0.52476  0.63449  0.96385  1.0000
  S   S750      1.0  0.64274  0.51604  0.88518  1.0000
  S   S751      1.0  0.62153  0.52230  0.91278  1.0000
  Fe  Fe378     1.0  0.56160  0.60965  0.90242  1.0000
  S   S752      1.0  0.55627  0.62967  0.90736  1.0000
  S   S753      1.0  0.58153  0.59755  0.90625  1.0000
  Fe  Fe379     1.0  0.53471  0.61331  0.89647  1.0000
  S   S754      1.0  0.52732  0.63366  0.90057  1.0000
  S   S755      1.0  0.52312  0.60166  0.89134  1.0000
  Fe  Fe380     1.0  0.54745  0.63702  0.88938  1.0000
  S   S756      1.0  0.54893  0.65686  0.87519  1.0000
  Fe  Fe381     1.0  0.53670  0.62512  0.91811  1.0000
  S   S757      1.0  0.52672  0.63192  0.93719  1.0000
  S   S758      1.0  0.55422  0.61724  0.88344  1.0000
  S   S759      1.0  0.54262  0.60430  0.91505  1.0000
  Fe  Fe382     1.0  0.55630  0.72040  0.88989  1.0000
  H   H4526     1.0  0.55161  0.65285  0.97339  1.0000
  S   S760      1.0  0.56392  0.69853  0.89712  1.0000
  C   C5683     1.0  0.49780  0.61805  0.89350  1.0000
  H   H4527     1.0  0.50792  0.65348  0.96015  1.0000
  C   C5684     1.0  0.70672  0.48362  0.91868  1.0000
  C   C5685     1.0  0.54588  0.61195  0.94661  1.0000
  H   H4528     1.0  0.63082  0.48374  0.93826  1.0000
  S   S761      1.0  0.71508  0.52400  0.91798  1.0000
  C   C5686     1.0  0.52396  0.69684  0.92718  1.0000
  H   H4529     1.0  0.54510  0.69301  0.92406  1.0000
  C   C5687     1.0  0.59654  0.51008  0.91247  1.0000
  C   C5688     1.0  0.66524  0.60870  0.87916  1.0000
  C   C5689     1.0  0.50055  0.69119  0.85571  1.0000
  C   C5690     1.0  0.51062  0.63689  0.86126  1.0000
  C   C5691     1.0  0.64515  0.57518  0.90273  1.0000
  C   C5692     1.0  0.53583  0.62291  0.94922  1.0000
  C   C5693     1.0  0.65769  0.56676  0.90027  1.0000
  C   C5694     1.0  0.49548  0.70815  0.91246  1.0000
  C   C5695     1.0  0.52201  0.68583  0.89072  1.0000
  H   H4530     1.0  0.51491  0.55504  0.95555  1.0000
  H   H4531     1.0  0.61342  0.52086  0.94285  1.0000
  C   C5696     1.0  0.55359  0.66843  0.88092  1.0000
  C   C5697     1.0  0.55239  0.68169  0.87382  1.0000
  C   C5698     1.0  0.55537  0.69114  0.87873  1.0000
  C   C5699     1.0  0.55988  0.68725  0.89058  1.0000
  C   C5700     1.0  0.56141  0.67398  0.89743  1.0000
  C   C5701     1.0  0.55821  0.66466  0.89268  1.0000
  H   H4532     1.0  0.54888  0.68472  0.86469  1.0000
  H   H4533     1.0  0.55426  0.70137  0.87331  1.0000
  H   H4534     1.0  0.56503  0.67088  0.90651  1.0000
  H   H4535     1.0  0.55944  0.65456  0.89810  1.0000
  C   C5702     1.0  0.66848  0.59127  0.86282  1.0000
  H   H4536     1.0  0.52745  0.69366  0.88701  1.0000
  C   C5703     1.0  0.59022  0.60359  0.95359  1.0000
  H   H4537     1.0  0.49565  0.73079  0.91855  1.0000
  H   H4538     1.0  0.54870  0.60965  0.93688  1.0000
  C   C5704     1.0  0.60723  0.56321  0.88694  1.0000
  C   C5705     1.0  0.61097  0.56673  0.89673  1.0000
  C   C5706     1.0  0.60336  0.57779  0.90194  1.0000
  C   C5707     1.0  0.59172  0.58511  0.89780  1.0000
  C   C5708     1.0  0.58825  0.58194  0.88762  1.0000
  C   C5709     1.0  0.59602  0.57101  0.88219  1.0000
  H   H4539     1.0  0.61972  0.56093  0.90027  1.0000
  H   H4540     1.0  0.60634  0.58053  0.90943  1.0000
  H   H4541     1.0  0.57949  0.58775  0.88412  1.0000
  H   H4542     1.0  0.59320  0.56845  0.87446  1.0000
  C   C5710     1.0  0.68961  0.51710  0.89396  1.0000
  C   C5711     1.0  0.68380  0.52189  0.90561  1.0000
  C   C5712     1.0  0.69172  0.52402  0.91285  1.0000
  C   C5713     1.0  0.70550  0.52111  0.90866  1.0000
  C   C5714     1.0  0.71133  0.51616  0.89710  1.0000
  C   C5715     1.0  0.70338  0.51430  0.88968  1.0000
  H   H4543     1.0  0.67318  0.52402  0.90901  1.0000
  H   H4544     1.0  0.68716  0.52783  0.92179  1.0000
  H   H4545     1.0  0.72194  0.51400  0.89374  1.0000
  H   H4546     1.0  0.70790  0.51074  0.88060  1.0000
  H   H4547     1.0  0.66509  0.53345  0.86447  1.0000
  C   C5716     1.0  0.50833  0.66544  0.90019  1.0000
  H   H4548     1.0  0.58543  0.51624  0.93054  1.0000
  H   H4549     1.0  0.52798  0.65876  0.93988  1.0000
  H   H4550     1.0  0.50571  0.70510  0.83730  1.0000
  C   C5717     1.0  0.51426  0.67758  0.93601  1.0000
  C   C5718     1.0  0.50133  0.65978  0.87181  1.0000
  H   H4551     1.0  0.53151  0.67668  0.90714  1.0000
  C   C5719     1.0  0.51001  0.58253  0.92945  1.0000
  C   C5720     1.0  0.49726  0.62152  0.93202  1.0000
  C   C5721     1.0  0.58306  0.57477  0.96491  1.0000
  H   H4552     1.0  0.55941  0.59489  0.95468  1.0000
  H   H4553     1.0  0.51935  0.65850  0.91572  1.0000
  H   H4554     1.0  0.50044  0.62288  0.89968  1.0000
  C   C5722     1.0  0.62781  0.58078  0.96173  1.0000
  H   H4555     1.0  0.54768  0.66864  0.93194  1.0000
  C   C5723     1.0  0.55207  0.60363  0.95672  1.0000
  S   S762      1.0  0.53465  0.72916  0.89507  1.0000
  H   H4556     1.0  0.51099  0.59600  0.95426  1.0000
  C   C5724     1.0  0.51431  0.59016  0.94672  1.0000
  C   C5725     1.0  0.59633  0.57475  0.96343  1.0000
  C   C5726     1.0  0.52837  0.71938  0.94849  1.0000
  H   H4557     1.0  0.49711  0.72211  0.96599  1.0000
  H   H4558     1.0  0.54232  0.57179  0.93101  1.0000
  S   S763      1.0  0.52089  0.71409  0.97578  1.0000
  C   C5727     1.0  0.63570  0.59369  0.93524  1.0000
  H   H4559     1.0  0.64853  0.57271  0.96104  1.0000
  H   H4560     1.0  0.66403  0.61546  0.88547  1.0000
  C   C5728     1.0  0.51849  0.64037  0.86749  1.0000
  C   C5729     1.0  0.51735  0.66609  0.90699  1.0000
  C   C5730     1.0  0.66684  0.54911  0.87232  1.0000
  H   H4561     1.0  0.64484  0.57883  0.87225  1.0000
  C   C5731     1.0  0.52757  0.58369  0.94368  1.0000
  H   H4562     1.0  0.63691  0.48807  0.88291  1.0000
  C   C5732     1.0  0.49625  0.72396  0.95579  1.0000
  C   C5733     1.0  0.57367  0.62432  0.95280  1.0000
  C   C5734     1.0  0.50617  0.71193  0.90249  1.0000
  C   C5735     1.0  0.58224  0.61408  0.95959  1.0000
  P   P197      1.0  0.66821  0.56900  0.88376  1.0000
  H   H4563     1.0  0.62493  0.57566  0.97200  1.0000
  C   C5736     1.0  0.54844  0.60643  0.96943  1.0000
  H   H4564     1.0  0.59499  0.59532  0.93609  1.0000
  H   H4565     1.0  0.61290  0.60392  0.97424  1.0000
  C   C5737     1.0  0.51572  0.55001  0.96569  1.0000
  C   C5738     1.0  0.64306  0.48977  0.94710  1.0000
  C   C5739     1.0  0.53201  0.57650  0.93365  1.0000
  C   C5740     1.0  0.60627  0.51607  0.96422  1.0000
  C   C5741     1.0  0.61820  0.58871  0.95459  1.0000
  H   H4566     1.0  0.59700  0.51453  0.96366  1.0000
  P   P198      1.0  0.49457  0.67362  0.87996  1.0000
  C   C5742     1.0  0.57300  0.62419  0.94001  1.0000
  H   H4567     1.0  0.63407  0.56084  0.93520  1.0000
  C   C5743     1.0  0.50711  0.60777  0.88814  1.0000
  H   H4568     1.0  0.61609  0.56229  0.96175  1.0000
  H   H4569     1.0  0.68454  0.56506  0.90299  1.0000
  C   C5744     1.0  0.57911  0.56303  0.96644  1.0000
  C   C5745     1.0  0.66777  0.60480  0.85729  1.0000
  C   C5746     1.0  0.51392  0.65182  0.87267  1.0000
  C   C5747     1.0  0.66134  0.56202  0.87443  1.0000
  C   C5748     1.0  0.52681  0.66942  0.93635  1.0000
  H   H4570     1.0  0.62925  0.72206  0.93037  1.0000
  H   H4571     1.0  0.70251  0.48634  0.88770  1.0000
  C   C5749     1.0  0.62011  0.72929  0.93238  1.0000
  C   C5750     1.0  0.69064  0.56094  0.89458  1.0000
  H   H4572     1.0  0.52936  0.70891  0.94932  1.0000
  H   H4573     1.0  0.52675  0.57100  0.91830  1.0000
  C   C5751     1.0  0.61554  0.51964  0.95245  1.0000
  C   C5752     1.0  0.51273  0.69136  0.93107  1.0000
  C   C5753     1.0  0.64068  0.56267  0.92552  1.0000
  C   C5754     1.0  0.62727  0.52220  0.95319  1.0000
  H   H4574     1.0  0.53466  0.57778  0.97468  1.0000
  H   H4575     1.0  0.51337  0.71954  0.88158  1.0000
  H   H4576     1.0  0.50560  0.61382  0.97786  1.0000
  C   C5755     1.0  0.50541  0.58954  0.93970  1.0000
  H   H4577     1.0  0.72455  0.48950  0.88713  1.0000
  C   C5756     1.0  0.60884  0.51494  0.97667  1.0000
  H   H4578     1.0  0.64435  0.54607  0.85725  1.0000
  C   C5757     1.0  0.66092  0.54352  0.86582  1.0000
  H   H4579     1.0  0.58233  0.61431  0.96960  1.0000
  C   C5758     1.0  0.52421  0.67629  0.90221  1.0000
  H   H4580     1.0  0.63876  0.59871  0.92497  1.0000
  C   C5759     1.0  0.58924  0.60342  0.94083  1.0000
  C   C5760     1.0  0.53648  0.68867  0.92748  1.0000
  C   C5761     1.0  0.50515  0.71637  0.88916  1.0000
  H   H4581     1.0  0.64179  0.58317  0.89486  1.0000
  H   H4582     1.0  0.61671  0.72196  0.95368  1.0000
  H   H4583     1.0  0.67062  0.54888  0.90867  1.0000
  H   H4584     1.0  0.52028  0.65434  0.87735  1.0000
  H   H4585     1.0  0.54876  0.53799  0.97001  1.0000
  H   H4586     1.0  0.56733  0.63221  0.95758  1.0000
  H   H4587     1.0  0.53450  0.58464  0.94878  1.0000
  H   H4588     1.0  0.54174  0.51785  0.97026  1.0000
  H   H4589     1.0  0.49222  0.64236  0.85499  1.0000
  H   H4590     1.0  0.49985  0.64364  0.94676  1.0000
  H   H4591     1.0  0.52808  0.63408  0.86851  1.0000
  C   C5762     1.0  0.49324  0.64681  0.95549  1.0000
  C   C5763     1.0  0.66735  0.58641  0.87660  1.0000
  C   C5764     1.0  0.53793  0.67496  0.93195  1.0000
  H   H4592     1.0  0.50986  0.68411  0.85393  1.0000
  H   H4593     1.0  0.58554  0.54194  0.96754  1.0000
  H   H4594     1.0  0.51064  0.59364  0.87606  1.0000
  H   H4595     1.0  0.66989  0.58462  0.85634  1.0000
  H   H4596     1.0  0.68601  0.48903  0.91925  1.0000
  C   C5765     1.0  0.53247  0.62599  0.96179  1.0000
  H   H4597     1.0  0.49275  0.72041  0.87529  1.0000
  H   H4598     1.0  0.53840  0.67213  0.96025  1.0000
  S   S764      1.0  0.65171  0.50610  0.91388  1.0000
  H   H4599     1.0  0.52309  0.70746  0.92382  1.0000
  P   P199      1.0  0.48835  0.59797  0.94380  1.0000
  H   H4600     1.0  0.60070  0.50020  0.91748  1.0000
  H   H4601     1.0  0.50355  0.58229  0.92347  1.0000
  H   H4602     1.0  0.52582  0.60126  0.96553  1.0000
  C   C5766     1.0  0.70380  0.55473  0.89479  1.0000
  H   H4603     1.0  0.51529  0.71159  0.90490  1.0000
  H   H4604     1.0  0.51422  0.67563  0.96530  1.0000
  H   H4605     1.0  0.51400  0.62777  0.85766  1.0000
  C   C5767     1.0  0.65311  0.55425  0.92312  1.0000
  C   C5768     1.0  0.50619  0.67490  0.88854  1.0000
  H   H4606     1.0  0.58006  0.61359  0.92419  1.0000
  C   C5769     1.0  0.49553  0.63508  0.92629  1.0000
  C   C5770     1.0  0.53884  0.61777  0.97188  1.0000
  C   C5771     1.0  0.55127  0.53427  0.96101  1.0000
  H   H4607     1.0  0.61520  0.60172  0.93563  1.0000
  H   H4608     1.0  0.51169  0.69264  0.87494  1.0000
  C   C5772     1.0  0.62086  0.51682  0.97736  1.0000
  H   H4609     1.0  0.56877  0.56322  0.96778  1.0000
  H   H4610     1.0  0.56622  0.63202  0.93482  1.0000
  C   C5773     1.0  0.68540  0.56144  0.88380  1.0000
  H   H4611     1.0  0.63484  0.49573  0.95279  1.0000
  H   H4612     1.0  0.52012  0.56650  0.96956  1.0000
  S   S765      1.0  0.63819  0.52861  0.93892  1.0000
  C   C5774     1.0  0.48640  0.61549  0.93652  1.0000
  C   C5775     1.0  0.55860  0.54076  0.94929  1.0000
  C   C5776     1.0  0.56210  0.53593  0.93757  1.0000
  C   C5777     1.0  0.55776  0.52473  0.93771  1.0000
  P   P200      1.0  0.57176  0.54419  0.92243  1.0000
  C   C5778     1.0  0.56087  0.55481  0.91173  1.0000
  C   C5779     1.0  0.58144  0.55280  0.92700  1.0000
  C   C5780     1.0  0.57595  0.56534  0.93012  1.0000
  C   C5781     1.0  0.58363  0.57189  0.93344  1.0000
  C   C5782     1.0  0.59677  0.56590  0.93393  1.0000
  C   C5783     1.0  0.60215  0.55321  0.93143  1.0000
  C   C5784     1.0  0.59448  0.54667  0.92807  1.0000
  C   C5785     1.0  0.56211  0.56785  0.90532  1.0000
  C   C5786     1.0  0.55421  0.57556  0.89638  1.0000
  C   C5787     1.0  0.54529  0.57022  0.89343  1.0000
  C   C5788     1.0  0.54414  0.55719  0.89955  1.0000
  C   C5789     1.0  0.55185  0.54953  0.90869  1.0000
  C   C5790     1.0  0.58295  0.53220  0.91321  1.0000
  C   C5791     1.0  0.58720  0.53600  0.89932  1.0000
  C   C5792     1.0  0.59592  0.52686  0.89209  1.0000
  C   C5793     1.0  0.60054  0.51388  0.89864  1.0000
  C   C5794     1.0  0.63667  0.57310  0.91530  1.0000
  C   C5795     1.0  0.58789  0.51921  0.91978  1.0000
  C   C5796     1.0  0.66145  0.55607  0.91049  1.0000
  C   C5797     1.0  0.58077  0.61374  0.93404  1.0000
  C   C5798     1.0  0.51307  0.68516  0.88386  1.0000
  H   H4613     1.0  0.56163  0.54944  0.94952  1.0000
  H   H4614     1.0  0.56019  0.52088  0.92879  1.0000
  H   H4615     1.0  0.56583  0.57022  0.92975  1.0000
  H   H4616     1.0  0.57947  0.58181  0.93523  1.0000
  H   H4617     1.0  0.60285  0.57114  0.93606  1.0000
  H   H4618     1.0  0.61234  0.54850  0.93187  1.0000
  H   H4619     1.0  0.59880  0.53687  0.92625  1.0000
  H   H4620     1.0  0.56934  0.57207  0.90688  1.0000
  H   H4621     1.0  0.55512  0.58568  0.89155  1.0000
  H   H4622     1.0  0.53929  0.57622  0.88637  1.0000
  H   H4623     1.0  0.53730  0.55304  0.89711  1.0000
  H   H4624     1.0  0.55101  0.53937  0.91306  1.0000
  H   H4625     1.0  0.58411  0.54612  0.89406  1.0000
  H   H4626     1.0  0.59949  0.53000  0.88143  1.0000
  H   H4627     1.0  0.60765  0.50691  0.89308  1.0000
  H   H4628     1.0  0.53301  0.72407  0.92694  1.0000
  C   C5799     1.0  0.69391  0.55685  0.87265  1.0000
  C   C5800     1.0  0.53036  0.72793  0.93585  1.0000
  C   C5801     1.0  0.52068  0.59632  0.97496  1.0000
  C   C5802     1.0  0.51982  0.66707  0.97105  1.0000
  P   P201      1.0  0.60089  0.58996  0.96250  1.0000
  C   C5803     1.0  0.71197  0.54942  0.88404  1.0000
  C   C5804     1.0  0.72968  0.51843  0.96861  1.0000
  H   H4629     1.0  0.49760  0.70352  0.95637  1.0000
  C   C5805     1.0  0.49384  0.65667  0.86478  1.0000
  H   H4630     1.0  0.73624  0.51015  0.95112  1.0000
  C   C5806     1.0  0.64121  0.57910  0.95556  1.0000
  H   H4631     1.0  0.62691  0.57943  0.91704  1.0000
  H   H4632     1.0  0.66916  0.49230  0.87987  1.0000
  H   H4633     1.0  0.72101  0.52509  0.96550  1.0000
  C   C5807     1.0  0.49781  0.65242  0.96315  1.0000
  H   H4634     1.0  0.67535  0.54308  0.87617  1.0000
  C   C5808     1.0  0.64515  0.58550  0.94230  1.0000
  C   C5809     1.0  0.60176  0.55107  0.96456  1.0000
  C   C5810     1.0  0.63002  0.52054  0.96565  1.0000
  H   H4635     1.0  0.65764  0.49468  0.95384  1.0000
  C   C5811     1.0  0.52483  0.72444  0.96005  1.0000
  H   H4636     1.0  0.50592  0.67299  0.93959  1.0000
  C   C5812     1.0  0.55045  0.51823  0.94946  1.0000
  H   H4637     1.0  0.63910  0.52247  0.96624  1.0000
  H   H4638     1.0  0.50710  0.61588  0.93281  1.0000
  H   H4639     1.0  0.66538  0.59155  0.89533  1.0000
  H   H4640     1.0  0.57577  0.58389  0.96509  1.0000
  H   H4641     1.0  0.50329  0.65734  0.90374  1.0000
  C   C5813     1.0  0.54729  0.52295  0.96113  1.0000
  C   C5814     1.0  0.60572  0.56277  0.96313  1.0000
  H   H4642     1.0  0.72209  0.49057  0.97890  1.0000
  H   H4643     1.0  0.66850  0.60853  0.84666  1.0000
  C   C5815     1.0  0.58849  0.55112  0.96633  1.0000
  C   C5816     1.0  0.53355  0.66508  0.96809  1.0000
  C   C5817     1.0  0.49836  0.64511  0.85977  1.0000
  C   C5818     1.0  0.66594  0.59517  0.88472  1.0000
  H   H4644     1.0  0.65609  0.54591  0.93092  1.0000
  H   H4645     1.0  0.65553  0.58409  0.93749  1.0000
  C   C5819     1.0  0.66609  0.61352  0.86547  1.0000
  C   C5820     1.0  0.70708  0.55065  0.87289  1.0000
  C   C5821     1.0  0.62227  0.59531  0.94134  1.0000
  H   H4646     1.0  0.66549  0.62402  0.86117  1.0000
  H   H4647     1.0  0.69034  0.55780  0.86388  1.0000
  C   C5822     1.0  0.64927  0.55062  0.86173  1.0000
  C   C5823     1.0  0.64961  0.56908  0.87028  1.0000
  S   S766      1.0  0.62840  0.48550  0.91174  1.0000
  P   P202      1.0  0.49673  0.70225  0.92977  1.0000
  H   H4648     1.0  0.63429  0.56865  0.86125  1.0000
  H   H4649     1.0  0.71346  0.54659  0.86452  1.0000
  H   H4650     1.0  0.54731  0.50950  0.94952  1.0000
  C   C5824     1.0  0.64362  0.56339  0.86397  1.0000
  H   H4651     1.0  0.50397  0.63963  0.92296  1.0000
  H   H4652     1.0  0.70734  0.49361  0.91823  1.0000
  C   C5825     1.0  0.50355  0.60157  0.88022  1.0000
  C   C5826     1.0  0.49610  0.71588  0.93683  1.0000
  H   H4653     1.0  0.72206  0.54425  0.88444  1.0000
  C   C5827     1.0  0.49104  0.68861  0.86753  1.0000
  C   C5828     1.0  0.49667  0.71348  0.95025  1.0000
  H   H4654     1.0  0.60905  0.54196  0.96422  1.0000
  H   H4655     1.0  0.70763  0.55366  0.90347  1.0000
  C   C5829     1.0  0.49352  0.71691  0.88562  1.0000
  C   C5830     1.0  0.49824  0.70308  0.84629  1.0000
  C   C5831     1.0  0.59834  0.59198  0.97929  1.0000
  C   C5832     1.0  0.49557  0.72878  0.92901  1.0000
  S   S767      1.0  0.55939  0.73239  0.86885  1.0000
  C   C5833     1.0  0.54098  0.65425  0.97548  1.0000
  C   C5834     1.0  0.61306  0.72923  0.94550  1.0000
  C   C5835     1.0  0.51370  0.53711  0.97074  1.0000
  C   C5836     1.0  0.51875  0.55650  0.97371  1.0000
  H   H4656     1.0  0.51127  0.53213  0.96453  1.0000
  H   H4657     1.0  0.48861  0.60113  0.87079  1.0000
  H   H4658     1.0  0.59530  0.73073  0.88226  1.0000
  H   H4659     1.0  0.49342  0.57482  0.96526  1.0000
  C   C5837     1.0  0.65593  0.48909  0.94772  1.0000
  H   H4660     1.0  0.67331  0.48796  0.90229  1.0000
  C   C5838     1.0  0.58335  0.48537  0.95811  1.0000
  C   C5839     1.0  0.52553  0.58294  0.98010  1.0000
  C   C5840     1.0  0.48730  0.58295  0.96979  1.0000
  H   H4661     1.0  0.57323  0.49073  0.96057  1.0000
  H   H4662     1.0  0.58429  0.49027  0.93697  1.0000
  H   H4663     1.0  0.48945  0.67867  0.92788  1.0000
  C   C5841     1.0  0.48945  0.65621  0.97472  1.0000
  C   C5842     1.0  0.49102  0.60576  0.87730  1.0000
  C   C5843     1.0  0.58957  0.48514  0.94483  1.0000
  H   H4664     1.0  0.63275  0.73271  0.96906  1.0000
  H   H4665     1.0  0.69074  0.48378  0.95905  1.0000
  C   C5844     1.0  0.73241  0.51837  0.98063  1.0000
  C   C5845     1.0  0.48637  0.71241  0.84854  1.0000
  Fe  Fe383     1.0  0.56734  0.83600  0.99649  1.0000
  S   S768      1.0  0.56971  0.82383  0.01691  1.0000
  C   C5846     1.0  0.56792  0.95413  0.25898  1.0000
  Fe  Fe384     1.0  0.53792  0.84076  0.00366  1.0000
  S   S769      1.0  0.53788  0.82877  0.02448  1.0000
  S   S770      1.0  0.51983  0.85025  0.99518  1.0000
  Fe  Fe385     1.0  0.55285  0.83976  0.02433  1.0000
  S   S771      1.0  0.54862  0.84695  0.04357  1.0000
  Fe  Fe386     1.0  0.55452  0.81408  0.01523  1.0000
  S   S772      1.0  0.55482  0.79203  0.02297  1.0000
  S   S773      1.0  0.55177  0.85266  0.00398  1.0000
  S   S774      1.0  0.55338  0.82519  0.99443  1.0000
  Fe  Fe387     1.0  0.54837  0.91099  0.10001  1.0000
  S   S775      1.0  0.56935  0.90246  0.09099  1.0000
  S   S776      1.0  0.53978  0.93162  0.10382  1.0000
  Fe  Fe388     1.0  0.54065  0.88443  0.10695  1.0000
  S   S777      1.0  0.56099  0.87366  0.09882  1.0000
  S   S778      1.0  0.52398  0.87390  0.11590  1.0000
  Fe  Fe389     1.0  0.56754  0.88567  0.10894  1.0000
  S   S779      1.0  0.58313  0.87651  0.12099  1.0000
  Fe  Fe390     1.0  0.56069  0.89137  0.08171  1.0000
  S   S780      1.0  0.56811  0.88952  0.06014  1.0000
  S   S781      1.0  0.54724  0.89483  0.11846  1.0000
  S   S782      1.0  0.53977  0.90144  0.08922  1.0000
  Fe  Fe391     1.0  0.57095  0.90030  0.19081  1.0000
  S   S783      1.0  0.54972  0.91077  0.19257  1.0000
  S   S784      1.0  0.58466  0.89048  0.17437  1.0000
  Fe  Fe392     1.0  0.57231  0.90502  0.21737  1.0000
  S   S785      1.0  0.55129  0.91587  0.22119  1.0000
  S   S786      1.0  0.58650  0.90098  0.23070  1.0000
  Fe  Fe393     1.0  0.54727  0.89996  0.21412  1.0000
  S   S787      1.0  0.53029  0.89081  0.22696  1.0000
  Fe  Fe394     1.0  0.55542  0.92576  0.19957  1.0000
  S   S788      1.0  0.54599  0.94740  0.19377  1.0000
  S   S789      1.0  0.56813  0.88823  0.21189  1.0000
  S   S790      1.0  0.57699  0.91620  0.19609  1.0000
  C   C5847     1.0  0.50764  0.80957  0.03444  1.0000
  S   S791      1.0  0.64789  0.94214  0.46494  1.0000
  Fe  Fe395     1.0  0.63739  0.92434  0.40496  1.0000
  S   S792      1.0  0.65114  0.91155  0.39107  1.0000
  S   S793      1.0  0.63120  0.91654  0.42722  1.0000
  Fe  Fe396     1.0  0.63386  0.94848  0.38256  1.0000
  S   S794      1.0  0.64728  0.93771  0.36712  1.0000
  S   S795      1.0  0.62430  0.96993  0.37611  1.0000
  Fe  Fe397     1.0  0.63676  0.92124  0.37758  1.0000
  S   S796      1.0  0.63259  0.91017  0.36445  1.0000
  Fe  Fe398     1.0  0.66040  0.92922  0.38170  1.0000
  S   S797      1.0  0.68186  0.92998  0.37269  1.0000
  S   S798      1.0  0.62225  0.93263  0.39223  1.0000
  S   S799      1.0  0.64767  0.94127  0.39651  1.0000
  Fe  Fe399     1.0  0.57420  0.91221  0.30190  1.0000
  S   S800      1.0  0.56425  0.93192  0.29141  1.0000
  S   S801      1.0  0.57856  0.89433  0.29294  1.0000
  Fe  Fe400     1.0  0.57495  0.92260  0.32554  1.0000
  S   S802      1.0  0.56434  0.94285  0.31678  1.0000
  S   S803      1.0  0.57884  0.92279  0.34535  1.0000
  Fe  Fe401     1.0  0.55134  0.93319  0.31157  1.0000
  S   S804      1.0  0.52984  0.94318  0.31282  1.0000
  Fe  Fe402     1.0  0.57822  0.93971  0.29758  1.0000
  S   S805      1.0  0.58728  0.95660  0.28463  1.0000
  S   S806      1.0  0.56047  0.91297  0.32201  1.0000
  S   S807      1.0  0.58957  0.91986  0.30641  1.0000
  C   C5848     1.0  0.68468  0.90682  0.46795  1.0000
  H   H4666     1.0  0.55215  0.77441  0.08046  1.0000
  H   H4667     1.0  0.53745  0.96293  0.13214  1.0000
  C   C5849     1.0  0.49860  0.96082  0.34450  1.0000
  H   H4668     1.0  0.51039  0.92289  0.09251  1.0000
  H   H4669     1.0  0.53547  0.89419  0.98855  1.0000
  C   C5850     1.0  0.73178  0.95618  0.34168  1.0000
  C   C5851     1.0  0.71290  0.89932  0.44245  1.0000
  H   H4670     1.0  0.68535  0.86731  0.36076  1.0000
  C   C5852     1.0  0.62983  0.97066  0.43581  1.0000
  C   C5853     1.0  0.59893  0.96611  0.42994  1.0000
  H   H4671     1.0  0.52728  0.75801  0.03953  1.0000
  C   C5854     1.0  0.66335  0.89424  0.47880  1.0000
  S   S808      1.0  0.57774  0.97192  0.08396  1.0000
  C   C5855     1.0  0.73288  0.88506  0.39726  1.0000
  C   C5856     1.0  0.58346  0.76186  0.00165  1.0000
  S   S809      1.0  0.48791  0.90734  0.33990  1.0000
  H   H4672     1.0  0.54779  0.76677  0.03028  1.0000
  H   H4673     1.0  0.51576  0.84786  0.02334  1.0000
  H   H4674     1.0  0.48658  0.79182  0.05656  1.0000
  H   H4675     1.0  0.72425  0.88807  0.42768  1.0000
  C   C5857     1.0  0.51483  0.97151  0.02802  1.0000
  C   C5858     1.0  0.51840  0.93299  0.32046  1.0000
  C   C5859     1.0  0.50491  0.93869  0.32170  1.0000
  C   C5860     1.0  0.49558  0.93080  0.32777  1.0000
  C   C5861     1.0  0.49964  0.91721  0.33262  1.0000
  C   C5862     1.0  0.51309  0.91153  0.33164  1.0000
  C   C5863     1.0  0.52249  0.91935  0.32532  1.0000
  H   H4676     1.0  0.50166  0.94922  0.31794  1.0000
  H   H4677     1.0  0.58701  0.97356  0.45315  1.0000
  H   H4678     1.0  0.51622  0.90108  0.33574  1.0000
  H   H4679     1.0  0.53286  0.91486  0.32444  1.0000
  C   C5864     1.0  0.58559  0.96740  0.29485  1.0000
  C   C5865     1.0  0.58547  0.96238  0.30840  1.0000
  C   C5866     1.0  0.58148  0.97102  0.31712  1.0000
  H   H4680     1.0  0.61672  0.97557  0.34894  1.0000
  H   H4681     1.0  0.61603  0.91661  0.28242  1.0000
  C   C5867     1.0  0.73331  0.95257  0.32969  1.0000
  H   H4682     1.0  0.58806  0.95180  0.31225  1.0000
  H   H4683     1.0  0.58094  0.96710  0.32766  1.0000
  H   H4684     1.0  0.57309  0.73443  0.02193  1.0000
  C   C5868     1.0  0.57713  0.74094  0.01289  1.0000
  C   C5869     1.0  0.61796  0.91478  0.35828  1.0000
  C   C5870     1.0  0.60701  0.92414  0.36304  1.0000
  C   C5871     1.0  0.59526  0.92688  0.35855  1.0000
  C   C5872     1.0  0.59438  0.92050  0.34912  1.0000
  C   C5873     1.0  0.60548  0.91151  0.34400  1.0000
  C   C5874     1.0  0.61717  0.90860  0.34865  1.0000
  H   H4685     1.0  0.60748  0.92900  0.37042  1.0000
  H   H4686     1.0  0.58672  0.93380  0.36262  1.0000
  H   H4687     1.0  0.60493  0.90646  0.33681  1.0000
  H   H4688     1.0  0.62559  0.90137  0.34489  1.0000
  Fe  Fe403     1.0  0.54244  0.73609  0.99751  1.0000
  H   H4689     1.0  0.52321  0.92345  0.06938  1.0000
  H   H4690     1.0  0.54230  0.84836  0.40695  1.0000
  H   H4691     1.0  0.65298  0.98089  0.31565  1.0000
  C   C5875     1.0  0.53621  0.83210  0.08189  1.0000
  H   H4692     1.0  0.50764  0.90068  0.08916  1.0000
  H   H4693     1.0  0.65190  0.96458  0.37681  1.0000
  C   C5876     1.0  0.64369  0.93409  0.45495  1.0000
  C   C5877     1.0  0.63293  0.92799  0.45965  1.0000
  C   C5878     1.0  0.62931  0.92243  0.45113  1.0000
  C   C5879     1.0  0.63627  0.92315  0.43782  1.0000
  C   C5880     1.0  0.64726  0.92889  0.43328  1.0000
  C   C5881     1.0  0.65106  0.93415  0.44188  1.0000
  H   H4694     1.0  0.62726  0.92776  0.46976  1.0000
  H   H4695     1.0  0.62091  0.91782  0.45478  1.0000
  H   H4696     1.0  0.65296  0.92912  0.42319  1.0000
  H   H4697     1.0  0.65966  0.93842  0.43832  1.0000
  C   C5882     1.0  0.55442  0.95761  0.19683  1.0000
  C   C5883     1.0  0.54799  0.97060  0.19808  1.0000
  C   C5884     1.0  0.49016  0.88335  0.26950  1.0000
  C   C5885     1.0  0.56802  0.97428  0.20099  1.0000
  C   C5886     1.0  0.57442  0.96131  0.19974  1.0000
  C   C5887     1.0  0.56761  0.95295  0.19778  1.0000
  H   H4698     1.0  0.53784  0.97432  0.19720  1.0000
  H   H4699     1.0  0.49989  0.86694  0.21772  1.0000
  H   H4700     1.0  0.58468  0.95771  0.20030  1.0000
  H   H4701     1.0  0.57268  0.94302  0.19675  1.0000
  C   C5888     1.0  0.58190  0.89876  0.24824  1.0000
  C   C5889     1.0  0.57372  0.90895  0.25451  1.0000
  C   C5890     1.0  0.57235  0.90771  0.26830  1.0000
  C   C5891     1.0  0.57906  0.89624  0.27585  1.0000
  C   C5892     1.0  0.58667  0.88588  0.26963  1.0000
  C   C5893     1.0  0.58827  0.88723  0.25591  1.0000
  H   H4702     1.0  0.56901  0.91801  0.24859  1.0000
  H   H4703     1.0  0.56633  0.91571  0.27301  1.0000
  H   H4704     1.0  0.59184  0.87697  0.27535  1.0000
  H   H4705     1.0  0.59478  0.87942  0.25113  1.0000
  C   C5894     1.0  0.51748  0.89339  0.21889  1.0000
  C   C5895     1.0  0.50494  0.89184  0.22641  1.0000
  C   C5896     1.0  0.49437  0.89494  0.22013  1.0000
  C   C5897     1.0  0.49634  0.89960  0.20630  1.0000
  C   C5898     1.0  0.50899  0.90062  0.19875  1.0000
  C   C5899     1.0  0.51953  0.89748  0.20503  1.0000
  H   H4706     1.0  0.50332  0.88858  0.23713  1.0000
  H   H4707     1.0  0.68337  0.89762  0.43724  1.0000
  H   H4708     1.0  0.51061  0.90424  0.18808  1.0000
  H   H4709     1.0  0.52922  0.89827  0.19914  1.0000
  C   C5900     1.0  0.55059  0.94256  0.09876  1.0000
  C   C5901     1.0  0.54650  0.95476  0.10266  1.0000
  C   C5902     1.0  0.55478  0.96384  0.09828  1.0000
  C   C5903     1.0  0.56729  0.96062  0.09015  1.0000
  C   C5904     1.0  0.57148  0.94833  0.08651  1.0000
  C   C5905     1.0  0.56315  0.93935  0.09076  1.0000
  H   H4710     1.0  0.53686  0.95724  0.10898  1.0000
  H   H4711     1.0  0.55147  0.97331  0.10114  1.0000
  H   H4712     1.0  0.58108  0.94585  0.08012  1.0000
  H   H4713     1.0  0.56637  0.93005  0.08763  1.0000
  C   C5906     1.0  0.58238  0.88092  0.13596  1.0000
  C   C5907     1.0  0.57205  0.89041  0.14157  1.0000
  C   C5908     1.0  0.57237  0.89359  0.15345  1.0000
  C   C5909     1.0  0.58287  0.88703  0.15983  1.0000
  C   C5910     1.0  0.59298  0.87751  0.15422  1.0000
  C   C5911     1.0  0.59277  0.87453  0.14239  1.0000
  H   H4714     1.0  0.56390  0.89531  0.13675  1.0000
  H   H4715     1.0  0.56459  0.90111  0.15758  1.0000
  H   H4716     1.0  0.60116  0.87244  0.15899  1.0000
  H   H4717     1.0  0.60078  0.86722  0.13819  1.0000
  C   C5912     1.0  0.50940  0.88600  0.11795  1.0000
  C   C5913     1.0  0.51000  0.89900  0.11724  1.0000
  C   C5914     1.0  0.49855  0.90904  0.11746  1.0000
  H   H4718     1.0  0.57618  0.75616  0.02282  1.0000
  H   H4719     1.0  0.59220  0.97211  0.10403  1.0000
  C   C5915     1.0  0.49726  0.88295  0.11944  1.0000
  H   H4720     1.0  0.51933  0.90140  0.11617  1.0000
  H   H4721     1.0  0.49912  0.91914  0.11657  1.0000
  C   C5916     1.0  0.67716  0.95864  0.47444  1.0000
  H   H4722     1.0  0.49680  0.87290  0.11996  1.0000
  C   C5917     1.0  0.55353  0.85970  0.04725  1.0000
  C   C5918     1.0  0.56260  0.86678  0.03818  1.0000
  C   C5919     1.0  0.56686  0.87609  0.04211  1.0000
  C   C5920     1.0  0.56213  0.87833  0.05513  1.0000
  C   C5921     1.0  0.55282  0.87148  0.06405  1.0000
  C   C5922     1.0  0.54850  0.86232  0.06008  1.0000
  H   H4723     1.0  0.56654  0.86487  0.02827  1.0000
  H   H4724     1.0  0.57403  0.88138  0.03512  1.0000
  H   H4725     1.0  0.54902  0.87315  0.07406  1.0000
  H   H4726     1.0  0.54132  0.85710  0.06705  1.0000
  C   C5923     1.0  0.60179  0.80358  0.98580  1.0000
  H   H4727     1.0  0.49550  0.95848  0.05554  1.0000
  C   C5924     1.0  0.49548  0.94026  0.08718  1.0000
  C   C5925     1.0  0.59385  0.93574  0.22429  1.0000
  H   H4728     1.0  0.51916  0.78442  0.00315  1.0000
  C   C5926     1.0  0.71737  0.83946  0.40170  1.0000
  C   C5927     1.0  0.54295  0.88035  0.39072  1.0000
  H   H4729     1.0  0.59799  0.91152  0.27602  1.0000
  H   H4730     1.0  0.52771  0.80469  0.00481  1.0000
  C   C5928     1.0  0.49207  0.88222  0.17431  1.0000
  C   C5929     1.0  0.50061  0.97053  0.33280  1.0000
  C   C5930     1.0  0.51909  0.91055  0.36151  1.0000
  C   C5931     1.0  0.48996  0.98221  0.07548  1.0000
  C   C5932     1.0  0.49589  0.85345  0.06880  1.0000
  H   H4731     1.0  0.61621  0.95104  0.43441  1.0000
  C   C5933     1.0  0.52813  0.84829  0.09579  1.0000
  H   H4732     1.0  0.72665  0.83384  0.39700  1.0000
  C   C5934     1.0  0.68407  0.89763  0.48022  1.0000
  C   C5935     1.0  0.50682  0.85361  0.05801  1.0000
  C   C5936     1.0  0.51537  0.84174  0.05549  1.0000
  C   C5937     1.0  0.51296  0.82960  0.06351  1.0000
  C   C5938     1.0  0.50208  0.82933  0.07426  1.0000
  H   H4733     1.0  0.49212  0.78678  0.03219  1.0000
  C   C5939     1.0  0.70517  0.93010  0.37787  1.0000
  C   C5940     1.0  0.48804  0.96604  0.17509  1.0000
  H   H4734     1.0  0.51898  0.90754  0.24956  1.0000
  H   H4735     1.0  0.51648  0.77973  0.02746  1.0000
  C   C5941     1.0  0.70207  0.92068  0.47345  1.0000
  C   C5942     1.0  0.49202  0.87888  0.07713  1.0000
  H   H4736     1.0  0.50866  0.86290  0.05143  1.0000
  H   H4737     1.0  0.52366  0.84199  0.04704  1.0000
  H   H4738     1.0  0.51949  0.82044  0.06130  1.0000
  H   H4739     1.0  0.50014  0.81993  0.08043  1.0000
  C   C5943     1.0  0.71448  0.92346  0.47159  1.0000
  H   H4740     1.0  0.51216  0.86768  0.07217  1.0000
  H   H4741     1.0  0.51217  0.93034  0.35079  1.0000
  H   H4742     1.0  0.55495  0.80839  0.10579  1.0000
  C   C5944     1.0  0.61021  0.94394  0.25769  1.0000
  C   C5945     1.0  0.71426  0.92733  0.38596  1.0000
  P   P203      1.0  0.59232  0.95229  0.24099  1.0000
  C   C5946     1.0  0.49583  0.76929  0.00251  1.0000
  C   C5947     1.0  0.67472  0.90933  0.46095  1.0000
  P   P204      1.0  0.69856  0.91467  0.46101  1.0000
  C   C5948     1.0  0.66876  0.98008  0.46111  1.0000
  C   C5949     1.0  0.71222  0.90237  0.45456  1.0000
  H   H4743     1.0  0.51299  0.94985  0.09887  1.0000
  C   C5950     1.0  0.48654  0.90618  0.11808  1.0000
  H   H4744     1.0  0.67315  0.89029  0.35316  1.0000
  H   H4745     1.0  0.58664  0.85335  0.05325  1.0000
  H   H4746     1.0  0.50590  0.97100  0.30054  1.0000
  H   H4747     1.0  0.54831  0.96027  0.23177  1.0000
  C   C5951     1.0  0.69442  0.92953  0.44869  1.0000
  C   C5952     1.0  0.68271  0.93883  0.45194  1.0000
  C   C5953     1.0  0.67929  0.95051  0.44268  1.0000
  C   C5954     1.0  0.68752  0.95298  0.43006  1.0000
  C   C5955     1.0  0.69935  0.94389  0.42682  1.0000
  C   C5956     1.0  0.70293  0.93233  0.43620  1.0000
  H   H4748     1.0  0.63731  0.97568  0.45957  1.0000
  H   H4749     1.0  0.61280  0.97687  0.31021  1.0000
  H   H4750     1.0  0.68396  0.85934  0.41848  1.0000
  H   H4751     1.0  0.62390  0.93730  0.27065  1.0000
  H   H4752     1.0  0.67502  0.91620  0.45137  1.0000
  H   H4753     1.0  0.58777  0.91099  0.38890  1.0000
  H   H4754     1.0  0.70541  0.90447  0.43676  1.0000
  C   C5957     1.0  0.49699  0.94436  0.16117  1.0000
  H   H4755     1.0  0.70790  0.89840  0.37427  1.0000
  H   H4756     1.0  0.62734  0.94236  0.20178  1.0000
  C   C5958     1.0  0.54113  0.97748  0.35870  1.0000
  C   C5959     1.0  0.49248  0.93047  0.20954  1.0000
  H   H4757     1.0  0.67617  0.93701  0.46167  1.0000
  H   H4758     1.0  0.67019  0.95756  0.44534  1.0000
  H   H4759     1.0  0.68473  0.96193  0.42285  1.0000
  H   H4760     1.0  0.55979  0.78983  0.08826  1.0000
  C   C5960     1.0  0.49392  0.95626  0.22835  1.0000
  C   C5961     1.0  0.49131  0.79244  0.99107  1.0000
  C   C5962     1.0  0.55190  0.78450  0.07475  1.0000
  C   C5963     1.0  0.50219  0.86105  0.16820  1.0000
  P   P205      1.0  0.69749  0.87832  0.39718  1.0000
  C   C5964     1.0  0.73342  0.88328  0.44439  1.0000
  C   C5965     1.0  0.72362  0.97678  0.47464  1.0000
  C   C5966     1.0  0.48804  0.77999  0.99532  1.0000
  H   H4761     1.0  0.49822  0.92851  0.24391  1.0000
  H   H4762     1.0  0.61789  0.97088  0.47705  1.0000
  H   H4763     1.0  0.60629  0.93229  0.43702  1.0000
  H   H4764     1.0  0.49664  0.91391  0.15775  1.0000
  H   H4765     1.0  0.49275  0.85165  0.99531  1.0000
  C   C5967     1.0  0.58663  0.75829  0.98927  1.0000
  P   P206      1.0  0.49010  0.95153  0.25597  1.0000
  C   C5968     1.0  0.58894  0.80358  0.98568  1.0000
  H   H4766     1.0  0.54544  0.75225  0.01703  1.0000
  C   C5969     1.0  0.58446  0.95752  0.15541  1.0000
  C   C5970     1.0  0.57279  0.95310  0.16209  1.0000
  C   C5971     1.0  0.57271  0.93961  0.16495  1.0000
  C   C5972     1.0  0.58427  0.93040  0.16125  1.0000
  C   C5973     1.0  0.59596  0.93469  0.15471  1.0000
  C   C5974     1.0  0.59605  0.94819  0.15176  1.0000
  C   C5975     1.0  0.68021  0.89455  0.43007  1.0000
  H   H4767     1.0  0.72214  0.92178  0.46282  1.0000
  C   C5976     1.0  0.52014  0.98035  0.09012  1.0000
  C   C5977     1.0  0.49050  0.93236  0.14441  1.0000
  H   H4768     1.0  0.51951  0.96258  0.18019  1.0000
  H   H4769     1.0  0.59924  0.95934  0.17173  1.0000
  H   H4770     1.0  0.71890  0.96641  0.35654  1.0000
  C   C5978     1.0  0.49873  0.95084  0.06369  1.0000
  H   H4771     1.0  0.54384  0.80472  0.04622  1.0000
  H   H4772     1.0  0.61387  0.95283  0.25258  1.0000
  H   H4773     1.0  0.58304  0.96617  0.12808  1.0000
  H   H4774     1.0  0.54851  0.97277  0.37657  1.0000
  C   C5979     1.0  0.66786  0.98067  0.34560  1.0000
  H   H4775     1.0  0.56372  0.95992  0.16518  1.0000
  H   H4776     1.0  0.56369  0.93627  0.17022  1.0000
  H   H4777     1.0  0.58419  0.91993  0.16361  1.0000
  H   H4778     1.0  0.60495  0.92753  0.15199  1.0000
  H   H4779     1.0  0.60517  0.95137  0.14661  1.0000
  C   C5980     1.0  0.56359  0.92420  0.12499  1.0000
  C   C5981     1.0  0.56056  0.93494  0.13103  1.0000
  C   C5982     1.0  0.57046  0.94117  0.13053  1.0000
  C   C5983     1.0  0.58341  0.93667  0.12393  1.0000
  C   C5984     1.0  0.58650  0.92596  0.11768  1.0000
  C   C5985     1.0  0.57652  0.91965  0.11840  1.0000
  P   P207      1.0  0.60340  0.91954  0.11007  1.0000
  C   C5986     1.0  0.61150  0.90773  0.12261  1.0000
  C   C5987     1.0  0.62336  0.89881  0.11876  1.0000
  C   C5988     1.0  0.62974  0.88970  0.12839  1.0000
  C   C5989     1.0  0.62437  0.88948  0.14191  1.0000
  C   C5990     1.0  0.61261  0.89835  0.14581  1.0000
  C   C5991     1.0  0.60609  0.90734  0.13623  1.0000
  C   C5992     1.0  0.60363  0.91132  0.09736  1.0000
  C   C5993     1.0  0.60331  0.89781  0.10079  1.0000
  C   C5994     1.0  0.60325  0.89136  0.09116  1.0000
  C   C5995     1.0  0.60345  0.89834  0.07800  1.0000
  C   C5996     1.0  0.60373  0.91180  0.07448  1.0000
  C   C5997     1.0  0.60377  0.91829  0.08411  1.0000
  H   H4780     1.0  0.55589  0.91942  0.12530  1.0000
  H   H4781     1.0  0.55054  0.93842  0.13608  1.0000
  H   H4782     1.0  0.56810  0.94943  0.13531  1.0000
  H   H4783     1.0  0.59102  0.94144  0.12382  1.0000
  H   H4784     1.0  0.57864  0.91117  0.11397  1.0000
  H   H4785     1.0  0.63879  0.88272  0.12538  1.0000
  H   H4786     1.0  0.62919  0.88232  0.14941  1.0000
  H   H4787     1.0  0.60831  0.89797  0.15632  1.0000
  H   H4788     1.0  0.59676  0.91375  0.13955  1.0000
  H   H4789     1.0  0.62985  0.92301  0.10921  1.0000
  H   H4790     1.0  0.60283  0.89227  0.11100  1.0000
  H   H4791     1.0  0.60267  0.88100  0.09403  1.0000
  H   H4792     1.0  0.60312  0.89336  0.07062  1.0000
  H   H4793     1.0  0.60379  0.91721  0.06429  1.0000
  H   H4794     1.0  0.60380  0.92873  0.08114  1.0000
  C   C5998     1.0  0.53310  0.86548  0.20590  1.0000
  C   C5999     1.0  0.54496  0.86801  0.20624  1.0000
  C   C6000     1.0  0.55278  0.87385  0.19452  1.0000
  C   C6001     1.0  0.54866  0.87737  0.18254  1.0000
  C   C6002     1.0  0.53686  0.87472  0.18201  1.0000
  C   C6003     1.0  0.52908  0.86874  0.19383  1.0000
  P   P208      1.0  0.53206  0.87854  0.16621  1.0000
  C   C6004     1.0  0.53061  0.89598  0.15822  1.0000
  C   C6005     1.0  0.54393  0.86884  0.15482  1.0000
  C   C6006     1.0  0.54046  0.86758  0.14359  1.0000
  C   C6007     1.0  0.54952  0.86026  0.13468  1.0000
  C   C6008     1.0  0.56223  0.85435  0.13668  1.0000
  C   C6009     1.0  0.56579  0.85543  0.14781  1.0000
  C   C6010     1.0  0.55670  0.86252  0.15689  1.0000
  C   C6011     1.0  0.52615  0.90081  0.14629  1.0000
  C   C6012     1.0  0.52560  0.91404  0.13952  1.0000
  C   C6013     1.0  0.52917  0.92267  0.14477  1.0000
  C   C6014     1.0  0.53303  0.91817  0.15696  1.0000
  C   C6015     1.0  0.53368  0.90490  0.16372  1.0000
  C   C6016     1.0  0.51596  0.87512  0.16889  1.0000
  C   C6017     1.0  0.50455  0.88450  0.17283  1.0000
  C   C6018     1.0  0.51651  0.94615  0.27928  1.0000
  C   C6019     1.0  0.54714  0.80159  0.05550  1.0000
  H   H4795     1.0  0.49461  0.97264  0.32560  1.0000
  C   C6020     1.0  0.51467  0.86316  0.16703  1.0000
  H   H4796     1.0  0.52691  0.86123  0.21507  1.0000
  H   H4797     1.0  0.54796  0.86571  0.21562  1.0000
  H   H4798     1.0  0.56206  0.87572  0.19465  1.0000
  H   H4799     1.0  0.55480  0.88204  0.17363  1.0000
  H   H4800     1.0  0.51985  0.86676  0.19383  1.0000
  H   H4801     1.0  0.53074  0.87221  0.14164  1.0000
  H   H4802     1.0  0.54675  0.85939  0.12606  1.0000
  H   H4803     1.0  0.56941  0.84919  0.12945  1.0000
  H   H4804     1.0  0.57576  0.85110  0.14918  1.0000
  H   H4805     1.0  0.55993  0.86304  0.16531  1.0000
  H   H4806     1.0  0.52323  0.89435  0.14204  1.0000
  H   H4807     1.0  0.52254  0.91757  0.13008  1.0000
  H   H4808     1.0  0.52886  0.93284  0.13934  1.0000
  H   H4809     1.0  0.53561  0.92492  0.16117  1.0000
  H   H4810     1.0  0.53655  0.90176  0.17318  1.0000
  H   H4811     1.0  0.50525  0.89361  0.17473  1.0000
  C   C6021     1.0  0.54744  0.78862  0.06289  1.0000
  C   C6022     1.0  0.58656  0.79373  0.10842  1.0000
  C   C6023     1.0  0.69906  0.98130  0.38295  1.0000
  H   H4812     1.0  0.52328  0.85553  0.16445  1.0000
  C   C6024     1.0  0.55691  0.85692  0.26615  1.0000
  C   C6025     1.0  0.56611  0.86165  0.25500  1.0000
  H   H4813     1.0  0.55862  0.84647  0.27090  1.0000
  H   H4814     1.0  0.57496  0.85491  0.25109  1.0000
  H   H4815     1.0  0.52255  0.92920  0.23556  1.0000
  C   C6026     1.0  0.51665  0.76129  0.04192  1.0000
  H   H4816     1.0  0.51721  0.95484  0.14354  1.0000
  H   H4817     1.0  0.62416  0.97119  0.44579  1.0000
  C   C6027     1.0  0.59902  0.96973  0.17042  1.0000
  C   C6028     1.0  0.51970  0.88823  0.30035  1.0000
  H   H4818     1.0  0.56076  0.83513  0.09426  1.0000
  P   P209      1.0  0.69363  0.97779  0.34788  1.0000
  C   C6029     1.0  0.60138  0.92059  0.27094  1.0000
  H   H4819     1.0  0.72691  0.92990  0.47990  1.0000
  H   H4820     1.0  0.69564  0.91439  0.41544  1.0000
  C   C6030     1.0  0.48818  0.92891  0.24955  1.0000
  C   C6031     1.0  0.54705  0.95817  0.25274  1.0000
  C   C6032     1.0  0.50644  0.81142  0.00807  1.0000
  C   C6033     1.0  0.65916  0.96292  0.34396  1.0000
  H   H4821     1.0  0.50152  0.90332  0.28109  1.0000
  C   C6034     1.0  0.68174  0.98162  0.45547  1.0000
  S   S810      1.0  0.73512  0.94513  0.40950  1.0000
  H   H4822     1.0  0.66141  0.95972  0.41999  1.0000
  C   C6035     1.0  0.50332  0.89472  0.08566  1.0000
  C   C6036     1.0  0.69007  0.88193  0.38304  1.0000
  C   C6037     1.0  0.68552  0.88544  0.41034  1.0000
  H   H4823     1.0  0.72135  0.89697  0.47154  1.0000
  C   C6038     1.0  0.51035  0.78336  0.00101  1.0000
  C   C6039     1.0  0.54928  0.76605  0.99827  1.0000
  H   H4824     1.0  0.64809  0.96282  0.44227  1.0000
  C   C6040     1.0  0.50571  0.87597  0.07619  1.0000
  H   H4825     1.0  0.55410  0.88526  0.30667  1.0000
  H   H4826     1.0  0.60366  0.81176  0.98853  1.0000
  H   H4827     1.0  0.58430  0.77140  0.00238  1.0000
  C   C6041     1.0  0.52055  0.97612  0.28282  1.0000
  C   C6042     1.0  0.58472  0.84413  0.05282  1.0000
  P   P210      1.0  0.50530  0.81063  0.99179  1.0000
  H   H4828     1.0  0.61715  0.95281  0.22111  1.0000
  H   H4829     1.0  0.52718  0.87544  0.98732  1.0000
  H   H4830     1.0  0.49547  0.97516  0.08245  1.0000
  C   C6043     1.0  0.50219  0.87566  0.26413  1.0000
  H   H4831     1.0  0.58360  0.93617  0.43398  1.0000
  C   C6044     1.0  0.54862  0.77026  0.01965  1.0000
  C   C6045     1.0  0.51436  0.93104  0.07141  1.0000
  C   C6046     1.0  0.58990  0.97268  0.12448  1.0000
  C   C6047     1.0  0.59977  0.94455  0.22688  1.0000
  C   C6048     1.0  0.71481  0.89438  0.38072  1.0000
  C   C6049     1.0  0.64781  0.97508  0.37595  1.0000
  C   C6050     1.0  0.54731  0.76201  0.01215  1.0000
  H   H4832     1.0  0.52326  0.95135  0.28027  1.0000
  C   C6051     1.0  0.69683  0.84018  0.41825  1.0000
  H   H4833     1.0  0.72400  0.92933  0.38164  1.0000
  H   H4834     1.0  0.49326  0.75966  0.00587  1.0000
  C   C6052     1.0  0.54450  0.88596  0.30497  1.0000
  H   H4835     1.0  0.50810  0.97017  0.10747  1.0000
  C   C6053     1.0  0.49629  0.84436  0.03178  1.0000
  H   H4836     1.0  0.54434  0.78176  0.05929  1.0000
  H   H4837     1.0  0.49094  0.96279  0.14749  1.0000
  C   C6054     1.0  0.49549  0.81306  0.03090  1.0000
  H   H4838     1.0  0.68746  0.95644  0.37106  1.0000
  C   C6055     1.0  0.69007  0.96012  0.46855  1.0000
  H   H4839     1.0  0.58095  0.81165  0.98844  1.0000
  C   C6056     1.0  0.57465  0.95419  0.24571  1.0000
  C   C6057     1.0  0.49248  0.82445  0.98628  1.0000
  H   H4840     1.0  0.57054  0.95920  0.42848  1.0000
  C   C6058     1.0  0.55163  0.77880  0.99208  1.0000
  C   C6059     1.0  0.69830  0.91874  0.40495  1.0000
  C   C6060     1.0  0.49856  0.93054  0.16398  1.0000
  H   H4841     1.0  0.70583  0.94571  0.41706  1.0000
  C   C6061     1.0  0.58778  0.94454  0.43299  1.0000
  P   P211      1.0  0.50160  0.95227  0.17148  1.0000
  C   C6062     1.0  0.50310  0.94124  0.18751  1.0000
  C   C6063     1.0  0.51668  0.95804  0.16285  1.0000
  C   C6064     1.0  0.52325  0.96259  0.16971  1.0000
  H   H4842     1.0  0.51588  0.94142  0.05088  1.0000
  H   H4843     1.0  0.49650  0.95977  0.20709  1.0000
  H   H4844     1.0  0.64772  0.98265  0.34479  1.0000
  C   C6065     1.0  0.52198  0.95813  0.14924  1.0000
  C   C6066     1.0  0.48972  0.89773  0.08659  1.0000
  C   C6067     1.0  0.66405  0.90313  0.46643  1.0000
  C   C6068     1.0  0.50452  0.92644  0.21343  1.0000
  C   C6069     1.0  0.51591  0.92940  0.20432  1.0000
  C   C6070     1.0  0.51529  0.93652  0.19133  1.0000
  C   C6071     1.0  0.59351  0.97505  0.24791  1.0000
  C   C6072     1.0  0.57921  0.82073  0.05148  1.0000
  C   C6073     1.0  0.57979  0.87913  0.32693  1.0000
  H   H4845     1.0  0.54239  0.91011  0.27510  1.0000
  H   H4846     1.0  0.50231  0.86814  0.25914  1.0000
  H   H4847     1.0  0.50128  0.85202  0.16627  1.0000
  H   H4848     1.0  0.54630  0.93123  0.26073  1.0000
  H   H4849     1.0  0.69847  0.96702  0.40153  1.0000
  H   H4850     1.0  0.72811  0.90677  0.36824  1.0000
  H   H4851     1.0  0.50232  0.92432  0.17257  1.0000
  C   C6074     1.0  0.64342  0.96568  0.43392  1.0000
  H   H4852     1.0  0.69833  0.95235  0.47121  1.0000
  H   H4853     1.0  0.57239  0.95731  0.22566  1.0000
  C   C6075     1.0  0.49111  0.85972  0.20616  1.0000
  C   C6076     1.0  0.72714  0.96347  0.47376  1.0000
  C   C6077     1.0  0.59963  0.94137  0.25441  1.0000
  H   H4854     1.0  0.54249  0.85158  0.10417  1.0000
  C   C6078     1.0  0.73254  0.88587  0.45673  1.0000
  H   H4855     1.0  0.50515  0.92056  0.22333  1.0000
  H   H4856     1.0  0.52527  0.92603  0.20732  1.0000
  H   H4857     1.0  0.52437  0.93831  0.18446  1.0000
  C   C6079     1.0  0.51863  0.80743  0.01185  1.0000
  C   C6080     1.0  0.51383  0.96081  0.21253  1.0000
  C   C6081     1.0  0.53357  0.96265  0.14270  1.0000
  C   C6082     1.0  0.61164  0.93237  0.20510  1.0000
  C   C6083     1.0  0.55416  0.95605  0.26250  1.0000
  C   C6084     1.0  0.54763  0.97255  0.29981  1.0000
  H   H4858     1.0  0.50881  0.96176  0.26413  1.0000
  H   H4859     1.0  0.57164  0.84231  0.07194  1.0000
  C   C6085     1.0  0.51053  0.77347  0.03504  1.0000
  H   H4860     1.0  0.49104  0.95533  0.34631  1.0000
  C   C6086     1.0  0.54121  0.97267  0.31307  1.0000
  H   H4861     1.0  0.48683  0.91134  0.24451  1.0000
  C   C6087     1.0  0.54312  0.97479  0.34608  1.0000
  H   H4862     1.0  0.53454  0.88535  0.32548  1.0000
  C   C6088     1.0  0.72191  0.89528  0.46188  1.0000
  H   H4863     1.0  0.54907  0.95586  0.27280  1.0000
  C   C6089     1.0  0.71087  0.96438  0.32863  1.0000
  C   C6090     1.0  0.63361  0.98120  0.46738  1.0000
  C   C6091     1.0  0.59968  0.92987  0.21332  1.0000
  C   C6092     1.0  0.55475  0.97890  0.20027  1.0000
  C   C6093     1.0  0.54995  0.97051  0.36696  1.0000
  C   C6094     1.0  0.56070  0.96070  0.36277  1.0000
  C   C6095     1.0  0.56262  0.95787  0.35032  1.0000
  C   C6096     1.0  0.55392  0.96493  0.34199  1.0000
  C   C6097     1.0  0.51839  0.97486  0.33945  1.0000
  C   C6098     1.0  0.51633  0.96512  0.35123  1.0000
  C   C6099     1.0  0.50642  0.95816  0.35375  1.0000
  C   C6100     1.0  0.59281  0.97943  0.16093  1.0000
  H   H4864     1.0  0.58483  0.93323  0.23078  1.0000
  C   C6101     1.0  0.71392  0.85322  0.39717  1.0000
  H   H4865     1.0  0.54949  0.96364  0.29611  1.0000
  H   H4866     1.0  0.48796  0.92772  0.13796  1.0000
  H   H4867     1.0  0.59777  0.97205  0.21607  1.0000
  H   H4868     1.0  0.54881  0.97091  0.14455  1.0000
  H   H4869     1.0  0.53800  0.96386  0.31941  1.0000
  S   S811      1.0  0.54980  0.75516  0.98833  1.0000
  C   C6102     1.0  0.56556  0.80527  0.10268  1.0000
  C   C6103     1.0  0.72771  0.97023  0.45012  1.0000
  C   C6104     1.0  0.61605  0.93506  0.26783  1.0000
  C   C6105     1.0  0.60059  0.94234  0.43469  1.0000
  H   H4870     1.0  0.53980  0.97038  0.16869  1.0000
  C   C6106     1.0  0.55615  0.80634  0.07165  1.0000
  H   H4871     1.0  0.56765  0.95537  0.36905  1.0000
  H   H4872     1.0  0.57103  0.95037  0.34697  1.0000
  H   H4873     1.0  0.55583  0.96279  0.33228  1.0000
  H   H4874     1.0  0.52242  0.96276  0.35839  1.0000
  H   H4875     1.0  0.50490  0.95059  0.36279  1.0000
  C   C6107     1.0  0.58045  0.95749  0.42988  1.0000
  H   H4876     1.0  0.52934  0.96176  0.22084  1.0000
  C   C6108     1.0  0.69219  0.96066  0.38737  1.0000
  C   C6109     1.0  0.51224  0.95777  0.23615  1.0000
  C   C6110     1.0  0.51041  0.97756  0.33030  1.0000
  H   H4877     1.0  0.62763  0.89885  0.10831  1.0000
  H   H4878     1.0  0.53689  0.94067  0.24058  1.0000
  H   H4879     1.0  0.71235  0.92569  0.43364  1.0000
  H   H4880     1.0  0.48649  0.81530  0.03821  1.0000
  H   H4881     1.0  0.59225  0.78810  0.11585  1.0000
  C   C6111     1.0  0.51130  0.88383  0.08050  1.0000
  H   H4882     1.0  0.53404  0.93614  0.34438  1.0000
  C   C6112     1.0  0.52649  0.92517  0.24447  1.0000
  H   H4883     1.0  0.55326  0.91967  0.35124  1.0000
  C   C6113     1.0  0.55108  0.83675  0.09232  1.0000
  C   C6114     1.0  0.50216  0.79434  0.99447  1.0000
  C   C6115     1.0  0.54893  0.82976  0.08410  1.0000
  H   H4884     1.0  0.51249  0.88725  0.32144  1.0000
  C   C6116     1.0  0.73532  0.89461  0.38551  1.0000
  H   H4885     1.0  0.53867  0.86196  0.28008  1.0000
  C   C6117     1.0  0.55263  0.78716  0.99962  1.0000
  H   H4886     1.0  0.65948  0.90038  0.43871  1.0000
  C   C6118     1.0  0.52050  0.92324  0.35422  1.0000
  H   H4887     1.0  0.68247  0.90265  0.38352  1.0000
  H   H4888     1.0  0.59670  0.84406  0.03303  1.0000
  C   C6119     1.0  0.49210  0.95212  0.14991  1.0000
  C   C6120     1.0  0.69265  0.92716  0.38330  1.0000
  C   C6121     1.0  0.61172  0.93314  0.10252  1.0000
  C   C6122     1.0  0.51919  0.80668  0.02493  1.0000
  H   H4889     1.0  0.55188  0.88698  0.28404  1.0000
  C   C6123     1.0  0.54998  0.98097  0.05025  1.0000
  C   C6124     1.0  0.54562  0.86570  0.27129  1.0000
  H   H4890     1.0  0.51682  0.95753  0.24392  1.0000
  H   H4891     1.0  0.52870  0.97031  0.28741  1.0000
  H   H4892     1.0  0.50596  0.91751  0.29352  1.0000
  C   C6125     1.0  0.56397  0.87513  0.24893  1.0000
  C   C6126     1.0  0.71982  0.96388  0.34717  1.0000
  C   C6127     1.0  0.62464  0.93198  0.10363  1.0000
  H   H4893     1.0  0.58572  0.93670  0.05649  1.0000
  C   C6128     1.0  0.53772  0.91418  0.26672  1.0000
  C   C6129     1.0  0.59731  0.97626  0.22428  1.0000
  C   C6130     1.0  0.51710  0.95827  0.09283  1.0000
  C   C6131     1.0  0.57610  0.83782  0.06344  1.0000
  C   C6132     1.0  0.52585  0.84127  0.08778  1.0000
  C   C6133     1.0  0.53070  0.88843  0.28959  1.0000
  H   H4894     1.0  0.60350  0.79336  0.09200  1.0000
  C   C6134     1.0  0.53283  0.92649  0.35059  1.0000
  H   H4895     1.0  0.50963  0.90789  0.36376  1.0000
  C   C6135     1.0  0.53451  0.93169  0.24733  1.0000
  C   C6136     1.0  0.52444  0.91290  0.25249  1.0000
  H   H4896     1.0  0.60898  0.96601  0.18637  1.0000
  C   C6137     1.0  0.58560  0.80400  0.08539  1.0000
  C   C6138     1.0  0.50711  0.77094  0.00515  1.0000
  H   H4897     1.0  0.55893  0.97596  0.06720  1.0000
  H   H4898     1.0  0.53641  0.95966  0.25545  1.0000
  H   H4899     1.0  0.52184  0.88144  0.07992  1.0000
  H   H4900     1.0  0.65076  0.96613  0.40097  1.0000
  C   C6139     1.0  0.49090  0.87064  0.17168  1.0000
  H   H4901     1.0  0.57754  0.91658  0.05870  1.0000
  H   H4902     1.0  0.51002  0.88889  0.29899  1.0000
  C   C6140     1.0  0.71225  0.88480  0.39254  1.0000
  H   H4903     1.0  0.58764  0.92712  0.25817  1.0000
  C   C6141     1.0  0.69665  0.96945  0.39162  1.0000
  C   C6142     1.0  0.53996  0.96718  0.14965  1.0000
  C   C6143     1.0  0.50686  0.92694  0.28671  1.0000
  H   H4904     1.0  0.57121  0.87884  0.24042  1.0000
  H   H4905     1.0  0.59525  0.94627  0.09450  1.0000
  C   C6144     1.0  0.68485  0.87501  0.36570  1.0000
  H   H4906     1.0  0.50007  0.97859  0.17629  1.0000
  C   C6145     1.0  0.60619  0.95306  0.43317  1.0000
  C   C6146     1.0  0.58167  0.90729  0.38491  1.0000
  C   C6147     1.0  0.54339  0.87927  0.26523  1.0000
  C   C6148     1.0  0.67733  0.89790  0.36773  1.0000
  C   C6149     1.0  0.68017  0.97199  0.34624  1.0000
  C   C6150     1.0  0.59295  0.97828  0.13331  1.0000
  H   H4907     1.0  0.65097  0.95939  0.34335  1.0000
  C   C6151     1.0  0.60528  0.94505  0.09532  1.0000
  C   C6152     1.0  0.57543  0.93755  0.05690  1.0000
  C   C6153     1.0  0.72636  0.89916  0.37720  1.0000
  C   C6154     1.0  0.57289  0.79798  0.11226  1.0000
  H   H4908     1.0  0.63284  0.93590  0.34327  1.0000
  H   H4909     1.0  0.56283  0.87178  0.32825  1.0000
  C   C6155     1.0  0.51943  0.96024  0.22299  1.0000
  H   H4910     1.0  0.69019  0.83513  0.42639  1.0000
  C   C6156     1.0  0.63102  0.94251  0.09751  1.0000
  C   C6157     1.0  0.71098  0.92123  0.39943  1.0000
  C   C6158     1.0  0.49371  0.84966  0.00547  1.0000
  H   H4911     1.0  0.70224  0.97268  0.45432  1.0000
  C   C6159     1.0  0.69325  0.97531  0.36539  1.0000
  H   H4912     1.0  0.55053  0.87874  0.34933  1.0000
  C   C6160     1.0  0.59290  0.79670  0.09499  1.0000
  C   C6161     1.0  0.48888  0.94614  0.14157  1.0000
  H   H4913     1.0  0.65665  0.96697  0.47524  1.0000
  H   H4914     1.0  0.64097  0.94157  0.09842  1.0000
  C   C6162     1.0  0.57084  0.92625  0.05816  1.0000
  H   H4915     1.0  0.55886  0.84430  0.38634  1.0000
  H   H4916     1.0  0.51610  0.84312  0.08593  1.0000
  H   H4917     1.0  0.50809  0.80917  0.04452  1.0000
  C   C6163     1.0  0.56602  0.88688  0.35096  1.0000
  C   C6164     1.0  0.58598  0.96825  0.42841  1.0000
  C   C6165     1.0  0.49534  0.92459  0.15559  1.0000
  C   C6166     1.0  0.50904  0.75312  0.05164  1.0000
  C   C6167     1.0  0.58767  0.82718  0.04079  1.0000
  H   H4918     1.0  0.62002  0.95157  0.35783  1.0000
  C   C6168     1.0  0.54372  0.91710  0.35443  1.0000
  C   C6169     1.0  0.53000  0.90112  0.36533  1.0000
  C   C6170     1.0  0.55264  0.88393  0.25396  1.0000
  C   C6171     1.0  0.53994  0.92631  0.25855  1.0000
  H   H4919     1.0  0.72058  0.85811  0.38891  1.0000
  H   H4920     1.0  0.69610  0.86191  0.37966  1.0000
  P   P212      1.0  0.56236  0.81766  0.07682  1.0000
  C   C6172     1.0  0.51572  0.93372  0.28758  1.0000
  H   H4921     1.0  0.57058  0.95848  0.05542  1.0000
  C   C6173     1.0  0.53348  0.88604  0.31553  1.0000
  S   S812      1.0  0.72279  0.91549  0.40936  1.0000
  C   C6174     1.0  0.68957  0.88924  0.41982  1.0000
  C   C6175     1.0  0.56671  0.94997  0.05634  1.0000
  C   C6176     1.0  0.61178  0.95544  0.08897  1.0000
  C   C6177     1.0  0.50184  0.89547  0.27648  1.0000
  C   C6178     1.0  0.63518  0.96508  0.32070  1.0000
  C   C6179     1.0  0.59038  0.83891  0.04143  1.0000
  H   H4922     1.0  0.52017  0.85558  0.10018  1.0000
  H   H4923     1.0  0.57740  0.81158  0.05077  1.0000
  H   H4924     1.0  0.53427  0.82706  0.07547  1.0000
  C   C6180     1.0  0.62425  0.95533  0.34745  1.0000
  C   C6181     1.0  0.63152  0.94652  0.33925  1.0000
  C   C6182     1.0  0.56725  0.87659  0.33297  1.0000
  C   C6183     1.0  0.56034  0.88054  0.34489  1.0000
  C   C6184     1.0  0.54238  0.90441  0.36202  1.0000
  H   H4925     1.0  0.52877  0.89122  0.37054  1.0000
  C   C6185     1.0  0.50100  0.95903  0.21520  1.0000
  C   C6186     1.0  0.53013  0.90726  0.26364  1.0000
  H   H4926     1.0  0.67254  0.94379  0.34485  1.0000
  C   C6187     1.0  0.69092  0.87200  0.37646  1.0000
  C   C6188     1.0  0.62461  0.95422  0.09013  1.0000
  H   H4927     1.0  0.60387  0.97757  0.40194  1.0000
  H   H4928     1.0  0.60676  0.96449  0.08323  1.0000
  C   C6189     1.0  0.54316  0.88701  0.29209  1.0000
  H   H4929     1.0  0.51940  0.96280  0.20236  1.0000
  H   H4930     1.0  0.48987  0.93959  0.09737  1.0000
  C   C6190     1.0  0.55756  0.92737  0.05872  1.0000
  H   H4931     1.0  0.62957  0.96235  0.08532  1.0000
  H   H4932     1.0  0.69033  0.95142  0.39409  1.0000
  C   C6191     1.0  0.62242  0.96902  0.34232  1.0000
  C   C6192     1.0  0.63704  0.95139  0.32590  1.0000
  H   H4933     1.0  0.50851  0.97259  0.02135  1.0000
  H   H4934     1.0  0.64258  0.94451  0.31955  1.0000
  H   H4935     1.0  0.55460  0.79686  0.99473  1.0000
  H   H4936     1.0  0.58504  0.87632  0.31755  1.0000
  P   P213      1.0  0.52922  0.89053  0.27265  1.0000
  H   H4937     1.0  0.55133  0.89432  0.24908  1.0000
  C   C6193     1.0  0.54074  0.84603  0.09805  1.0000
  H   H4938     1.0  0.59633  0.88955  0.38192  1.0000
  H   H4939     1.0  0.59068  0.80613  0.07502  1.0000
  C   C6194     1.0  0.50707  0.93068  0.08448  1.0000
  H   H4940     1.0  0.62686  0.97555  0.40381  1.0000
  H   H4941     1.0  0.66544  0.97921  0.37793  1.0000
  C   C6195     1.0  0.65737  0.97608  0.34462  1.0000
  H   H4942     1.0  0.55407  0.91857  0.05960  1.0000
  C   C6196     1.0  0.58652  0.89521  0.38094  1.0000
  H   H4943     1.0  0.56536  0.86304  0.36867  1.0000
  C   C6197     1.0  0.50685  0.84717  0.02126  1.0000
  C   C6198     1.0  0.66653  0.96851  0.47067  1.0000
  C   C6199     1.0  0.55142  0.81042  0.05987  1.0000
  C   C6200     1.0  0.57887  0.75316  0.01338  1.0000
  H   H4944     1.0  0.51378  0.74344  0.05659  1.0000
  C   C6201     1.0  0.67133  0.95418  0.34471  1.0000
  C   C6202     1.0  0.55327  0.95120  0.05708  1.0000
  C   C6203     1.0  0.63475  0.98035  0.37469  1.0000
  C   C6204     1.0  0.51406  0.87778  0.26504  1.0000
  C   C6205     1.0  0.59545  0.92950  0.26090  1.0000
  H   H4945     1.0  0.70792  0.93438  0.36734  1.0000
  C   C6206     1.0  0.55370  0.95842  0.23948  1.0000
  P   P214      1.0  0.55673  0.89210  0.36620  1.0000
  H   H4946     1.0  0.55190  0.91627  0.37657  1.0000
  H   H4947     1.0  0.53861  0.89037  0.39215  1.0000
  C   C6207     1.0  0.52109  0.88712  0.31324  1.0000
  C   C6208     1.0  0.61790  0.94066  0.20795  1.0000
  C   C6209     1.0  0.69335  0.85395  0.41374  1.0000
  C   C6210     1.0  0.49910  0.93239  0.27721  1.0000
  C   C6211     1.0  0.65093  0.96396  0.42137  1.0000
  C   C6212     1.0  0.49676  0.77742  0.03777  1.0000
  C   C6213     1.0  0.50580  0.84919  0.00812  1.0000
  H   H4948     1.0  0.52857  0.80378  0.02775  1.0000
  C   C6214     1.0  0.72286  0.95667  0.32317  1.0000
  H   H4949     1.0  0.53302  0.98268  0.26410  1.0000
  C   C6215     1.0  0.49129  0.86392  0.21732  1.0000
  C   C6216     1.0  0.62774  0.97403  0.32884  1.0000
  C   C6217     1.0  0.51444  0.96970  0.09772  1.0000
  C   C6218     1.0  0.57189  0.80852  0.08919  1.0000
  H   H4950     1.0  0.57330  0.95270  0.26660  1.0000
  C   C6219     1.0  0.63132  0.97297  0.41231  1.0000
  H   H4951     1.0  0.54594  0.95676  0.03240  1.0000
  C   C6220     1.0  0.54884  0.93977  0.05810  1.0000
  C   C6221     1.0  0.50003  0.94478  0.26851  1.0000
  C   C6222     1.0  0.61160  0.92342  0.27448  1.0000
  C   C6223     1.0  0.58540  0.88567  0.33275  1.0000
  C   C6224     1.0  0.55207  0.87814  0.37889  1.0000
  C   C6225     1.0  0.56152  0.91027  0.37770  1.0000
  H   H4952     1.0  0.52765  0.94833  0.07710  1.0000
  C   C6226     1.0  0.49950  0.95548  0.23901  1.0000
  H   H4953     1.0  0.59199  0.82318  0.03191  1.0000
  H   H4954     1.0  0.56796  0.79562  0.12266  1.0000
  C   C6227     1.0  0.58513  0.74584  0.98894  1.0000
  H   H4955     1.0  0.50408  0.97832  0.13132  1.0000
  H   H4956     1.0  0.63926  0.96869  0.31026  1.0000
  C   C6228     1.0  0.57854  0.88959  0.34468  1.0000
  C   C6229     1.0  0.56645  0.89827  0.37338  1.0000
  C   C6230     1.0  0.53939  0.86964  0.40077  1.0000
  H   H4957     1.0  0.53228  0.87141  0.40984  1.0000
  C   C6231     1.0  0.51397  0.88750  0.27153  1.0000
  P   P215      1.0  0.54176  0.96720  0.05626  1.0000
  H   H4958     1.0  0.59500  0.92316  0.21133  1.0000
  C   C6232     1.0  0.67801  0.88795  0.36137  1.0000
  C   C6233     1.0  0.66677  0.89609  0.43092  1.0000
  C   C6234     1.0  0.49358  0.84121  0.07694  1.0000
  H   H4959     1.0  0.65618  0.90540  0.46120  1.0000
  C   C6235     1.0  0.50852  0.95182  0.26997  1.0000
  H   H4960     1.0  0.52186  0.92940  0.29483  1.0000
  C   C6236     1.0  0.49122  0.95041  0.07677  1.0000
  C   C6237     1.0  0.49000  0.89327  0.27565  1.0000
  C   C6238     1.0  0.72905  0.96021  0.46152  1.0000
  C   C6239     1.0  0.62369  0.97462  0.42495  1.0000
  C   C6240     1.0  0.56916  0.91479  0.38336  1.0000
  C   C6241     1.0  0.55793  0.86506  0.37745  1.0000
  H   H4961     1.0  0.59495  0.88801  0.32784  1.0000
  H   H4962     1.0  0.56552  0.92426  0.38623  1.0000
  H   H4963     1.0  0.67943  0.91957  0.40124  1.0000
  C   C6242     1.0  0.53590  0.96250  0.03440  1.0000
  C   C6243     1.0  0.58025  0.73728  0.00066  1.0000
  C   C6244     1.0  0.60459  0.97346  0.17875  1.0000
  H   H4964     1.0  0.53866  0.94041  0.05831  1.0000
  H   H4965     1.0  0.66855  0.88382  0.40439  1.0000
  H   H4966     1.0  0.53138  0.95910  0.01743  1.0000
  C   C6245     1.0  0.62266  0.97836  0.47738  1.0000
  C   C6246     1.0  0.69057  0.96353  0.37428  1.0000
  C   C6247     1.0  0.61206  0.94662  0.21887  1.0000
  C   C6248     1.0  0.70191  0.86058  0.40322  1.0000
  C   C6249     1.0  0.57311  0.82614  0.06282  1.0000
  H   H4967     1.0  0.55129  0.82035  0.05390  1.0000
  C   C6250     1.0  0.52555  0.95743  0.08040  1.0000
  C   C6251     1.0  0.57887  0.89061  0.37538  1.0000
  C   C6252     1.0  0.54504  0.85665  0.39915  1.0000
  C   C6253     1.0  0.55435  0.85437  0.38752  1.0000
  H   H4968     1.0  0.58297  0.89497  0.34874  1.0000
  H   H4969     1.0  0.58277  0.88121  0.37237  1.0000
  H   H4970     1.0  0.61617  0.92764  0.19672  1.0000
  C   C6254     1.0  0.68911  0.92175  0.39694  1.0000
  C   C6255     1.0  0.68176  0.95864  0.34600  1.0000
  C   C6256     1.0  0.53482  0.96706  0.16317  1.0000
  C   C6257     1.0  0.56741  0.95662  0.23598  1.0000
  H   H4971     1.0  0.72973  0.96753  0.44061  1.0000
  C   C6258     1.0  0.55160  0.78274  0.01339  1.0000
  H   H4972     1.0  0.67204  0.90796  0.36439  1.0000
  H   H4973     1.0  0.52324  0.87196  0.26044  1.0000
  H   H4974     1.0  0.73196  0.94992  0.46074  1.0000
  C   C6259     1.0  0.49486  0.81408  0.01781  1.0000
  C   C6260     1.0  0.53115  0.96851  0.04541  1.0000
  S   S813      1.0  0.52081  0.73850  0.99921  1.0000
  C   C6261     1.0  0.70924  0.96805  0.34069  1.0000
  C   C6262     1.0  0.69231  0.97160  0.45905  1.0000
  C   C6263     1.0  0.52771  0.96389  0.02583  1.0000
  C   C6264     1.0  0.64488  0.96761  0.41061  1.0000
  C   C6265     1.0  0.66268  0.89219  0.42163  1.0000
  C   C6266     1.0  0.49529  0.75707  0.05448  1.0000
  H   H4975     1.0  0.48966  0.75030  0.06166  1.0000
  H   H4976     1.0  0.59113  0.96978  0.25815  1.0000
  C   C6267     1.0  0.55624  0.79331  0.07914  1.0000
  C   C6268     1.0  0.68327  0.89489  0.37855  1.0000
  C   C6269     1.0  0.53136  0.96806  0.07267  1.0000
  H   H4977     1.0  0.65223  0.89347  0.42228  1.0000
  C   C6270     1.0  0.70884  0.83294  0.41225  1.0000
  H   H4978     1.0  0.69091  0.95153  0.34719  1.0000
  C   C6271     1.0  0.67199  0.88682  0.41143  1.0000
  C   C6272     1.0  0.59117  0.98145  0.45356  1.0000
  H   H4979     1.0  0.51331  0.76261  0.01053  1.0000
  H   H4980     1.0  0.70281  0.96736  0.32353  1.0000
  C   C6273     1.0  0.59490  0.96893  0.23746  1.0000
  H   H4981     1.0  0.52549  0.82581  0.98736  1.0000
  H   H4982     1.0  0.49731  0.84217  0.04194  1.0000
  C   C6274     1.0  0.58641  0.79335  0.98181  1.0000
  H   H4983     1.0  0.62212  0.79320  0.98236  1.0000
  C   C6275     1.0  0.51024  0.94116  0.06102  1.0000
  C   C6276     1.0  0.59513  0.97599  0.11080  1.0000
  C   C6277     1.0  0.48904  0.76937  0.04772  1.0000
  H   H4984     1.0  0.49964  0.85934  0.19796  1.0000
  H   H4985     1.0  0.69988  0.88835  0.41927  1.0000
  H   H4986     1.0  0.71152  0.82228  0.41574  1.0000
  H   H4987     1.0  0.49222  0.92695  0.27690  1.0000
  H   H4988     1.0  0.71969  0.87275  0.40990  1.0000
  C   C6278     1.0  0.52839  0.97965  0.07758  1.0000
  P   P216      1.0  0.58473  0.97498  0.15071  1.0000
  H   H4989     1.0  0.58022  0.97825  0.42593  1.0000
  C   C6279     1.0  0.72145  0.88010  0.40073  1.0000
  H   H4990     1.0  0.51467  0.98144  0.05550  1.0000
  C   C6280     1.0  0.49178  0.93776  0.19662  1.0000
  C   C6281     1.0  0.72354  0.88991  0.43732  1.0000
  C   C6282     1.0  0.51832  0.97638  0.04736  1.0000
  C   C6283     1.0  0.58313  0.98112  0.28979  1.0000
  H   H4991     1.0  0.72401  0.95376  0.31393  1.0000
  H   H4992     1.0  0.58055  0.98182  0.47379  1.0000
  C   C6284     1.0  0.50767  0.97652  0.29028  1.0000
  C   C6285     1.0  0.51017  0.97784  0.03873  1.0000
  C   C6286     1.0  0.49028  0.97761  0.17688  1.0000
  H   H4993     1.0  0.60865  0.98055  0.28794  1.0000
  H   H4994     1.0  0.56393  0.97923  0.17393  1.0000
  P   P217      1.0  0.60599  0.98014  0.42770  1.0000
  C   C6287     1.0  0.61215  0.79317  0.98226  1.0000
  H   H4995     1.0  0.61214  0.74429  0.98175  1.0000
  H   H4996     1.0  0.57640  0.79357  0.98167  1.0000
  H   H4997     1.0  0.55292  0.78214  0.98138  1.0000
  C   C6288     1.0  0.55760  0.98289  0.05792  1.0000
  Fe  Fe404     1.0  0.54774  0.82313  0.91461  1.0000
  S   S814      1.0  0.55325  0.83804  0.92178  1.0000
  S   S815      1.0  0.53018  0.81417  0.92463  1.0000
  Fe  Fe405     1.0  0.56990  0.82337  0.89030  1.0000
  S   S816      1.0  0.57742  0.83872  0.89485  1.0000
  S   S817      1.0  0.58049  0.81488  0.87224  1.0000
  Fe  Fe406     1.0  0.57400  0.82678  0.91592  1.0000
  S   S818      1.0  0.59038  0.82126  0.92691  1.0000
  Fe  Fe407     1.0  0.55615  0.84890  0.90026  1.0000
  S   S819      1.0  0.54666  0.87075  0.89535  1.0000
  S   S820      1.0  0.56819  0.81064  0.91084  1.0000
  S   S821      1.0  0.54894  0.83473  0.89356  1.0000
  Fe  Fe408     1.0  0.57162  0.93356  0.80425  1.0000
  S   S822      1.0  0.57556  0.94133  0.81991  1.0000
  S   S823      1.0  0.58669  0.93291  0.78489  1.0000
  Fe  Fe409     1.0  0.54567  0.92777  0.82128  1.0000
  S   S824      1.0  0.54702  0.93540  0.83817  1.0000
  S   S825      1.0  0.52918  0.91815  0.82296  1.0000
  Fe  Fe410     1.0  0.55434  0.95206  0.82223  1.0000
  S   S826      1.0  0.54637  0.97312  0.82543  1.0000
  Fe  Fe411     1.0  0.56798  0.92405  0.83450  1.0000
  S   S827      1.0  0.57781  0.91096  0.85116  1.0000
  S   S828      1.0  0.55088  0.94546  0.80556  1.0000
  S   S829      1.0  0.56617  0.91527  0.81860  1.0000
  Fe  Fe412     1.0  0.52761  0.94240  0.58989  1.0000
  S   S830      1.0  0.52919  0.95565  0.60188  1.0000
  H   H4998     1.0  0.66839  0.89029  0.54530  1.0000
  Fe  Fe413     1.0  0.55660  0.92833  0.58781  1.0000
  S   S831      1.0  0.56016  0.94033  0.60006  1.0000
  S   S832      1.0  0.57432  0.91326  0.58017  1.0000
  Fe  Fe414     1.0  0.54058  0.93726  0.61320  1.0000
  S   S833      1.0  0.53399  0.93262  0.63568  1.0000
  Fe  Fe415     1.0  0.54848  0.95747  0.58769  1.0000
  C   C6289     1.0  0.57404  0.79320  0.94488  1.0000
  S   S834      1.0  0.53784  0.92375  0.60203  1.0000
  S   S835      1.0  0.54615  0.94573  0.57462  1.0000
  Fe  Fe416     1.0  0.62085  0.92591  0.51141  1.0000
  S   S836      1.0  0.63275  0.92527  0.52566  1.0000
  S   S837      1.0  0.60008  0.92278  0.51842  1.0000
  C   C6290     1.0  0.50518  0.84931  0.91544  1.0000
  H   H4999     1.0  0.60436  0.80277  0.88298  1.0000
  Fe  Fe417     1.0  0.65027  0.91711  0.51091  1.0000
  C   C6291     1.0  0.62269  0.87999  0.61006  1.0000
  Fe  Fe418     1.0  0.63556  0.94512  0.51314  1.0000
  S   S838      1.0  0.63144  0.96082  0.52471  1.0000
  S   S839      1.0  0.63810  0.91562  0.49769  1.0000
  S   S840      1.0  0.62259  0.94639  0.49965  1.0000
  C   C6292     1.0  0.49624  0.74841  0.87203  1.0000
  C   C6293     1.0  0.63198  0.74741  0.95073  1.0000
  S   S841      1.0  0.70562  0.92351  0.53553  1.0000
  C   C6294     1.0  0.49552  0.73679  0.94800  1.0000
  C   C6295     1.0  0.49388  0.90201  0.89350  1.0000
  Fe  Fe419     1.0  0.56565  0.92582  0.72302  1.0000
  S   S842      1.0  0.54494  0.93450  0.73233  1.0000
  S   S843      1.0  0.58139  0.91580  0.73484  1.0000
  Fe  Fe420     1.0  0.55966  0.93245  0.69529  1.0000
  S   S844      1.0  0.53838  0.94143  0.70279  1.0000
  S   S845      1.0  0.56934  0.93319  0.67351  1.0000
  Fe  Fe421     1.0  0.54617  0.95108  0.71410  1.0000
  C   C6296     1.0  0.51444  0.93007  0.82305  1.0000
  Fe  Fe422     1.0  0.53939  0.92399  0.71997  1.0000
  S   S846      1.0  0.52329  0.91258  0.72853  1.0000
  S   S847      1.0  0.56742  0.94312  0.70563  1.0000
  S   S848      1.0  0.56013  0.91415  0.71176  1.0000
  C   C6297     1.0  0.54537  0.89602  0.95508  1.0000
  H   H5000     1.0  0.56656  0.87470  0.95145  1.0000
  S   S849      1.0  0.57978  0.75798  0.86664  1.0000
  C   C6298     1.0  0.58261  0.86315  0.93984  1.0000
  C   C6299     1.0  0.58157  0.97524  0.72268  1.0000
  P   P218      1.0  0.59660  0.75929  0.91070  1.0000
  H   H5001     1.0  0.48938  0.90613  0.56689  1.0000
  C   C6300     1.0  0.50084  0.94816  0.65981  1.0000
  C   C6301     1.0  0.49995  0.77737  0.92614  1.0000
  H   H5002     1.0  0.51261  0.95684  0.63295  1.0000
  H   H5003     1.0  0.50988  0.92234  0.76454  1.0000
  C   C6302     1.0  0.67853  0.90749  0.52099  1.0000
  C   C6303     1.0  0.67372  0.91884  0.52631  1.0000
  C   C6304     1.0  0.68221  0.92373  0.53057  1.0000
  C   C6305     1.0  0.69556  0.91740  0.52942  1.0000
  C   C6306     1.0  0.70044  0.90615  0.52390  1.0000
  C   C6307     1.0  0.69188  0.90111  0.51983  1.0000
  H   H5004     1.0  0.66344  0.92381  0.52723  1.0000
  H   H5005     1.0  0.67846  0.93248  0.53471  1.0000
  H   H5006     1.0  0.71074  0.90123  0.52297  1.0000
  H   H5007     1.0  0.65309  0.94064  0.55091  1.0000
  H   H5008     1.0  0.67317  0.84348  0.57034  1.0000
  C   C6308     1.0  0.68247  0.85776  0.55483  1.0000
  H   H5009     1.0  0.62766  0.91435  0.55661  1.0000
  C   C6309     1.0  0.65724  0.98281  0.50047  1.0000
  C   C6310     1.0  0.51071  0.91177  0.64703  1.0000
  C   C6311     1.0  0.58165  0.91728  0.56307  1.0000
  C   C6312     1.0  0.59507  0.91196  0.55863  1.0000
  C   C6313     1.0  0.60098  0.91438  0.54497  1.0000
  C   C6314     1.0  0.59334  0.92148  0.53562  1.0000
  C   C6315     1.0  0.57994  0.92690  0.54005  1.0000
  C   C6316     1.0  0.57419  0.92508  0.55376  1.0000
  H   H5010     1.0  0.60088  0.90589  0.56576  1.0000
  H   H5011     1.0  0.61131  0.91026  0.54164  1.0000
  H   H5012     1.0  0.57395  0.93238  0.53288  1.0000
  H   H5013     1.0  0.56381  0.92912  0.55705  1.0000
  C   C6317     1.0  0.54413  0.93225  0.64612  1.0000
  C   C6318     1.0  0.55742  0.93272  0.64112  1.0000
  C   C6319     1.0  0.56507  0.93291  0.64968  1.0000
  C   C6320     1.0  0.55951  0.93261  0.66322  1.0000
  C   C6321     1.0  0.54629  0.93191  0.66826  1.0000
  C   C6322     1.0  0.53864  0.93168  0.65974  1.0000
  H   H5014     1.0  0.56178  0.93292  0.63068  1.0000
  H   H5015     1.0  0.57536  0.93312  0.64591  1.0000
  H   H5016     1.0  0.54198  0.93140  0.67875  1.0000
  H   H5017     1.0  0.52847  0.93098  0.66379  1.0000
  Fe  Fe423     1.0  0.53813  0.74251  0.87470  1.0000
  H   H5018     1.0  0.58938  0.86228  0.94598  1.0000
  C   C6323     1.0  0.65111  0.93077  0.55435  1.0000
  C   C6324     1.0  0.50800  0.93110  0.78770  1.0000
  H   H5019     1.0  0.49487  0.74913  0.92853  1.0000
  H   H5020     1.0  0.60703  0.82869  0.96127  1.0000
  H   H5021     1.0  0.52066  0.74188  0.96787  1.0000
  C   C6325     1.0  0.58399  0.92780  0.77176  1.0000
  C   C6326     1.0  0.57304  0.93404  0.76601  1.0000
  C   C6327     1.0  0.57201  0.93058  0.75459  1.0000
  C   C6328     1.0  0.58188  0.92074  0.74907  1.0000
  C   C6329     1.0  0.59272  0.91455  0.75493  1.0000
  C   C6330     1.0  0.59385  0.91817  0.76608  1.0000
  H   H5022     1.0  0.56557  0.94166  0.77024  1.0000
  H   H5023     1.0  0.56362  0.93540  0.75010  1.0000
  H   H5024     1.0  0.60043  0.90703  0.75069  1.0000
  H   H5025     1.0  0.60246  0.91351  0.77028  1.0000
  C   C6331     1.0  0.51765  0.96173  0.53029  1.0000
  C   C6332     1.0  0.48833  0.79871  0.90825  1.0000
  H   H5026     1.0  0.52328  0.94632  0.82101  1.0000
  C   C6333     1.0  0.52886  0.77264  0.96166  1.0000
  C   C6334     1.0  0.58810  0.82583  0.94208  1.0000
  C   C6335     1.0  0.60184  0.78347  0.89482  1.0000
  H   H5027     1.0  0.60902  0.82123  0.94083  1.0000
  C   C6336     1.0  0.55554  0.88145  0.88271  1.0000
  C   C6337     1.0  0.56914  0.87975  0.88109  1.0000
  C   C6338     1.0  0.57583  0.88901  0.87156  1.0000
  C   C6339     1.0  0.56906  0.89972  0.86328  1.0000
  C   C6340     1.0  0.55549  0.90129  0.86479  1.0000
  C   C6341     1.0  0.54871  0.89234  0.87467  1.0000
  H   H5028     1.0  0.57445  0.87148  0.88736  1.0000
  H   H5029     1.0  0.58632  0.88776  0.87045  1.0000
  H   H5030     1.0  0.55019  0.90949  0.85847  1.0000
  H   H5031     1.0  0.53817  0.89378  0.87596  1.0000
  C   C6342     1.0  0.57988  0.79885  0.87169  1.0000
  C   C6343     1.0  0.58924  0.79288  0.86192  1.0000
  C   C6344     1.0  0.58910  0.78031  0.86072  1.0000
  C   C6345     1.0  0.57944  0.77361  0.86911  1.0000
  C   C6346     1.0  0.56990  0.77956  0.87891  1.0000
  C   C6347     1.0  0.57018  0.79218  0.88025  1.0000
  H   H5032     1.0  0.59669  0.79800  0.85522  1.0000
  H   H5033     1.0  0.59646  0.77579  0.85314  1.0000
  H   H5034     1.0  0.56238  0.77444  0.88543  1.0000
  H   H5035     1.0  0.56276  0.79686  0.88767  1.0000
  C   C6348     1.0  0.61225  0.73956  0.87451  1.0000
  P   P219      1.0  0.52125  0.80460  0.85634  1.0000
  C   C6349     1.0  0.57447  0.83463  0.96133  1.0000
  C   C6350     1.0  0.57560  0.83066  0.94949  1.0000
  H   H5036     1.0  0.63178  0.93706  0.55004  1.0000
  C   C6351     1.0  0.52463  0.95448  0.55124  1.0000
  H   H5037     1.0  0.50949  0.92480  0.68600  1.0000
  C   C6352     1.0  0.59935  0.82492  0.94654  1.0000
  C   C6353     1.0  0.49991  0.88898  0.89885  1.0000
  C   C6354     1.0  0.51159  0.88649  0.90320  1.0000
  C   C6355     1.0  0.51728  0.89694  0.90229  1.0000
  H   H5038     1.0  0.49562  0.91273  0.73523  1.0000
  C   C6356     1.0  0.60432  0.79606  0.89266  1.0000
  C   C6357     1.0  0.52133  0.95141  0.54087  1.0000
  C   C6358     1.0  0.52705  0.78879  0.89418  1.0000
  C   C6359     1.0  0.52441  0.96759  0.55102  1.0000
  H   H5039     1.0  0.49562  0.88076  0.89959  1.0000
  H   H5040     1.0  0.51654  0.87641  0.90696  1.0000
  H   H5041     1.0  0.52658  0.89484  0.90523  1.0000
  H   H5042     1.0  0.66662  0.95608  0.57292  1.0000
  C   C6360     1.0  0.57261  0.97186  0.65746  1.0000
  H   H5043     1.0  0.51091  0.85957  0.83060  1.0000
  C   C6361     1.0  0.57881  0.76241  0.91536  1.0000
  C   C6362     1.0  0.54238  0.96736  0.63770  1.0000
  C   C6363     1.0  0.51719  0.90881  0.63461  1.0000
  C   C6364     1.0  0.55124  0.76756  0.92333  1.0000
  C   C6365     1.0  0.53555  0.96989  0.78343  1.0000
  C   C6366     1.0  0.57126  0.77529  0.91202  1.0000
  C   C6367     1.0  0.62500  0.75947  0.94448  1.0000
  H   H5044     1.0  0.54721  0.90733  0.96795  1.0000
  H   H5045     1.0  0.59592  0.96565  0.67537  1.0000
  H   H5046     1.0  0.48649  0.89291  0.66919  1.0000
  H   H5047     1.0  0.49709  0.89488  0.83184  1.0000
  H   H5048     1.0  0.59978  0.78067  0.88676  1.0000
  C   C6368     1.0  0.69507  0.97136  0.52254  1.0000
  H   H5049     1.0  0.57410  0.80290  0.93835  1.0000
  H   H5050     1.0  0.54059  0.76953  0.92622  1.0000
  H   H5051     1.0  0.52451  0.84256  0.91979  1.0000
  C   C6369     1.0  0.69003  0.96686  0.56650  1.0000
  H   H5052     1.0  0.69904  0.95908  0.49533  1.0000
  H   H5053     1.0  0.56000  0.78921  0.93660  1.0000
  Fe  Fe424     1.0  0.54073  0.74415  0.90152  1.0000
  S   S850      1.0  0.56219  0.73442  0.89816  1.0000
  C   C6370     1.0  0.52433  0.79055  0.88172  1.0000
  C   C6371     1.0  0.64552  0.91872  0.59232  1.0000
  C   C6372     1.0  0.64915  0.90764  0.60213  1.0000
  C   C6373     1.0  0.63949  0.90290  0.61272  1.0000
  C   C6374     1.0  0.62620  0.90918  0.61346  1.0000
  C   C6375     1.0  0.62243  0.92018  0.60350  1.0000
  C   C6376     1.0  0.63222  0.92492  0.59292  1.0000
  P   P220      1.0  0.60556  0.92955  0.60548  1.0000
  C   C6377     1.0  0.59435  0.91867  0.61442  1.0000
  C   C6378     1.0  0.60353  0.94147  0.61530  1.0000
  C   C6379     1.0  0.59101  0.94620  0.62274  1.0000
  C   C6380     1.0  0.58953  0.95420  0.63155  1.0000
  C   C6381     1.0  0.57487  0.98247  0.52131  1.0000
  C   C6382     1.0  0.61289  0.95374  0.62489  1.0000
  C   C6383     1.0  0.61446  0.94549  0.61626  1.0000
  C   C6384     1.0  0.58702  0.91493  0.60770  1.0000
  C   C6385     1.0  0.57781  0.90716  0.61480  1.0000
  C   C6386     1.0  0.57584  0.90305  0.62866  1.0000
  C   C6387     1.0  0.58318  0.90659  0.63542  1.0000
  C   C6388     1.0  0.59237  0.91438  0.62836  1.0000
  C   C6389     1.0  0.60166  0.93792  0.58943  1.0000
  C   C6390     1.0  0.60656  0.93159  0.57864  1.0000
  C   C6391     1.0  0.60311  0.93784  0.56637  1.0000
  C   C6392     1.0  0.57936  0.96236  0.72820  1.0000
  S   S851      1.0  0.65412  0.93699  0.49955  1.0000
  C   C6393     1.0  0.59319  0.95053  0.58777  1.0000
  H   H5054     1.0  0.65304  0.92262  0.58437  1.0000
  H   H5055     1.0  0.65947  0.90283  0.60163  1.0000
  H   H5056     1.0  0.64232  0.89443  0.62046  1.0000
  H   H5057     1.0  0.61896  0.90548  0.62191  1.0000
  H   H5058     1.0  0.62964  0.93359  0.58529  1.0000
  H   H5059     1.0  0.58241  0.94334  0.62209  1.0000
  H   H5060     1.0  0.57992  0.95713  0.63780  1.0000
  C   C6394     1.0  0.50161  0.97842  0.71146  1.0000
  P   P221      1.0  0.59317  0.76928  0.97407  1.0000
  H   H5061     1.0  0.62424  0.94204  0.61063  1.0000
  H   H5062     1.0  0.58816  0.91815  0.59702  1.0000
  H   H5063     1.0  0.57200  0.90456  0.60955  1.0000
  H   H5064     1.0  0.56843  0.89735  0.63418  1.0000
  H   H5065     1.0  0.58139  0.90368  0.64622  1.0000
  H   H5066     1.0  0.59767  0.91733  0.63388  1.0000
  H   H5067     1.0  0.61277  0.92170  0.57979  1.0000
  H   H5068     1.0  0.60669  0.93290  0.55809  1.0000
  H   H5069     1.0  0.61777  0.77470  0.97607  1.0000
  H   H5070     1.0  0.60214  0.77303  0.92784  1.0000
  H   H5071     1.0  0.58896  0.95553  0.59596  1.0000
  C   C6395     1.0  0.51787  0.82207  0.84814  1.0000
  C   C6396     1.0  0.52743  0.82736  0.83763  1.0000
  C   C6397     1.0  0.52486  0.84079  0.83125  1.0000
  C   C6398     1.0  0.62412  0.87982  0.56027  1.0000
  H   H5072     1.0  0.49840  0.87163  0.86013  1.0000
  C   C6399     1.0  0.67218  0.85379  0.56513  1.0000
  C   C6400     1.0  0.49177  0.97478  0.72251  1.0000
  C   C6401     1.0  0.64663  0.90497  0.56164  1.0000
  H   H5073     1.0  0.53694  0.82121  0.83437  1.0000
  H   H5074     1.0  0.53230  0.84473  0.82313  1.0000
  C   C6402     1.0  0.68105  0.87097  0.54781  1.0000
  C   C6403     1.0  0.54863  0.96278  0.62603  1.0000
  C   C6404     1.0  0.59449  0.95459  0.70914  1.0000
  C   C6405     1.0  0.51554  0.96650  0.83784  1.0000
  H   H5075     1.0  0.53904  0.97639  0.60334  1.0000
  H   H5076     1.0  0.49628  0.74641  0.86267  1.0000
  H   H5077     1.0  0.52029  0.98057  0.81959  1.0000
  H   H5078     1.0  0.49222  0.91552  0.66087  1.0000
  H   H5079     1.0  0.67762  0.95345  0.50814  1.0000
  H   H5080     1.0  0.51486  0.95865  0.65973  1.0000
  C   C6406     1.0  0.58578  0.97073  0.75230  1.0000
  S   S852      1.0  0.52965  0.75273  0.91934  1.0000
  C   C6407     1.0  0.67672  0.96173  0.52458  1.0000
  C   C6408     1.0  0.49562  0.80107  0.86835  1.0000
  H   H5081     1.0  0.50292  0.91601  0.82521  1.0000
  H   H5082     1.0  0.51209  0.91911  0.59461  1.0000
  H   H5083     1.0  0.50827  0.93964  0.65714  1.0000
  H   H5084     1.0  0.50606  0.83669  0.97342  1.0000
  C   C6409     1.0  0.49234  0.78888  0.93052  1.0000
  C   C6410     1.0  0.52057  0.81173  0.97957  1.0000
  C   C6411     1.0  0.70665  0.94348  0.55983  1.0000
  C   C6412     1.0  0.69689  0.95065  0.55274  1.0000
  C   C6413     1.0  0.54586  0.78692  0.85185  1.0000
  H   H5085     1.0  0.69565  0.89238  0.51564  1.0000
  H   H5086     1.0  0.54605  0.78574  0.86216  1.0000
  S   S853      1.0  0.66787  0.90122  0.51585  1.0000
  S   S854      1.0  0.50764  0.94782  0.58469  1.0000
  H   H5087     1.0  0.67009  0.92160  0.55922  1.0000
  C   C6414     1.0  0.65878  0.95943  0.56752  1.0000
  S   S855      1.0  0.73471  0.92796  0.50485  1.0000
  H   H5088     1.0  0.58291  0.96624  0.57437  1.0000
  H   H5089     1.0  0.53398  0.96362  0.64422  1.0000
  C   C6415     1.0  0.55865  0.75469  0.92672  1.0000
  H   H5090     1.0  0.55287  0.97345  0.74091  1.0000
  C   C6416     1.0  0.50764  0.75300  0.88611  1.0000
  H   H5091     1.0  0.51501  0.90519  0.61665  1.0000
  H   H5092     1.0  0.59166  0.95502  0.55545  1.0000
  C   C6417     1.0  0.49708  0.91293  0.65132  1.0000
  C   C6418     1.0  0.50775  0.75036  0.87406  1.0000
  C   C6419     1.0  0.51686  0.78540  0.94456  1.0000
  C   C6420     1.0  0.52836  0.82014  0.97970  1.0000
  H   H5093     1.0  0.71305  0.93442  0.55715  1.0000
  H   H5094     1.0  0.69591  0.94697  0.54473  1.0000
  C   C6421     1.0  0.53573  0.79668  0.83281  1.0000
  H   H5095     1.0  0.48968  0.93883  0.61925  1.0000
  C   C6422     1.0  0.49376  0.97192  0.85160  1.0000
  H   H5096     1.0  0.51813  0.79878  0.96861  1.0000
  C   C6423     1.0  0.51431  0.94338  0.82171  1.0000
  C   C6424     1.0  0.55594  0.91147  0.78542  1.0000
  C   C6425     1.0  0.56090  0.90445  0.77525  1.0000
  C   C6426     1.0  0.55366  0.90640  0.76566  1.0000
  C   C6427     1.0  0.54158  0.91558  0.76606  1.0000
  C   C6428     1.0  0.53675  0.92300  0.77599  1.0000
  C   C6429     1.0  0.54388  0.92066  0.78585  1.0000
  P   P222      1.0  0.52214  0.93619  0.77580  1.0000
  C   C6430     1.0  0.52660  0.95016  0.77821  1.0000
  H   H5097     1.0  0.66599  0.89901  0.56625  1.0000
  C   C6431     1.0  0.59824  0.82919  0.95808  1.0000
  C   C6432     1.0  0.63686  0.91584  0.55745  1.0000
  H   H5098     1.0  0.49817  0.91805  0.86642  1.0000
  C   C6433     1.0  0.63813  0.96785  0.55414  1.0000
  C   C6434     1.0  0.65841  0.90720  0.56277  1.0000
  C   C6435     1.0  0.51937  0.95649  0.78862  1.0000
  H   H5099     1.0  0.64600  0.89659  0.53716  1.0000
  H   H5100     1.0  0.52678  0.96981  0.55924  1.0000
  C   C6436     1.0  0.54268  0.96381  0.77285  1.0000
  C   C6437     1.0  0.53825  0.95395  0.77027  1.0000
  H   H5101     1.0  0.57587  0.78341  0.90624  1.0000
  C   C6438     1.0  0.50852  0.91767  0.79392  1.0000
  C   C6439     1.0  0.55109  0.90545  0.56528  1.0000
  H   H5102     1.0  0.53758  0.78343  0.94252  1.0000
  C   C6440     1.0  0.49109  0.93595  0.82319  1.0000
  C   C6441     1.0  0.49326  0.92170  0.70276  1.0000
  H   H5103     1.0  0.56166  0.91013  0.79274  1.0000
  H   H5104     1.0  0.57054  0.89779  0.77455  1.0000
  H   H5105     1.0  0.55769  0.90121  0.75756  1.0000
  H   H5106     1.0  0.53635  0.91709  0.75833  1.0000
  H   H5107     1.0  0.54032  0.92623  0.79365  1.0000
  H   H5108     1.0  0.59308  0.96630  0.74462  1.0000
  C   C6442     1.0  0.53894  0.93488  0.50221  1.0000
  C   C6443     1.0  0.50707  0.93456  0.74562  1.0000
  C   C6444     1.0  0.50571  0.82254  0.91862  1.0000
  H   H5109     1.0  0.55179  0.78782  0.91333  1.0000
  C   C6445     1.0  0.63912  0.92871  0.55381  1.0000
  C   C6446     1.0  0.63574  0.88514  0.58312  1.0000
  H   H5110     1.0  0.65157  0.97717  0.53770  1.0000
  H   H5111     1.0  0.51541  0.91808  0.89692  1.0000
  H   H5112     1.0  0.54411  0.94896  0.76234  1.0000
  H   H5113     1.0  0.51782  0.91051  0.79315  1.0000
  H   H5114     1.0  0.71053  0.96987  0.50500  1.0000
  C   C6447     1.0  0.52385  0.96630  0.79125  1.0000
  C   C6448     1.0  0.53988  0.97884  0.67691  1.0000
  C   C6449     1.0  0.66071  0.92003  0.55894  1.0000
  C   C6450     1.0  0.57797  0.85750  0.92157  1.0000
  C   C6451     1.0  0.58686  0.85701  0.92903  1.0000
  C   C6452     1.0  0.56955  0.87011  0.94298  1.0000
  C   C6453     1.0  0.56059  0.87090  0.93533  1.0000
  C   C6454     1.0  0.56486  0.86429  0.92477  1.0000
  P   P223      1.0  0.54398  0.88083  0.93846  1.0000
  C   C6455     1.0  0.53219  0.87141  0.93938  1.0000
  C   C6456     1.0  0.54067  0.88539  0.95430  1.0000
  C   C6457     1.0  0.53474  0.85761  0.94432  1.0000
  C   C6458     1.0  0.52536  0.85042  0.94550  1.0000
  C   C6459     1.0  0.51336  0.85694  0.94190  1.0000
  C   C6460     1.0  0.51070  0.87066  0.93706  1.0000
  C   C6461     1.0  0.52006  0.87788  0.93582  1.0000
  C   C6462     1.0  0.54227  0.89573  0.92536  1.0000
  C   C6463     1.0  0.55028  0.89610  0.91246  1.0000
  C   C6464     1.0  0.54878  0.90762  0.90245  1.0000
  C   C6465     1.0  0.53927  0.91890  0.90519  1.0000
  C   C6466     1.0  0.53117  0.91863  0.91794  1.0000
  C   C6467     1.0  0.53263  0.90710  0.92797  1.0000
  H   H5115     1.0  0.58125  0.85244  0.91340  1.0000
  H   H5116     1.0  0.59694  0.85146  0.92670  1.0000
  H   H5117     1.0  0.55810  0.86461  0.91886  1.0000
  H   H5118     1.0  0.66764  0.95871  0.53005  1.0000
  C   C6468     1.0  0.51274  0.97829  0.82841  1.0000
  C   C6469     1.0  0.50548  0.77379  0.96552  1.0000
  H   H5119     1.0  0.58761  0.74271  0.97964  1.0000
  H   H5120     1.0  0.50140  0.87568  0.93420  1.0000
  H   H5121     1.0  0.51774  0.88850  0.93215  1.0000
  H   H5122     1.0  0.55765  0.88756  0.90989  1.0000
  H   H5123     1.0  0.55497  0.90772  0.89251  1.0000
  H   H5124     1.0  0.53818  0.92781  0.89738  1.0000
  H   H5125     1.0  0.52373  0.92736  0.92004  1.0000
  H   H5126     1.0  0.52618  0.90702  0.93776  1.0000
  C   C6470     1.0  0.52563  0.86781  0.87704  1.0000
  C   C6471     1.0  0.51613  0.86027  0.88021  1.0000
  C   C6472     1.0  0.51710  0.85153  0.87234  1.0000
  C   C6473     1.0  0.52756  0.85040  0.86126  1.0000
  C   C6474     1.0  0.53738  0.85762  0.85829  1.0000
  C   C6475     1.0  0.53624  0.86649  0.86616  1.0000
  P   P224      1.0  0.55089  0.85609  0.84401  1.0000
  C   C6476     1.0  0.56474  0.86020  0.84697  1.0000
  C   C6477     1.0  0.55560  0.83907  0.84203  1.0000
  C   C6478     1.0  0.55438  0.82860  0.85331  1.0000
  C   C6479     1.0  0.55804  0.81545  0.85190  1.0000
  C   C6480     1.0  0.56349  0.81256  0.83932  1.0000
  C   C6481     1.0  0.56481  0.82286  0.82805  1.0000
  C   C6482     1.0  0.56080  0.83606  0.82937  1.0000
  C   C6483     1.0  0.56671  0.87325  0.84253  1.0000
  C   C6484     1.0  0.57749  0.87635  0.84478  1.0000
  C   C6485     1.0  0.58617  0.86658  0.85179  1.0000
  C   C6486     1.0  0.58410  0.85367  0.85651  1.0000
  C   C6487     1.0  0.57345  0.85050  0.85409  1.0000
  C   C6488     1.0  0.54634  0.86763  0.82929  1.0000
  C   C6489     1.0  0.55611  0.87008  0.81765  1.0000
  C   C6490     1.0  0.50512  0.78222  0.95293  1.0000
  C   C6491     1.0  0.53990  0.88660  0.80673  1.0000
  C   C6492     1.0  0.53016  0.88446  0.81834  1.0000
  C   C6493     1.0  0.53332  0.87495  0.82958  1.0000
  H   H5127     1.0  0.52499  0.87456  0.88310  1.0000
  H   H5128     1.0  0.50796  0.86126  0.88871  1.0000
  H   H5129     1.0  0.50969  0.84569  0.87487  1.0000
  H   H5130     1.0  0.52813  0.84374  0.85515  1.0000
  H   H5131     1.0  0.54358  0.87230  0.86406  1.0000
  H   H5132     1.0  0.55091  0.83051  0.86327  1.0000
  H   H5133     1.0  0.55705  0.80746  0.86064  1.0000
  H   H5134     1.0  0.56687  0.80232  0.83836  1.0000
  H   H5135     1.0  0.56912  0.82058  0.81830  1.0000
  H   H5136     1.0  0.56202  0.84378  0.82048  1.0000
  H   H5137     1.0  0.55990  0.88111  0.83746  1.0000
  H   H5138     1.0  0.57898  0.88642  0.84132  1.0000
  H   H5139     1.0  0.59434  0.86911  0.85377  1.0000
  H   H5140     1.0  0.59068  0.84611  0.86213  1.0000
  H   H5141     1.0  0.57198  0.84049  0.85789  1.0000
  H   H5142     1.0  0.56632  0.86501  0.81739  1.0000
  C   C6494     1.0  0.57682  0.97016  0.51822  1.0000
  C   C6495     1.0  0.58583  0.83399  0.96556  1.0000
  H   H5143     1.0  0.52028  0.89053  0.81873  1.0000
  H   H5144     1.0  0.52570  0.87370  0.83857  1.0000
  C   C6496     1.0  0.51621  0.83963  0.91860  1.0000
  H   H5145     1.0  0.49856  0.77267  0.85130  1.0000
  C   C6497     1.0  0.52504  0.74652  0.94638  1.0000
  H   H5146     1.0  0.53003  0.81997  0.89197  1.0000
  C   C6498     1.0  0.52643  0.81337  0.87629  1.0000
  H   H5147     1.0  0.64182  0.86962  0.61395  1.0000
  C   C6499     1.0  0.53410  0.87799  0.96603  1.0000
  C   C6500     1.0  0.51557  0.92009  0.70463  1.0000
  C   C6501     1.0  0.55753  0.77785  0.91600  1.0000
  H   H5148     1.0  0.54481  0.95581  0.62337  1.0000
  C   C6502     1.0  0.51001  0.90720  0.62639  1.0000
  H   H5149     1.0  0.52753  0.77920  0.90105  1.0000
  Fe  Fe425     1.0  0.72748  0.91990  0.52652  1.0000
  H   H5150     1.0  0.48859  0.96588  0.72341  1.0000
  H   H5151     1.0  0.49505  0.95043  0.78363  1.0000
  H   H5152     1.0  0.49419  0.85062  0.84963  1.0000
  C   C6503     1.0  0.60126  0.73853  0.94807  1.0000
  C   C6504     1.0  0.53870  0.91137  0.57190  1.0000
  H   H5153     1.0  0.51458  0.98278  0.52192  1.0000
  H   H5154     1.0  0.50496  0.85962  0.91436  1.0000
  C   C6505     1.0  0.49656  0.75252  0.89652  1.0000
  C   C6506     1.0  0.53545  0.79560  0.84628  1.0000
  C   C6507     1.0  0.48703  0.93562  0.85591  1.0000
  C   C6508     1.0  0.51122  0.93156  0.75751  1.0000
  H   H5155     1.0  0.52712  0.94681  0.55967  1.0000
  C   C6509     1.0  0.61328  0.76607  0.95161  1.0000
  H   H5156     1.0  0.52573  0.92050  0.69994  1.0000
  C   C6510     1.0  0.70816  0.94802  0.57020  1.0000
  H   H5157     1.0  0.52773  0.90812  0.63125  1.0000
  H   H5158     1.0  0.60769  0.81015  0.90156  1.0000
  H   H5159     1.0  0.49683  0.75381  0.90601  1.0000
  H   H5160     1.0  0.54706  0.93864  0.49501  1.0000
  H   H5161     1.0  0.50256  0.96336  0.81915  1.0000
  H   H5162     1.0  0.57113  0.97344  0.80600  1.0000
  H   H5163     1.0  0.60672  0.79519  0.92387  1.0000
  H   H5164     1.0  0.59931  0.96392  0.63972  1.0000
  C   C6511     1.0  0.59045  0.97759  0.71029  1.0000
  C   C6512     1.0  0.60136  0.77488  0.90744  1.0000
  H   H5165     1.0  0.55078  0.90163  0.94622  1.0000
  C   C6513     1.0  0.51730  0.76915  0.96988  1.0000
  C   C6514     1.0  0.51457  0.95502  0.73890  1.0000
  C   C6515     1.0  0.60321  0.74768  0.92431  1.0000
  C   C6516     1.0  0.50639  0.92247  0.69675  1.0000
  C   C6517     1.0  0.51862  0.95216  0.75087  1.0000
  H   H5166     1.0  0.56504  0.96736  0.65694  1.0000
  H   H5167     1.0  0.49483  0.80822  0.87404  1.0000
  H   H5168     1.0  0.54839  0.91914  0.53330  1.0000
  H   H5169     1.0  0.56416  0.90383  0.54625  1.0000
  C   C6518     1.0  0.52419  0.80279  0.87260  1.0000
  C   C6519     1.0  0.53971  0.82160  0.96971  1.0000
  H   H5170     1.0  0.51471  0.95967  0.52234  1.0000
  C   C6520     1.0  0.51173  0.91649  0.71852  1.0000
  C   C6521     1.0  0.59545  0.97512  0.52872  1.0000
  C   C6522     1.0  0.54546  0.91709  0.54404  1.0000
  C   C6523     1.0  0.55444  0.90826  0.55136  1.0000
  H   H5171     1.0  0.51730  0.78285  0.84670  1.0000
  C   C6524     1.0  0.60620  0.80022  0.90311  1.0000
  C   C6525     1.0  0.51640  0.82622  0.92043  1.0000
  C   C6526     1.0  0.59683  0.96732  0.70356  1.0000
  C   C6527     1.0  0.60314  0.77918  0.91790  1.0000
  H   H5172     1.0  0.53065  0.79811  0.90770  1.0000
  C   C6528     1.0  0.50487  0.93155  0.54990  1.0000
  P   P225      1.0  0.52110  0.93450  0.54142  1.0000
  C   C6529     1.0  0.53298  0.92314  0.55063  1.0000
  H   H5173     1.0  0.63386  0.89373  0.52218  1.0000
  C   C6530     1.0  0.49927  0.91254  0.89332  1.0000
  H   H5174     1.0  0.50660  0.94782  0.72659  1.0000
  C   C6531     1.0  0.52898  0.79942  0.89788  1.0000
  C   C6532     1.0  0.53201  0.92774  0.49860  1.0000
  C   C6533     1.0  0.52970  0.92019  0.56461  1.0000
  H   H5175     1.0  0.52646  0.82285  0.86946  1.0000
  H   H5176     1.0  0.52019  0.92484  0.56987  1.0000
  C   C6534     1.0  0.52862  0.81173  0.88898  1.0000
  H   H5177     1.0  0.56689  0.83161  0.94598  1.0000
  C   C6535     1.0  0.60565  0.79176  0.91571  1.0000
  C   C6536     1.0  0.58036  0.96523  0.66681  1.0000
  C   C6537     1.0  0.48758  0.94852  0.66102  1.0000
  C   C6538     1.0  0.50320  0.91852  0.55573  1.0000
  H   H5178     1.0  0.51024  0.92080  0.52799  1.0000
  C   C6539     1.0  0.52515  0.93200  0.52462  1.0000
  C   C6540     1.0  0.58582  0.95213  0.72148  1.0000
  C   C6541     1.0  0.68249  0.95850  0.51213  1.0000
  C   C6542     1.0  0.51823  0.92484  0.52091  1.0000
  H   H5179     1.0  0.62791  0.75002  0.86902  1.0000
  H   H5180     1.0  0.51161  0.91021  0.55560  1.0000
  H   H5181     1.0  0.54108  0.94244  0.51787  1.0000
  C   C6543     1.0  0.53552  0.93703  0.51516  1.0000
  C   C6544     1.0  0.63625  0.96032  0.56717  1.0000
  C   C6545     1.0  0.52166  0.92275  0.50794  1.0000
  C   C6546     1.0  0.57239  0.75210  0.92273  1.0000
  H   H5182     1.0  0.54942  0.97787  0.67888  1.0000
  H   H5183     1.0  0.51632  0.91716  0.50516  1.0000
  H   H5184     1.0  0.56487  0.83867  0.96689  1.0000
  H   H5185     1.0  0.51964  0.95968  0.67760  1.0000
  H   H5186     1.0  0.49635  0.83196  0.95154  1.0000
  C   C6547     1.0  0.50264  0.95300  0.82072  1.0000
  C   C6548     1.0  0.50279  0.92631  0.82408  1.0000
  C   C6549     1.0  0.51284  0.84915  0.83548  1.0000
  H   H5187     1.0  0.49669  0.77078  0.97198  1.0000
  C   C6550     1.0  0.63789  0.89159  0.54135  1.0000
  C   C6551     1.0  0.51722  0.94024  0.76016  1.0000
  H   H5188     1.0  0.51624  0.91339  0.65323  1.0000
  H   H5189     1.0  0.52245  0.78231  0.87914  1.0000
  C   C6552     1.0  0.55286  0.87940  0.80638  1.0000
  H   H5190     1.0  0.72890  0.95570  0.48246  1.0000
  H   H5191     1.0  0.50602  0.81218  0.91971  1.0000
  C   C6553     1.0  0.64288  0.87810  0.59299  1.0000
  H   H5192     1.0  0.51050  0.95359  0.79492  1.0000
  H   H5193     1.0  0.53813  0.80162  0.95097  1.0000
  C   C6554     1.0  0.63928  0.97395  0.51641  1.0000
  H   H5194     1.0  0.52741  0.83975  0.94909  1.0000
  C   C6555     1.0  0.58660  0.96531  0.76557  1.0000
  C   C6556     1.0  0.55627  0.77939  0.84409  1.0000
  C   C6557     1.0  0.54344  0.89924  0.96738  1.0000
  C   C6558     1.0  0.62725  0.74198  0.96416  1.0000
  H   H5195     1.0  0.52301  0.95916  0.75264  1.0000
  H   H5196     1.0  0.57186  0.96646  0.83815  1.0000
  C   C6559     1.0  0.58804  0.96033  0.52041  1.0000
  H   H5197     1.0  0.60821  0.77559  0.94673  1.0000
  C   C6560     1.0  0.49639  0.90824  0.63071  1.0000
  H   H5198     1.0  0.68886  0.87404  0.53958  1.0000
  H   H5199     1.0  0.55820  0.89888  0.57094  1.0000
  H   H5200     1.0  0.66610  0.98160  0.49271  1.0000
  C   C6561     1.0  0.60045  0.95795  0.63267  1.0000
  C   C6562     1.0  0.49343  0.81339  0.95045  1.0000
  C   C6563     1.0  0.49859  0.91569  0.72451  1.0000
  C   C6564     1.0  0.53579  0.96759  0.67710  1.0000
  C   C6565     1.0  0.49449  0.84571  0.91356  1.0000
  C   C6566     1.0  0.66943  0.88023  0.55121  1.0000
  H   H5201     1.0  0.57868  0.95584  0.67333  1.0000
  C   C6567     1.0  0.48648  0.98241  0.73227  1.0000
  C   C6568     1.0  0.61428  0.75408  0.88717  1.0000
  H   H5202     1.0  0.52766  0.80308  0.82840  1.0000
  P   P226      1.0  0.64395  0.88833  0.56572  1.0000
  H   H5203     1.0  0.65347  0.87464  0.59038  1.0000
  C   C6569     1.0  0.49681  0.97920  0.77213  1.0000
  H   H5204     1.0  0.57303  0.95998  0.73794  1.0000
  C   C6570     1.0  0.71715  0.92827  0.48117  1.0000
  H   H5205     1.0  0.56414  0.77253  0.84850  1.0000
  C   C6571     1.0  0.48649  0.79953  0.92147  1.0000
  C   C6572     1.0  0.49573  0.94009  0.78859  1.0000
  C   C6573     1.0  0.50343  0.84411  0.84616  1.0000
  P   P227      1.0  0.67634  0.97193  0.54631  1.0000
  C   C6574     1.0  0.53217  0.88126  0.97829  1.0000
  C   C6575     1.0  0.54623  0.78922  0.82507  1.0000
  C   C6576     1.0  0.63632  0.87535  0.60639  1.0000
  C   C6577     1.0  0.65923  0.87645  0.56187  1.0000
  H   H5206     1.0  0.60292  0.97687  0.53256  1.0000
  H   H5207     1.0  0.57283  0.98000  0.61417  1.0000
  C   C6578     1.0  0.50194  0.92287  0.59377  1.0000
  C   C6579     1.0  0.49479  0.83230  0.91507  1.0000
  H   H5208     1.0  0.53611  0.90920  0.58268  1.0000
  C   C6580     1.0  0.65029  0.97124  0.54779  1.0000
  C   C6581     1.0  0.62217  0.89038  0.58697  1.0000
  C   C6582     1.0  0.63434  0.88676  0.55515  1.0000
  C   C6583     1.0  0.63109  0.88990  0.53282  1.0000
  H   H5209     1.0  0.61656  0.89637  0.57961  1.0000
  C   C6584     1.0  0.58972  0.95669  0.57551  1.0000
  C   C6585     1.0  0.65053  0.97245  0.50617  1.0000
  C   C6586     1.0  0.48838  0.92406  0.86590  1.0000
  C   C6587     1.0  0.61564  0.88763  0.60036  1.0000
  H   H5210     1.0  0.53794  0.76904  0.96520  1.0000
  H   H5211     1.0  0.65495  0.88966  0.48315  1.0000
  C   C6588     1.0  0.55646  0.78053  0.83074  1.0000
  H   H5212     1.0  0.61758  0.87779  0.62043  1.0000
  H   H5213     1.0  0.54554  0.82827  0.96974  1.0000
  C   C6589     1.0  0.50591  0.83066  0.85246  1.0000
  H   H5214     1.0  0.49470  0.95224  0.54599  1.0000
  H   H5215     1.0  0.60609  0.95518  0.52720  1.0000
  H   H5216     1.0  0.54629  0.78993  0.81477  1.0000
  S   S856      1.0  0.54249  0.75830  0.88161  1.0000
  H   H5217     1.0  0.50725  0.76755  0.90973  1.0000
  H   H5218     1.0  0.60508  0.89128  0.60319  1.0000
  Fe  Fe426     1.0  0.56340  0.74728  0.87757  1.0000
  C   C6590     1.0  0.58201  0.78844  0.95420  1.0000
  H   H5219     1.0  0.60905  0.87333  0.55576  1.0000
  C   C6591     1.0  0.48950  0.87654  0.86604  1.0000
  C   C6592     1.0  0.66052  0.86305  0.56853  1.0000
  H   H5220     1.0  0.65424  0.96323  0.50285  1.0000
  C   C6593     1.0  0.62060  0.88346  0.53803  1.0000
  H   H5221     1.0  0.56449  0.77451  0.82486  1.0000
  H   H5222     1.0  0.69147  0.85058  0.55212  1.0000
  H   H5223     1.0  0.61512  0.88248  0.53142  1.0000
  C   C6594     1.0  0.49721  0.93651  0.58961  1.0000
  H   H5224     1.0  0.62137  0.95656  0.62585  1.0000
  H   H5225     1.0  0.54394  0.85241  0.94731  1.0000
  C   C6595     1.0  0.50910  0.94606  0.73613  1.0000
  H   H5226     1.0  0.57348  0.75857  0.96818  1.0000
  H   H5227     1.0  0.70927  0.93442  0.49995  1.0000
  H   H5228     1.0  0.51855  0.97074  0.79967  1.0000
  C   C6596     1.0  0.51105  0.90998  0.89750  1.0000
  C   C6597     1.0  0.52865  0.78070  0.94896  1.0000
  H   H5229     1.0  0.64108  0.74232  0.94519  1.0000
  H   H5230     1.0  0.62156  0.87538  0.57077  1.0000
  H   H5231     1.0  0.65248  0.85971  0.57621  1.0000
  H   H5232     1.0  0.49576  0.74470  0.95226  1.0000
  C   C6598     1.0  0.61714  0.87839  0.55175  1.0000
  S   S857      1.0  0.55534  0.97640  0.57714  1.0000
  H   H5233     1.0  0.61978  0.76045  0.88844  1.0000
  H   H5234     1.0  0.50252  0.92778  0.74364  1.0000
  C   C6599     1.0  0.68862  0.96249  0.55589  1.0000
  H   H5235     1.0  0.55195  0.96627  0.76701  1.0000
  C   C6600     1.0  0.49709  0.97031  0.62391  1.0000
  H   H5236     1.0  0.62679  0.95772  0.57200  1.0000
  H   H5237     1.0  0.49849  0.82714  0.86077  1.0000
  C   C6601     1.0  0.59011  0.97075  0.66794  1.0000
  H   H5238     1.0  0.55990  0.76691  0.95154  1.0000
  H   H5239     1.0  0.50762  0.93679  0.63032  1.0000
  C   C6602     1.0  0.49547  0.78701  0.90415  1.0000
  H   H5240     1.0  0.49747  0.90345  0.59900  1.0000
  C   C6603     1.0  0.69983  0.95969  0.57356  1.0000
  C   C6604     1.0  0.56601  0.77298  0.95233  1.0000
  C   C6605     1.0  0.70098  0.96778  0.51030  1.0000
  C   C6606     1.0  0.48651  0.89619  0.83520  1.0000
  C   C6607     1.0  0.49482  0.96971  0.66558  1.0000
  C   C6608     1.0  0.57386  0.76822  0.96177  1.0000
  C   C6609     1.0  0.68285  0.96846  0.52979  1.0000
  C   C6610     1.0  0.53684  0.89185  0.97898  1.0000
  C   C6611     1.0  0.49116  0.94934  0.82103  1.0000
  H   H5241     1.0  0.54247  0.95799  0.67862  1.0000
  H   H5242     1.0  0.56047  0.88129  0.79749  1.0000
  C   C6612     1.0  0.50730  0.79720  0.85918  1.0000
  C   C6613     1.0  0.48989  0.91066  0.64340  1.0000
  C   C6614     1.0  0.64657  0.95612  0.57387  1.0000
  C   C6615     1.0  0.59464  0.95035  0.56483  1.0000
  H   H5243     1.0  0.55183  0.97915  0.85070  1.0000
  C   C6616     1.0  0.57741  0.97080  0.77573  1.0000
  H   H5244     1.0  0.59943  0.94656  0.70402  1.0000
  C   C6617     1.0  0.51749  0.97485  0.53005  1.0000
  C   C6618     1.0  0.58300  0.98152  0.83373  1.0000
  H   H5245     1.0  0.63018  0.97097  0.54887  1.0000
  H   H5246     1.0  0.50467  0.76902  0.93287  1.0000
  C   C6619     1.0  0.53552  0.80654  0.95916  1.0000
  C   C6620     1.0  0.49374  0.94210  0.55027  1.0000
  H   H5247     1.0  0.51630  0.75487  0.88769  1.0000
  C   C6621     1.0  0.60828  0.76053  0.96500  1.0000
  H   H5248     1.0  0.49946  0.88831  0.87143  1.0000
  C   C6622     1.0  0.50603  0.96324  0.84933  1.0000
  H   H5249     1.0  0.50369  0.80870  0.95011  1.0000
  C   C6623     1.0  0.54334  0.81473  0.95949  1.0000
  H   H5250     1.0  0.59431  0.95671  0.76803  1.0000
  H   H5251     1.0  0.50824  0.95399  0.85646  1.0000
  H   H5252     1.0  0.68367  0.97589  0.56923  1.0000
  H   H5253     1.0  0.67275  0.88474  0.49537  1.0000
  H   H5254     1.0  0.59575  0.73846  0.95820  1.0000
  C   C6624     1.0  0.48758  0.97957  0.78420  1.0000
  S   S858      1.0  0.58502  0.83926  0.97999  1.0000
  H   H5255     1.0  0.53059  0.86955  0.96589  1.0000
  H   H5256     1.0  0.64514  0.95029  0.58400  1.0000
  C   C6625     1.0  0.55969  0.96725  0.61771  1.0000
  C   C6626     1.0  0.56609  0.78547  0.94389  1.0000
  C   C6627     1.0  0.50446  0.95778  0.62852  1.0000
  H   H5257     1.0  0.50596  0.97225  0.70420  1.0000
  H   H5258     1.0  0.52510  0.95982  0.83616  1.0000
  H   H5259     1.0  0.57802  0.96631  0.78600  1.0000
  C   C6628     1.0  0.69457  0.96159  0.50495  1.0000
  H   H5260     1.0  0.71581  0.94249  0.57562  1.0000
  H   H5261     1.0  0.53749  0.89408  0.79810  1.0000
  H   H5262     1.0  0.58958  0.95078  0.51802  1.0000
  H   H5263     1.0  0.60369  0.96922  0.69408  1.0000
  H   H5264     1.0  0.68714  0.93088  0.50246  1.0000
  C   C6629     1.0  0.60251  0.75190  0.89630  1.0000
  H   H5265     1.0  0.73033  0.95691  0.52466  1.0000
  H   H5266     1.0  0.58418  0.94222  0.72589  1.0000
  H   H5267     1.0  0.49092  0.90718  0.62415  1.0000
  C   C6630     1.0  0.50137  0.77643  0.91306  1.0000
  H   H5268     1.0  0.52358  0.75702  0.94557  1.0000
  H   H5269     1.0  0.55203  0.81598  0.95167  1.0000
  H   H5270     1.0  0.51684  0.79176  0.93473  1.0000
  C   C6631     1.0  0.56436  0.97657  0.62090  1.0000
  H   H5271     1.0  0.61572  0.73510  0.86591  1.0000
  H   H5272     1.0  0.50617  0.85134  0.94270  1.0000
  C   C6632     1.0  0.58199  0.77587  0.96279  1.0000
  S   S859      1.0  0.52277  0.74797  0.86245  1.0000
  C   C6633     1.0  0.50826  0.78682  0.85311  1.0000
  C   C6634     1.0  0.69480  0.92868  0.49393  1.0000
  H   H5273     1.0  0.56490  0.96993  0.70135  1.0000
  C   C6635     1.0  0.48930  0.91858  0.71666  1.0000
  C   C6636     1.0  0.52088  0.97778  0.54041  1.0000
  C   C6637     1.0  0.59735  0.96282  0.52561  1.0000
  H   H5274     1.0  0.56436  0.96384  0.60855  1.0000
  C   C6638     1.0  0.54706  0.97662  0.64096  1.0000
  H   H5275     1.0  0.58676  0.74137  0.90135  1.0000
  H   H5276     1.0  0.58826  0.79459  0.95452  1.0000
  S   S860      1.0  0.53730  0.97270  0.71461  1.0000
  C   C6639     1.0  0.49589  0.83594  0.97730  1.0000
  H   H5277     1.0  0.62872  0.76378  0.93411  1.0000
  H   H5278     1.0  0.70106  0.96323  0.58158  1.0000
  C   C6640     1.0  0.49007  0.88598  0.87249  1.0000
  H   H5279     1.0  0.49653  0.78608  0.89409  1.0000
  H   H5280     1.0  0.51595  0.96404  0.73162  1.0000
  C   C6641     1.0  0.50451  0.95891  0.66162  1.0000
  H   H5281     1.0  0.53472  0.92601  0.48859  1.0000
  H   H5282     1.0  0.52901  0.98027  0.74260  1.0000
  H   H5283     1.0  0.48881  0.85589  0.96695  1.0000
  C   C6642     1.0  0.49063  0.91613  0.56196  1.0000
  H   H5284     1.0  0.50040  0.97777  0.75183  1.0000
  H   H5285     1.0  0.71845  0.97488  0.53675  1.0000
  C   C6643     1.0  0.69217  0.92354  0.48458  1.0000
  C   C6644     1.0  0.66077  0.96701  0.55438  1.0000
  C   C6645     1.0  0.70731  0.93081  0.49238  1.0000
  H   H5286     1.0  0.53932  0.97702  0.78588  1.0000
  H   H5287     1.0  0.50700  0.97907  0.77152  1.0000
  C   C6646     1.0  0.56755  0.98200  0.77262  1.0000
  H   H5288     1.0  0.58725  0.75493  0.93971  1.0000
  C   C6647     1.0  0.60076  0.73705  0.88376  1.0000
  H   H5289     1.0  0.73214  0.95806  0.55036  1.0000
  H   H5290     1.0  0.68238  0.92190  0.48607  1.0000
  H   H5291     1.0  0.51758  0.76279  0.97964  1.0000
  C   C6648     1.0  0.52839  0.74155  0.93484  1.0000
  H   H5292     1.0  0.56963  0.96819  0.51417  1.0000
  H   H5293     1.0  0.49734  0.90292  0.80535  1.0000
  H   H5294     1.0  0.57795  0.74203  0.92535  1.0000
  C   C6649     1.0  0.61548  0.74853  0.97130  1.0000
  H   H5295     1.0  0.49956  0.97902  0.62490  1.0000
  C   C6650     1.0  0.50168  0.94644  0.62700  1.0000
  H   H5296     1.0  0.54211  0.98012  0.64999  1.0000
  C   C6651     1.0  0.59584  0.74325  0.89456  1.0000
  C   C6652     1.0  0.59642  0.74781  0.93754  1.0000
  C   C6653     1.0  0.52307  0.96869  0.67563  1.0000
  C   C6654     1.0  0.72523  0.97697  0.52726  1.0000
  C   C6655     1.0  0.49691  0.91330  0.80074  1.0000
  H   H5297     1.0  0.55369  0.74669  0.93223  1.0000
  C   C6656     1.0  0.56009  0.98025  0.69924  1.0000
  C   C6657     1.0  0.49365  0.91403  0.59625  1.0000
  C   C6658     1.0  0.61904  0.74804  0.87624  1.0000
  C   C6659     1.0  0.52346  0.73797  0.95898  1.0000
  C   C6660     1.0  0.48928  0.82671  0.95130  1.0000
  C   C6661     1.0  0.49517  0.73921  0.93462  1.0000
  C   C6662     1.0  0.57182  0.97615  0.83938  1.0000
  H   H5298     1.0  0.70017  0.97623  0.52641  1.0000
  H   H5299     1.0  0.59177  0.97590  0.82827  1.0000
  C   C6663     1.0  0.49759  0.78087  0.85578  1.0000
  H   H5300     1.0  0.49571  0.93854  0.84899  1.0000
  H   H5301     1.0  0.49051  0.97947  0.79311  1.0000
  H   H5302     1.0  0.49445  0.92273  0.88987  1.0000
  Fe  Fe427     1.0  0.64085  0.93612  0.48718  1.0000
  C   C6664     1.0  0.48700  0.97160  0.61749  1.0000
  C   C6665     1.0  0.52418  0.80501  0.96916  1.0000
  H   H5303     1.0  0.50387  0.97772  0.59239  1.0000
  C   C6666     1.0  0.49157  0.94761  0.62077  1.0000
  H   H5304     1.0  0.61009  0.98212  0.49608  1.0000
  C   C6667     1.0  0.49300  0.97856  0.76092  1.0000
  P   P228      1.0  0.48970  0.78953  0.94775  1.0000
  H   H5305     1.0  0.67537  0.94974  0.48176  1.0000
  C   C6668     1.0  0.73206  0.96677  0.52049  1.0000
  H   H5306     1.0  0.69168  0.89546  0.48576  1.0000
  C   C6669     1.0  0.60964  0.78276  0.97859  1.0000
  C   C6670     1.0  0.61524  0.73851  0.92181  1.0000
  C   C6671     1.0  0.59675  0.78287  0.97819  1.0000
  C   C6672     1.0  0.67339  0.89145  0.48566  1.0000
  H   H5307     1.0  0.72298  0.97912  0.48403  1.0000
  H   H5308     1.0  0.62076  0.73829  0.91171  1.0000
  C   C6673     1.0  0.51501  0.98127  0.67204  1.0000
  H   H5309     1.0  0.48671  0.82948  0.91333  1.0000
  C   C6674     1.0  0.55806  0.98136  0.63256  1.0000
  C   C6675     1.0  0.57556  0.98160  0.74911  1.0000
  H   H5310     1.0  0.48637  0.96941  0.86052  1.0000
  H   H5311     1.0  0.94014  0.08218  0.43366  1.0000
  C   C6676     1.0  0.81577  0.08680  0.43871  1.0000
  H   H5312     1.0  0.89679  0.02977  0.42511  1.0000
  C   C6677     1.0  0.86618  0.98982  0.42698  1.0000
  H   H5313     1.0  0.98349  0.10144  0.46558  1.0000
  H   H5314     1.0  0.98305  0.08072  0.41453  1.0000
  Fe  Fe428     1.0  0.74879  0.04678  0.39482  1.0000
  S   S861      1.0  0.77092  0.04142  0.38727  1.0000
  S   S862      1.0  0.74114  0.03661  0.41576  1.0000
  Fe  Fe429     1.0  0.84988  0.03683  0.39676  1.0000
  S   S863      1.0  0.84850  0.05789  0.38509  1.0000
  S   S864      1.0  0.86122  0.01952  0.38732  1.0000
  Fe  Fe430     1.0  0.83809  0.04528  0.42321  1.0000
  S   S865      1.0  0.83605  0.06691  0.41364  1.0000
  S   S866      1.0  0.83015  0.03896  0.44517  1.0000
  Fe  Fe431     1.0  0.82836  0.06156  0.39878  1.0000
  S   S867      1.0  0.80864  0.07368  0.39442  1.0000
  Fe  Fe432     1.0  0.85631  0.06112  0.40116  1.0000
  S   S868      1.0  0.87534  0.06806  0.39768  1.0000
  S   S869      1.0  0.82930  0.04022  0.40921  1.0000
  S   S870      1.0  0.85873  0.03976  0.41196  1.0000
  Fe  Fe433     1.0  0.90706  0.12003  0.41228  1.0000
  S   S871      1.0  0.92520  0.10465  0.41657  1.0000
  S   S872      1.0  0.88827  0.11837  0.40771  1.0000
  Fe  Fe434     1.0  0.91375  0.14041  0.42335  1.0000
  S   S873      1.0  0.93200  0.12658  0.42906  1.0000
  S   S874      1.0  0.90435  0.16019  0.42915  1.0000
  Fe  Fe435     1.0  0.93584  0.12146  0.40918  1.0000
  S   S875      1.0  0.95678  0.11928  0.39676  1.0000
  Fe  Fe436     1.0  0.92033  0.11071  0.43605  1.0000
  S   S876      1.0  0.91986  0.09486  0.45496  1.0000
  S   S877      1.0  0.91817  0.13654  0.40284  1.0000
  S   S878      1.0  0.90169  0.12500  0.43233  1.0000
  C   C6678     1.0  0.88663  0.00419  0.42107  1.0000
  C   C6679     1.0  0.96929  0.11637  0.40555  1.0000
  C   C6680     1.0  0.96667  0.11242  0.41945  1.0000
  C   C6681     1.0  0.92162  0.14637  0.46912  1.0000
  C   C6682     1.0  0.89837  0.18062  0.39717  1.0000
  H   H5315     1.0  0.90771  0.20284  0.47741  1.0000
  C   C6683     1.0  0.75390  0.01268  0.44227  1.0000
  H   H5316     1.0  0.95715  0.11046  0.42488  1.0000
  H   H5317     1.0  0.96856  0.14832  0.46255  1.0000
  C   C6684     1.0  0.96781  0.23184  0.34299  1.0000
  C   C6685     1.0  0.91358  0.17251  0.42475  1.0000
  C   C6686     1.0  0.90756  0.18473  0.42837  1.0000
  C   C6687     1.0  0.75155  0.08335  0.45036  1.0000
  C   C6688     1.0  0.92671  0.17039  0.41778  1.0000
  H   H5318     1.0  0.89728  0.18656  0.43335  1.0000
  H   H5319     1.0  0.93141  0.16097  0.41503  1.0000
  C   C6689     1.0  0.88007  0.98558  0.47452  1.0000
  C   C6690     1.0  0.92462  0.09933  0.46712  1.0000
  C   C6691     1.0  0.93453  0.10646  0.46350  1.0000
  C   C6692     1.0  0.85632  0.00143  0.42798  1.0000
  H   H5320     1.0  0.93946  0.10909  0.45317  1.0000
  C   C6693     1.0  0.87849  0.08212  0.40081  1.0000
  C   C6694     1.0  0.89163  0.08334  0.39796  1.0000
  C   C6695     1.0  0.89480  0.09416  0.40040  1.0000
  C   C6696     1.0  0.88480  0.10406  0.40547  1.0000
  C   C6697     1.0  0.87160  0.10293  0.40823  1.0000
  C   C6698     1.0  0.86845  0.09194  0.40604  1.0000
  H   H5321     1.0  0.89941  0.07595  0.39365  1.0000
  H   H5322     1.0  0.90493  0.09509  0.39792  1.0000
  H   H5323     1.0  0.86378  0.11063  0.41199  1.0000
  H   H5324     1.0  0.85828  0.09117  0.40818  1.0000
  C   C6699     1.0  0.84199  0.03358  0.45496  1.0000
  C   C6700     1.0  0.85548  0.03025  0.44935  1.0000
  C   C6701     1.0  0.86467  0.02625  0.45747  1.0000
  C   C6702     1.0  0.86039  0.02562  0.47119  1.0000
  C   C6703     1.0  0.86135  0.20856  0.46680  1.0000
  C   C6704     1.0  0.83775  0.03288  0.46866  1.0000
  H   H5325     1.0  0.85888  0.03071  0.43881  1.0000
  H   H5326     1.0  0.87509  0.02366  0.45312  1.0000
  C   C6705     1.0  0.95386  0.17501  0.34982  1.0000
  C   C6706     1.0  0.98320  0.15917  0.45008  1.0000
  C   C6707     1.0  0.78113  0.05066  0.38926  1.0000
  C   C6708     1.0  0.77613  0.06335  0.39197  1.0000
  C   C6709     1.0  0.78468  0.07041  0.39332  1.0000
  C   C6710     1.0  0.79818  0.06472  0.39236  1.0000
  C   C6711     1.0  0.80315  0.05203  0.38966  1.0000
  C   C6712     1.0  0.79468  0.04512  0.38798  1.0000
  H   H5327     1.0  0.76572  0.06778  0.39286  1.0000
  H   H5328     1.0  0.78085  0.08026  0.39521  1.0000
  H   H5329     1.0  0.81358  0.04768  0.38853  1.0000
  H   H5330     1.0  0.79863  0.03543  0.38568  1.0000
  H   H5331     1.0  0.92697  0.04819  0.47268  1.0000
  C   C6713     1.0  0.84405  0.00257  0.42547  1.0000
  C   C6714     1.0  0.94498  0.20546  0.38047  1.0000
  C   C6715     1.0  0.95513  0.17224  0.33745  1.0000
  C   C6716     1.0  0.93773  0.21216  0.35968  1.0000
  C   C6717     1.0  0.98451  0.08615  0.45569  1.0000
  H   H5332     1.0  0.81850  0.01687  0.45534  1.0000
  H   H5333     1.0  0.76359  0.99249  0.36686  1.0000
  C   C6718     1.0  0.86335  0.21767  0.47271  1.0000
  C   C6719     1.0  0.86217  0.99450  0.38563  1.0000
  C   C6720     1.0  0.93829  0.10999  0.47330  1.0000
  C   C6721     1.0  0.83486  0.99717  0.39193  1.0000
  C   C6722     1.0  0.84021  0.00789  0.39133  1.0000
  C   C6723     1.0  0.85391  0.00652  0.38824  1.0000
  H   H5334     1.0  0.87275  0.99344  0.38312  1.0000
  H   H5335     1.0  0.78854  0.99132  0.41251  1.0000
  H   H5336     1.0  0.82429  0.99814  0.39449  1.0000
  H   H5337     1.0  0.83379  0.01718  0.39326  1.0000
  H   H5338     1.0  0.86360  0.22775  0.46717  1.0000
  H   H5339     1.0  0.80470  0.06012  0.45939  1.0000
  H   H5340     1.0  0.89184  0.00815  0.43750  1.0000
  C   C6724     1.0  0.88838  0.02140  0.40075  1.0000
  C   C6725     1.0  0.94241  0.15993  0.45015  1.0000
  C   C6726     1.0  0.91847  0.09571  0.48057  1.0000
  H   H5341     1.0  0.96765  0.22433  0.33812  1.0000
  H   H5342     1.0  0.89419  0.03863  0.40168  1.0000
  C   C6727     1.0  0.93372  0.18051  0.41437  1.0000
  C   C6728     1.0  0.73751  0.99626  0.38257  1.0000
  S   S879      1.0  0.92966  0.21153  0.45059  1.0000
  H   H5343     1.0  0.88693  0.02536  0.39064  1.0000
  H   H5344     1.0  0.78485  0.99914  0.46805  1.0000
  C   C6729     1.0  0.91585  0.19272  0.38989  1.0000
  C   C6730     1.0  0.91411  0.03471  0.47696  1.0000
  C   C6731     1.0  0.74207  0.00590  0.46930  1.0000
  C   C6732     1.0  0.74298  0.04966  0.44214  1.0000
  H   H5345     1.0  0.88860  0.10088  0.47422  1.0000
  C   C6733     1.0  0.80625  0.07014  0.45618  1.0000
  H   H5346     1.0  0.76454  0.06320  0.42042  1.0000
  C   C6734     1.0  0.85683  0.98381  0.38633  1.0000
  H   H5347     1.0  0.97971  0.14762  0.39664  1.0000
  C   C6735     1.0  0.97510  0.20052  0.39730  1.0000
  H   H5348     1.0  0.76134  0.03875  0.44764  1.0000
  H   H5349     1.0  0.85819  0.00976  0.43042  1.0000
  C   C6736     1.0  0.89093  0.01164  0.42723  1.0000
  C   C6737     1.0  0.89381  0.02394  0.42020  1.0000
  C   C6738     1.0  0.98145  0.19186  0.43314  1.0000
  H   H5350     1.0  0.86023  0.99707  0.47530  1.0000
  H   H5351     1.0  0.88715  0.04077  0.46415  1.0000
  C   C6739     1.0  0.81380  0.00877  0.46118  1.0000
  H   H5352     1.0  0.92425  0.16580  0.37590  1.0000
  H   H5353     1.0  0.85185  0.09179  0.45724  1.0000
  H   H5354     1.0  0.74696  0.05021  0.43162  1.0000
  H   H5355     1.0  0.83671  0.99352  0.34860  1.0000
  H   H5356     1.0  0.97731  0.16407  0.44274  1.0000
  H   H5357     1.0  0.81682  0.98501  0.35210  1.0000
  C   C6740     1.0  0.91100  0.13414  0.46084  1.0000
  H   H5358     1.0  0.93993  0.18131  0.44570  1.0000
  C   C6741     1.0  0.97485  0.20490  0.42895  1.0000
  H   H5359     1.0  0.83665  0.01167  0.42601  1.0000
  H   H5360     1.0  0.81560  0.01947  0.37522  1.0000
  H   H5361     1.0  0.78125  0.03329  0.47986  1.0000
  H   H5362     1.0  0.90216  0.16321  0.38936  1.0000
  H   H5363     1.0  0.91016  0.20378  0.42889  1.0000
  C   C6742     1.0  0.94900  0.06240  0.43047  1.0000
  S   S880      1.0  0.96023  0.21682  0.45810  1.0000
  H   H5364     1.0  0.76273  0.01680  0.32769  1.0000
  H   H5365     1.0  0.89394  0.07826  0.47062  1.0000
  C   C6743     1.0  0.90746  0.17598  0.45991  1.0000
  H   H5366     1.0  0.94793  0.13863  0.45186  1.0000
  H   H5367     1.0  0.94536  0.17413  0.32183  1.0000
  H   H5368     1.0  0.97413  0.21176  0.47856  1.0000
  C   C6744     1.0  0.93233  0.18332  0.33763  1.0000
  P   P229      1.0  0.89046  0.06765  0.44923  1.0000
  C   C6745     1.0  0.90112  0.06652  0.43313  1.0000
  C   C6746     1.0  0.87428  0.06531  0.45028  1.0000
  C   C6747     1.0  0.86942  0.06818  0.43870  1.0000
  C   C6748     1.0  0.85664  0.06706  0.43957  1.0000
  C   C6749     1.0  0.84850  0.06334  0.45201  1.0000
  H   H5369     1.0  0.86428  0.08651  0.47466  1.0000
  C   C6750     1.0  0.84163  0.99227  0.42162  1.0000
  C   C6751     1.0  0.91012  0.07479  0.42719  1.0000
  C   C6752     1.0  0.91906  0.07315  0.41516  1.0000
  C   C6753     1.0  0.91910  0.06324  0.40905  1.0000
  C   C6754     1.0  0.91022  0.05492  0.41497  1.0000
  C   C6755     1.0  0.90133  0.05647  0.42703  1.0000
  C   C6756     1.0  0.88730  0.08412  0.45206  1.0000
  C   C6757     1.0  0.88964  0.08633  0.46343  1.0000
  C   C6758     1.0  0.82874  0.10788  0.47972  1.0000
  C   C6759     1.0  0.88055  0.10984  0.45671  1.0000
  C   C6760     1.0  0.87810  0.10768  0.44544  1.0000
  C   C6761     1.0  0.88153  0.09489  0.44308  1.0000
  C   C6762     1.0  0.94479  0.21866  0.37986  1.0000
  H   H5370     1.0  0.97000  0.16135  0.41775  1.0000
  H   H5371     1.0  0.94696  0.17490  0.46996  1.0000
  H   H5372     1.0  0.86943  0.05972  0.47183  1.0000
  C   C6763     1.0  0.93102  0.18609  0.35000  1.0000
  H   H5373     1.0  0.87543  0.07133  0.42896  1.0000
  H   H5374     1.0  0.85312  0.06898  0.43054  1.0000
  H   H5375     1.0  0.83869  0.06224  0.45263  1.0000
  H   H5376     1.0  0.85978  0.21165  0.45672  1.0000
  C   C6764     1.0  0.94111  0.22862  0.36917  1.0000
  H   H5377     1.0  0.91026  0.08250  0.43183  1.0000
  H   H5378     1.0  0.92582  0.07971  0.41043  1.0000
  H   H5379     1.0  0.92580  0.06222  0.39957  1.0000
  H   H5380     1.0  0.91006  0.04745  0.41006  1.0000
  H   H5381     1.0  0.89452  0.04994  0.43156  1.0000
  C   C6765     1.0  0.86942  0.99287  0.45583  1.0000
  H   H5382     1.0  0.98407  0.12131  0.38786  1.0000
  H   H5383     1.0  0.87835  0.11984  0.45822  1.0000
  H   H5384     1.0  0.87400  0.11597  0.43820  1.0000
  H   H5385     1.0  0.87975  0.09344  0.43418  1.0000
  C   C6766     1.0  0.73993  0.09695  0.40094  1.0000
  C   C6767     1.0  0.77192  0.00517  0.38650  1.0000
  C   C6768     1.0  0.85317  0.06073  0.46361  1.0000
  H   H5386     1.0  0.89975  0.02341  0.47899  1.0000
  H   H5387     1.0  0.79550  0.01776  0.45481  1.0000
  H   H5388     1.0  0.94381  0.17889  0.40880  1.0000
  C   C6769     1.0  0.79303  0.05125  0.43924  1.0000
  C   C6770     1.0  0.79170  0.04365  0.43127  1.0000
  C   C6771     1.0  0.78131  0.04790  0.42467  1.0000
  C   C6772     1.0  0.77237  0.05997  0.42580  1.0000
  C   C6773     1.0  0.77382  0.06783  0.43354  1.0000
  C   C6774     1.0  0.78410  0.06330  0.44040  1.0000
  P   P230      1.0  0.76308  0.08390  0.43438  1.0000
  C   C6775     1.0  0.77361  0.09525  0.43155  1.0000
  C   C6776     1.0  0.75400  0.08924  0.42128  1.0000
  C   C6777     1.0  0.75906  0.09654  0.40867  1.0000
  C   C6778     1.0  0.75208  0.10031  0.39853  1.0000
  H   H5389     1.0  0.73786  0.00285  0.47977  1.0000
  C   C6779     1.0  0.94438  0.17638  0.33137  1.0000
  H   H5390     1.0  0.77091  0.01258  0.44897  1.0000
  C   C6780     1.0  0.76972  0.10570  0.43823  1.0000
  C   C6781     1.0  0.77785  0.11463  0.43563  1.0000
  C   C6782     1.0  0.78984  0.11323  0.42627  1.0000
  C   C6783     1.0  0.79377  0.10283  0.41960  1.0000
  C   C6784     1.0  0.78575  0.09383  0.42228  1.0000
  H   H5391     1.0  0.80950  0.99094  0.44151  1.0000
  H   H5392     1.0  0.80115  0.04791  0.44429  1.0000
  H   H5393     1.0  0.79886  0.03458  0.43010  1.0000
  H   H5394     1.0  0.96464  0.20813  0.43368  1.0000
  C   C6785     1.0  0.96242  0.16091  0.42684  1.0000
  H   H5395     1.0  0.78529  0.06923  0.44646  1.0000
  H   H5396     1.0  0.76851  0.09914  0.40647  1.0000
  H   H5397     1.0  0.75620  0.10566  0.38873  1.0000
  C   C6786     1.0  0.76289  0.00694  0.39841  1.0000
  C   C6787     1.0  0.74088  0.01105  0.44611  1.0000
  C   C6788     1.0  0.95940  0.15278  0.39541  1.0000
  H   H5398     1.0  0.76039  0.10706  0.44532  1.0000
  H   H5399     1.0  0.77478  0.12275  0.44073  1.0000
  H   H5400     1.0  0.79606  0.12023  0.42410  1.0000
  H   H5401     1.0  0.80301  0.10172  0.41225  1.0000
  H   H5402     1.0  0.78895  0.08590  0.41688  1.0000
  H   H5403     1.0  0.76213  0.06455  0.46033  1.0000
  C   C6789     1.0  0.88539  0.00916  0.40777  1.0000
  H   H5404     1.0  0.79579  0.01073  0.37940  1.0000
  H   H5405     1.0  0.77323  0.01380  0.37850  1.0000
  H   H5406     1.0  0.77818  0.05745  0.47658  1.0000
  H   H5407     1.0  0.92553  0.18305  0.47740  1.0000
  C   C6790     1.0  0.89248  0.02886  0.40699  1.0000
  H   H5408     1.0  0.83236  0.99336  0.41907  1.0000
  H   H5409     1.0  0.90576  0.98692  0.40801  1.0000
  C   C6791     1.0  0.79486  0.99878  0.46836  1.0000
  H   H5410     1.0  0.81363  0.10536  0.44385  1.0000
  C   C6792     1.0  0.92355  0.18360  0.38204  1.0000
  C   C6793     1.0  0.97211  0.15500  0.39225  1.0000
  H   H5411     1.0  0.75742  0.01682  0.39950  1.0000
  H   H5412     1.0  0.79771  0.00763  0.34274  1.0000
  H   H5413     1.0  0.78561  0.01900  0.32497  1.0000
  C   C6794     1.0  0.91845  0.17305  0.38175  1.0000
  H   H5414     1.0  0.75195  0.00319  0.34855  1.0000
  H   H5415     1.0  0.96711  0.22136  0.39439  1.0000
  C   C6795     1.0  0.97493  0.22846  0.35297  1.0000
  C   C6796     1.0  0.91479  0.19454  0.42570  1.0000
  H   H5416     1.0  0.92396  0.18644  0.33296  1.0000
  C   C6797     1.0  0.80163  0.98798  0.47646  1.0000
  H   H5417     1.0  0.89753  0.19810  0.40366  1.0000
  S   S881      1.0  0.94568  0.23151  0.42610  1.0000
  H   H5418     1.0  0.98001  0.04555  0.43352  1.0000
  C   C6798     1.0  0.86902  0.99218  0.46916  1.0000
  C   C6799     1.0  0.94780  0.16557  0.47724  1.0000
  C   C6800     1.0  0.84318  0.98508  0.38951  1.0000
  C   C6801     1.0  0.81303  0.07416  0.44314  1.0000
  H   H5419     1.0  0.94703  0.22119  0.38797  1.0000
  C   C6802     1.0  0.98195  0.11831  0.39863  1.0000
  C   C6803     1.0  0.79382  0.99603  0.41639  1.0000
  C   C6804     1.0  0.79528  0.00897  0.41007  1.0000
  C   C6805     1.0  0.80228  0.01515  0.41475  1.0000
  C   C6806     1.0  0.80737  0.00861  0.42609  1.0000
  C   C6807     1.0  0.80561  0.99582  0.43266  1.0000
  C   C6808     1.0  0.84731  0.09539  0.46635  1.0000
  C   C6809     1.0  0.76741  0.98321  0.40709  1.0000
  C   C6810     1.0  0.74427  0.07198  0.47325  1.0000
  H   H5420     1.0  0.91956  0.20079  0.39060  1.0000
  H   H5421     1.0  0.95711  0.14384  0.40241  1.0000
  H   H5422     1.0  0.77713  0.09666  0.46596  1.0000
  C   C6811     1.0  0.79914  0.98932  0.42763  1.0000
  C   C6812     1.0  0.75114  0.04325  0.45120  1.0000
  C   C6813     1.0  0.93762  0.22536  0.35906  1.0000
  C   C6814     1.0  0.98550  0.19038  0.39325  1.0000
  H   H5423     1.0  0.75328  0.99739  0.41775  1.0000
  C   C6815     1.0  0.91077  0.05677  0.46283  1.0000
  C   C6816     1.0  0.80444  0.09166  0.46034  1.0000
  C   C6817     1.0  0.91814  0.04668  0.47100  1.0000
  H   H5424     1.0  0.88887  0.17918  0.40340  1.0000
  H   H5425     1.0  0.76031  0.00668  0.47299  1.0000
  H   H5426     1.0  0.96445  0.16676  0.33265  1.0000
  H   H5427     1.0  0.79099  0.01423  0.40152  1.0000
  H   H5428     1.0  0.80373  0.02503  0.40961  1.0000
  H   H5429     1.0  0.81281  0.01339  0.42971  1.0000
  C   C6818     1.0  0.90445  0.12941  0.47380  1.0000
  C   C6819     1.0  0.94096  0.15606  0.47764  1.0000
  C   C6820     1.0  0.74184  0.08582  0.42356  1.0000
  H   H5430     1.0  0.96200  0.06681  0.46453  1.0000
  Fe  Fe437     1.0  0.94289  0.22504  0.44834  1.0000
  C   C6821     1.0  0.97909  0.09356  0.46555  1.0000
  C   C6822     1.0  0.94177  0.18195  0.35621  1.0000
  H   H5431     1.0  0.75344  0.10728  0.47030  1.0000
  H   H5432     1.0  0.98560  0.18018  0.39853  1.0000
  H   H5433     1.0  0.96041  0.04306  0.42779  1.0000
  C   C6823     1.0  0.96171  0.08144  0.47470  1.0000
  P   P231      1.0  0.93984  0.18534  0.37235  1.0000
  C   C6824     1.0  0.90327  0.19126  0.39733  1.0000
  C   C6825     1.0  0.97280  0.22495  0.44832  1.0000
  H   H5434     1.0  0.81621  0.06732  0.43656  1.0000
  C   C6826     1.0  0.74003  0.09337  0.45188  1.0000
  C   C6827     1.0  0.76064  0.99599  0.40871  1.0000
  C   C6828     1.0  0.95236  0.17364  0.38046  1.0000
  H   H5435     1.0  0.90946  0.13130  0.45260  1.0000
  H   H5436     1.0  0.92158  0.19141  0.35476  1.0000
  C   C6829     1.0  0.76094  0.01106  0.45194  1.0000
  H   H5437     1.0  0.98032  0.21833  0.35559  1.0000
  H   H5438     1.0  0.93464  0.20993  0.35194  1.0000
  C   C6830     1.0  0.74415  0.03764  0.35381  1.0000
  C   C6831     1.0  0.74198  0.05142  0.35167  1.0000
  H   H5439     1.0  0.89809  0.12262  0.47559  1.0000
  H   H5440     1.0  0.97414  0.10801  0.43715  1.0000
  H   H5441     1.0  0.97651  0.22417  0.41639  1.0000
  H   H5442     1.0  0.92397  0.14662  0.44824  1.0000
  S   S882      1.0  0.93720  0.20464  0.41499  1.0000
  H   H5443     1.0  0.80119  0.09850  0.46695  1.0000
  C   C6832     1.0  0.96029  0.05215  0.43036  1.0000
  C   C6833     1.0  0.89918  0.05503  0.46073  1.0000
  C   C6834     1.0  0.74615  0.04266  0.46485  1.0000
  C   C6835     1.0  0.97643  0.11081  0.42639  1.0000
  S   S883      1.0  0.89371  0.23000  0.46707  1.0000
  H   H5444     1.0  0.96753  0.18488  0.37058  1.0000
  C   C6836     1.0  0.90762  0.19522  0.47266  1.0000
  C   C6837     1.0  0.97138  0.05361  0.43361  1.0000
  P   P232      1.0  0.88204  0.98869  0.43013  1.0000
  C   C6838     1.0  0.86180  0.19538  0.47374  1.0000
  C   C6839     1.0  0.91950  0.14262  0.45846  1.0000
  H   H5445     1.0  0.97613  0.18549  0.44121  1.0000
  H   H5446     1.0  0.74999  0.05603  0.35077  1.0000
  H   H5447     1.0  0.75388  0.03157  0.35457  1.0000
  H   H5448     1.0  0.98222  0.13575  0.47906  1.0000
  C   C6840     1.0  0.89555  0.04275  0.46625  1.0000
  H   H5449     1.0  0.94601  0.11545  0.47045  1.0000
  H   H5450     1.0  0.95757  0.18204  0.42540  1.0000
  C   C6841     1.0  0.82063  0.99798  0.46924  1.0000
  H   H5451     1.0  0.94743  0.19797  0.38908  1.0000
  C   C6842     1.0  0.95961  0.14871  0.43429  1.0000
  C   C6843     1.0  0.90285  0.03273  0.47452  1.0000
  H   H5452     1.0  0.90718  0.16873  0.45479  1.0000
  H   H5453     1.0  0.82736  0.03562  0.47293  1.0000
  C   C6844     1.0  0.91790  0.18397  0.47240  1.0000
  C   C6845     1.0  0.81576  0.01193  0.37023  1.0000
  C   C6846     1.0  0.80455  0.00683  0.37266  1.0000
  H   H5454     1.0  0.98000  0.04764  0.46744  1.0000
  H   H5455     1.0  0.83057  0.99793  0.46956  1.0000
  C   C6847     1.0  0.75499  0.00774  0.46545  1.0000
  C   C6848     1.0  0.90592  0.17156  0.38932  1.0000
  C   C6849     1.0  0.94538  0.17212  0.44268  1.0000
  C   C6850     1.0  0.96779  0.09111  0.47514  1.0000
  H   H5456     1.0  0.88181  0.00373  0.40289  1.0000
  C   C6851     1.0  0.95545  0.17256  0.43116  1.0000
  C   C6852     1.0  0.84691  0.02902  0.47676  1.0000
  C   C6853     1.0  0.97122  0.06537  0.43698  1.0000
  C   C6854     1.0  0.97499  0.16660  0.38333  1.0000
  H   H5457     1.0  0.94036  0.06120  0.42813  1.0000
  H   H5458     1.0  0.96508  0.13964  0.43101  1.0000
  H   H5459     1.0  0.75852  0.01528  0.43181  1.0000
  C   C6855     1.0  0.92791  0.19245  0.41867  1.0000
  C   C6856     1.0  0.86598  0.06178  0.46276  1.0000
  H   H5460     1.0  0.73908  0.99990  0.37194  1.0000
  C   C6857     1.0  0.94977  0.14819  0.44602  1.0000
  H   H5461     1.0  0.78031  0.04203  0.41842  1.0000
  C   C6858     1.0  0.88092  0.98687  0.44772  1.0000
  C   C6859     1.0  0.77069  0.09268  0.47503  1.0000
  H   H5462     1.0  0.82120  0.08979  0.42859  1.0000
  H   H5463     1.0  0.95972  0.08509  0.43892  1.0000
  C   C6860     1.0  0.98152  0.21390  0.41922  1.0000
  C   C6861     1.0  0.91800  0.17427  0.46590  1.0000
  C   C6862     1.0  0.80087  0.00925  0.46085  1.0000
  C   C6863     1.0  0.77909  0.99242  0.38493  1.0000
  S   S884      1.0  0.75660  0.03449  0.47600  1.0000
  C   C6864     1.0  0.75361  0.07266  0.46119  1.0000
  C   C6865     1.0  0.89710  0.18713  0.46040  1.0000
  C   C6866     1.0  0.81641  0.99241  0.35736  1.0000
  C   C6867     1.0  0.85437  0.09237  0.47631  1.0000
  H   H5464     1.0  0.86057  0.18824  0.46902  1.0000
  C   C6868     1.0  0.82767  0.99734  0.35518  1.0000
  H   H5465     1.0  0.82903  0.10540  0.46034  1.0000
  P   P233      1.0  0.93066  0.15916  0.46592  1.0000
  C   C6869     1.0  0.82736  0.00706  0.36166  1.0000
  C   C6870     1.0  0.97516  0.21373  0.39082  1.0000
  H   H5466     1.0  0.84695  0.05760  0.47325  1.0000
  H   H5467     1.0  0.96708  0.19821  0.40564  1.0000
  C   C6871     1.0  0.96000  0.07579  0.43664  1.0000
  C   C6872     1.0  0.96513  0.17597  0.37753  1.0000
  C   C6873     1.0  0.94963  0.16191  0.38938  1.0000
  H   H5468     1.0  0.91415  0.06592  0.45808  1.0000
  P   P234      1.0  0.79036  0.99019  0.36927  1.0000
  C   C6874     1.0  0.80482  0.99687  0.36638  1.0000
  C   C6875     1.0  0.78161  0.99899  0.35613  1.0000
  C   C6876     1.0  0.78771  0.00662  0.34425  1.0000
  C   C6877     1.0  0.78086  0.01310  0.33408  1.0000
  C   C6878     1.0  0.76797  0.01189  0.33562  1.0000
  C   C6879     1.0  0.76185  0.00433  0.34740  1.0000
  C   C6880     1.0  0.76854  0.99815  0.35771  1.0000
  H   H5469     1.0  0.73817  0.10164  0.44363  1.0000
  H   H5470     1.0  0.96230  0.17157  0.35437  1.0000
  Fe  Fe438     1.0  0.93123  0.21908  0.42861  1.0000
  C   C6881     1.0  0.94145  0.20209  0.37040  1.0000
  C   C6882     1.0  0.97860  0.07625  0.45528  1.0000
  H   H5471     1.0  0.93998  0.15970  0.39177  1.0000
  C   C6883     1.0  0.96708  0.07402  0.46486  1.0000
  C   C6884     1.0  0.94888  0.07422  0.43356  1.0000
  H   H5472     1.0  0.73786  0.07994  0.43308  1.0000
  C   C6885     1.0  0.81150  0.09556  0.44732  1.0000
  H   H5473     1.0  0.83615  0.01072  0.36018  1.0000
  C   C6886     1.0  0.88635  0.09918  0.46568  1.0000
  C   C6887     1.0  0.80168  0.07893  0.46482  1.0000
  H   H5474     1.0  0.88950  0.20562  0.46663  1.0000
  H   H5475     1.0  0.88903  0.18837  0.45576  1.0000
  C   C6888     1.0  0.89728  0.19680  0.46662  1.0000
  C   C6889     1.0  0.97825  0.15009  0.46126  1.0000
  H   H5476     1.0  0.86080  0.99831  0.45196  1.0000
  C   C6890     1.0  0.98556  0.21693  0.38011  1.0000
  P   P235      1.0  0.98506  0.06698  0.44221  1.0000
  C   C6891     1.0  0.81454  0.98756  0.47711  1.0000
  Fe  Fe439     1.0  0.91339  0.22961  0.45268  1.0000
  C   C6892     1.0  0.83447  0.10309  0.46807  1.0000
  C   C6893     1.0  0.75725  0.09873  0.47743  1.0000
  H   H5477     1.0  0.98490  0.16826  0.38080  1.0000
  C   C6894     1.0  0.98596  0.14297  0.47051  1.0000
  C   C6895     1.0  0.98611  0.21878  0.44795  1.0000
  Fe  Fe440     1.0  0.85372  0.00687  0.53084  1.0000
  S   S885      1.0  0.84796  0.02528  0.53918  1.0000
  C   C6896     1.0  0.94360  0.14352  0.48606  1.0000
  P   P236      1.0  0.86901  0.19531  0.50932  1.0000
  S   S886      1.0  0.85699  0.04133  0.50828  1.0000
  C   C6897     1.0  0.97479  0.22369  0.54588  1.0000
  Fe  Fe441     1.0  0.86675  0.03048  0.52542  1.0000
  S   S887      1.0  0.88364  0.03692  0.52906  1.0000
  Fe  Fe442     1.0  0.83879  0.03460  0.52135  1.0000
  S   S888      1.0  0.81902  0.04882  0.52106  1.0000
  S   S889      1.0  0.87325  0.01108  0.51873  1.0000
  S   S890      1.0  0.84336  0.01593  0.51400  1.0000
  Fe  Fe443     1.0  0.89974  0.10130  0.53866  1.0000
  S   S891      1.0  0.92136  0.09184  0.53440  1.0000
  S   S892      1.0  0.88231  0.09205  0.54143  1.0000
  Fe  Fe444     1.0  0.90483  0.12864  0.53617  1.0000
  S   S893      1.0  0.92664  0.12149  0.53131  1.0000
  S   S894      1.0  0.89594  0.15045  0.53513  1.0000
  Fe  Fe445     1.0  0.92330  0.11017  0.51845  1.0000
  Fe  Fe446     1.0  0.93552  0.22128  0.53273  1.0000
  Fe  Fe447     1.0  0.92322  0.10385  0.54768  1.0000
  S   S895      1.0  0.93782  0.09754  0.56096  1.0000
  S   S896      1.0  0.90165  0.11896  0.52161  1.0000
  S   S897      1.0  0.90130  0.11175  0.55364  1.0000
  Fe  Fe448     1.0  0.91667  0.20505  0.55281  1.0000
  S   S898      1.0  0.92075  0.21137  0.53049  1.0000
  S   S899      1.0  0.91583  0.18366  0.56324  1.0000
  C   C6898     1.0  0.90580  0.17085  0.50519  1.0000
  H   H5478     1.0  0.97045  0.19257  0.49662  1.0000
  H   H5479     1.0  0.96501  0.14842  0.50125  1.0000
  C   C6899     1.0  0.97778  0.09178  0.54906  1.0000
  S   S900      1.0  0.93260  0.21355  0.55479  1.0000
  H   H5480     1.0  0.96534  0.18610  0.53988  1.0000
  C   C6900     1.0  0.84068  0.17333  0.52565  1.0000
  H   H5481     1.0  0.95191  0.14209  0.59546  1.0000
  S   S901      1.0  0.76943  0.02293  0.53527  1.0000
  H   H5482     1.0  0.84351  0.02881  0.48727  1.0000
  H   H5483     1.0  0.91077  0.09025  0.48334  1.0000
  H   H5484     1.0  0.91334  0.22323  0.48318  1.0000
  H   H5485     1.0  0.79324  0.09301  0.51867  1.0000
  S   S902      1.0  0.75228  0.01606  0.51329  1.0000
  C   C6901     1.0  0.90402  0.22811  0.48854  1.0000
  C   C6902     1.0  0.98473  0.05048  0.49265  1.0000
  H   H5486     1.0  0.79619  0.01184  0.53757  1.0000
  C   C6903     1.0  0.82053  0.07890  0.49820  1.0000
  H   H5487     1.0  0.91554  0.14516  0.49042  1.0000
  H   H5488     1.0  0.84961  0.06782  0.51450  1.0000
  C   C6904     1.0  0.95407  0.09513  0.55130  1.0000
  C   C6905     1.0  0.96480  0.09387  0.55683  1.0000
  H   H5489     1.0  0.92424  0.17512  0.50448  1.0000
  C   C6906     1.0  0.93395  0.06510  0.50546  1.0000
  C   C6907     1.0  0.96925  0.09212  0.53034  1.0000
  C   C6908     1.0  0.95635  0.09440  0.53799  1.0000
  H   H5490     1.0  0.96309  0.09447  0.56711  1.0000
  H   H5491     1.0  0.86480  0.18105  0.49175  1.0000
  H   H5492     1.0  0.97091  0.09154  0.52008  1.0000
  H   H5493     1.0  0.94817  0.09546  0.53360  1.0000
  C   C6909     1.0  0.90188  0.15937  0.54294  1.0000
  C   C6910     1.0  0.90914  0.15296  0.55278  1.0000
  C   C6911     1.0  0.91320  0.16048  0.55914  1.0000
  C   C6912     1.0  0.91030  0.17441  0.55548  1.0000
  C   C6913     1.0  0.90324  0.18078  0.54551  1.0000
  C   C6914     1.0  0.89896  0.17329  0.53939  1.0000
  H   H5494     1.0  0.91142  0.14224  0.55566  1.0000
  H   H5495     1.0  0.91862  0.15548  0.56689  1.0000
  H   H5496     1.0  0.90095  0.19150  0.54261  1.0000
  H   H5497     1.0  0.89342  0.17835  0.53184  1.0000
  H   H5498     1.0  0.96633  0.16972  0.50707  1.0000
  H   H5499     1.0  0.98271  0.22282  0.50852  1.0000
  C   C6915     1.0  0.84759  0.18306  0.51773  1.0000
  C   C6916     1.0  0.86571  0.21364  0.48559  1.0000
  H   H5500     1.0  0.83108  0.17355  0.52426  1.0000
  C   C6917     1.0  0.88307  0.05245  0.53221  1.0000
  C   C6918     1.0  0.87116  0.06133  0.53561  1.0000
  C   C6919     1.0  0.87112  0.07344  0.53831  1.0000
  C   C6920     1.0  0.88299  0.07688  0.53746  1.0000
  C   C6921     1.0  0.89494  0.06808  0.53386  1.0000
  C   C6922     1.0  0.89494  0.05582  0.53148  1.0000
  H   H5501     1.0  0.86199  0.05869  0.53651  1.0000
  H   H5502     1.0  0.86181  0.08011  0.54121  1.0000
  H   H5503     1.0  0.90414  0.07060  0.53315  1.0000
  H   H5504     1.0  0.90418  0.04894  0.52897  1.0000
  C   C6923     1.0  0.80642  0.02791  0.53010  1.0000
  C   C6924     1.0  0.80533  0.04150  0.52475  1.0000
  C   C6925     1.0  0.79316  0.04941  0.52226  1.0000
  C   C6926     1.0  0.87111  0.13034  0.50121  1.0000
  H   H5505     1.0  0.81567  0.02176  0.53228  1.0000
  H   H5506     1.0  0.87821  0.20027  0.53046  1.0000
  C   C6927     1.0  0.90619  0.13337  0.48441  1.0000
  C   C6928     1.0  0.76689  0.07648  0.49581  1.0000
  H   H5507     1.0  0.86304  0.06761  0.49367  1.0000
  S   S903      1.0  0.95571  0.22121  0.51921  1.0000
  C   C6929     1.0  0.96771  0.17750  0.52307  1.0000
  H   H5508     1.0  0.93880  0.15991  0.57503  1.0000
  H   H5509     1.0  0.95359  0.19380  0.57233  1.0000
  H   H5510     1.0  0.88482  0.08965  0.50442  1.0000
  H   H5511     1.0  0.79222  0.05993  0.51830  1.0000
  C   C6930     1.0  0.93983  0.07210  0.51048  1.0000
  H   H5512     1.0  0.74995  0.98445  0.49362  1.0000
  H   H5513     1.0  0.91731  0.09666  0.50077  1.0000
  C   C6931     1.0  0.93344  0.04820  0.52593  1.0000
  C   C6932     1.0  0.93958  0.05509  0.53093  1.0000
  C   C6933     1.0  0.94260  0.06716  0.52315  1.0000
  P   P237      1.0  0.94127  0.04991  0.54803  1.0000
  C   C6934     1.0  0.94296  0.03221  0.55363  1.0000
  C   C6935     1.0  0.95605  0.05322  0.54996  1.0000
  C   C6936     1.0  0.95721  0.05364  0.56256  1.0000
  H   H5514     1.0  0.95511  0.22308  0.54604  1.0000
  H   H5515     1.0  0.94894  0.13402  0.52282  1.0000
  C   C6937     1.0  0.95543  0.18361  0.57141  1.0000
  C   C6938     1.0  0.96675  0.05482  0.53904  1.0000
  C   C6939     1.0  0.95172  0.02376  0.54556  1.0000
  C   C6940     1.0  0.95320  0.01000  0.54987  1.0000
  C   C6941     1.0  0.94604  0.00460  0.56232  1.0000
  C   C6942     1.0  0.93747  0.01295  0.57050  1.0000
  C   C6943     1.0  0.93599  0.02672  0.56623  1.0000
  C   C6944     1.0  0.92614  0.05853  0.55721  1.0000
  C   C6945     1.0  0.91413  0.05547  0.55793  1.0000
  C   C6946     1.0  0.90220  0.06279  0.56401  1.0000
  C   C6947     1.0  0.90217  0.07322  0.56940  1.0000
  C   C6948     1.0  0.91407  0.07627  0.56880  1.0000
  C   C6949     1.0  0.92599  0.06906  0.56261  1.0000
  H   H5516     1.0  0.93561  0.15189  0.53449  1.0000
  H   H5517     1.0  0.92579  0.04791  0.50950  1.0000
  H   H5518     1.0  0.75975  0.99772  0.54468  1.0000
  H   H5519     1.0  0.93032  0.03925  0.53202  1.0000
  H   H5520     1.0  0.94667  0.07304  0.52705  1.0000
  H   H5521     1.0  0.94931  0.05197  0.57124  1.0000
  H   H5522     1.0  0.94718  0.99394  0.56567  1.0000
  H   H5523     1.0  0.98213  0.04227  0.49079  1.0000
  H   H5524     1.0  0.94925  0.11945  0.56904  1.0000
  H   H5525     1.0  0.96643  0.05393  0.52936  1.0000
  H   H5526     1.0  0.95740  0.02783  0.53594  1.0000
  C   C6950     1.0  0.92211  0.09940  0.49039  1.0000
  H   H5527     1.0  0.74851  0.00159  0.58527  1.0000
  H   H5528     1.0  0.93200  0.00877  0.58020  1.0000
  H   H5529     1.0  0.92944  0.03301  0.57280  1.0000
  H   H5530     1.0  0.91390  0.04770  0.55345  1.0000
  H   H5531     1.0  0.89293  0.06070  0.56413  1.0000
  H   H5532     1.0  0.89289  0.07916  0.57371  1.0000
  H   H5533     1.0  0.91405  0.08456  0.57270  1.0000
  H   H5534     1.0  0.93496  0.07214  0.56158  1.0000
  H   H5535     1.0  0.93366  0.10844  0.58699  1.0000
  C   C6951     1.0  0.89463  0.05919  0.49736  1.0000
  C   C6952     1.0  0.78326  0.03018  0.53044  1.0000
  C   C6953     1.0  0.83581  0.10487  0.48970  1.0000
  H   H5536     1.0  0.84080  0.15581  0.54157  1.0000
  C   C6954     1.0  0.89521  0.07071  0.50051  1.0000
  H   H5537     1.0  0.86524  0.10114  0.52155  1.0000
  H   H5538     1.0  0.88258  0.04914  0.49256  1.0000
  C   C6955     1.0  0.96056  0.18267  0.53429  1.0000
  C   C6956     1.0  0.86520  0.17302  0.52959  1.0000
  H   H5539     1.0  0.95993  0.00351  0.54359  1.0000
  C   C6957     1.0  0.95619  0.16295  0.48593  1.0000
  C   C6958     1.0  0.86235  0.10806  0.50131  1.0000
  C   C6959     1.0  0.79769  0.02856  0.48911  1.0000
  H   H5540     1.0  0.81853  0.00840  0.51364  1.0000
  C   C6960     1.0  0.87195  0.06865  0.49557  1.0000
  H   H5541     1.0  0.91138  0.22656  0.50585  1.0000
  C   C6961     1.0  0.86006  0.18277  0.51945  1.0000
  C   C6962     1.0  0.96712  0.12914  0.54564  1.0000
  C   C6963     1.0  0.75987  0.99321  0.55505  1.0000
  C   C6964     1.0  0.96828  0.17668  0.56730  1.0000
  S   S904      1.0  0.74835  0.04833  0.50821  1.0000
  C   C6965     1.0  0.96493  0.22303  0.54009  1.0000
  H   H5542     1.0  0.76912  0.98488  0.50012  1.0000
  C   C6966     1.0  0.93214  0.10641  0.48673  1.0000
  H   H5543     1.0  0.77283  0.04989  0.52308  1.0000
  H   H5544     1.0  0.78739  0.99143  0.53480  1.0000
  C   C6967     1.0  0.89490  0.19750  0.50594  1.0000
  C   C6968     1.0  0.79915  0.08832  0.51054  1.0000
  H   H5545     1.0  0.82323  0.99202  0.53393  1.0000
  H   H5546     1.0  0.83123  0.10870  0.49865  1.0000
  H   H5547     1.0  0.92691  0.11405  0.60929  1.0000
  H   H5548     1.0  0.86777  0.22065  0.48980  1.0000
  H   H5549     1.0  0.82430  0.09999  0.54272  1.0000
  C   C6969     1.0  0.78221  0.04374  0.52488  1.0000
  C   C6970     1.0  0.86786  0.12940  0.48980  1.0000
  C   C6971     1.0  0.84629  0.08801  0.51668  1.0000
  H   H5550     1.0  0.83374  0.06096  0.53492  1.0000
  C   C6972     1.0  0.98052  0.22292  0.51897  1.0000
  H   H5551     1.0  0.77047  0.06783  0.50301  1.0000
  H   H5552     1.0  0.96908  0.05743  0.57366  1.0000
  C   C6973     1.0  0.75363  0.00100  0.56449  1.0000
  P   P238      1.0  0.85757  0.09328  0.50120  1.0000
  H   H5553     1.0  0.73759  0.00249  0.50530  1.0000
  H   H5554     1.0  0.87269  0.12074  0.52148  1.0000
  H   H5555     1.0  0.83116  0.07616  0.49683  1.0000
  H   H5556     1.0  0.87169  0.21885  0.54176  1.0000
  H   H5557     1.0  0.84317  0.19082  0.51034  1.0000
  H   H5558     1.0  0.87978  0.98541  0.48477  1.0000
  H   H5559     1.0  0.87458  0.13887  0.50118  1.0000
  Fe  Fe449     1.0  0.75250  0.03052  0.52467  1.0000
  C   C6974     1.0  0.81288  0.08521  0.50848  1.0000
  C   C6975     1.0  0.77319  0.98617  0.50769  1.0000
  H   H5560     1.0  0.93155  0.06913  0.49573  1.0000
  C   C6976     1.0  0.82280  0.98872  0.52539  1.0000
  H   H5561     1.0  0.97958  0.14987  0.52628  1.0000
  C   C6977     1.0  0.96778  0.22250  0.52664  1.0000
  H   H5562     1.0  0.81386  0.02702  0.49790  1.0000
  C   C6978     1.0  0.87228  0.08015  0.49913  1.0000
  C   C6979     1.0  0.83523  0.07104  0.53214  1.0000
  C   C6980     1.0  0.95831  0.15058  0.49469  1.0000
  C   C6981     1.0  0.79537  0.02230  0.53307  1.0000
  C   C6982     1.0  0.84427  0.07501  0.52046  1.0000
  H   H5563     1.0  0.88616  0.16920  0.50659  1.0000
  C   C6983     1.0  0.86347  0.11831  0.48984  1.0000
  C   C6984     1.0  0.88410  0.08111  0.50148  1.0000
  H   H5564     1.0  0.74677  0.07853  0.50706  1.0000
  H   H5565     1.0  0.95420  0.13094  0.50083  1.0000
  H   H5566     1.0  0.74912  0.01137  0.56122  1.0000
  C   C6985     1.0  0.94718  0.16439  0.57288  1.0000
  C   C6986     1.0  0.94490  0.17744  0.57428  1.0000
  C   C6987     1.0  0.94693  0.18378  0.53824  1.0000
  C   C6988     1.0  0.94033  0.18004  0.53088  1.0000
  C   C6989     1.0  0.94737  0.17497  0.51966  1.0000
  C   C6990     1.0  0.96101  0.17357  0.51585  1.0000
  H   H5567     1.0  0.94240  0.15549  0.55300  1.0000
  H   H5568     1.0  0.96519  0.05761  0.50340  1.0000
  C   C6991     1.0  0.78022  0.99612  0.50472  1.0000
  Fe  Fe450     1.0  0.86235  0.02177  0.50253  1.0000
  C   C6992     1.0  0.97846  0.06961  0.50250  1.0000
  C   C6993     1.0  0.88664  0.18912  0.50689  1.0000
  C   C6994     1.0  0.86377  0.20866  0.51811  1.0000
  H   H5569     1.0  0.94195  0.08158  0.50474  1.0000
  C   C6995     1.0  0.84611  0.16337  0.53543  1.0000
  C   C6996     1.0  0.93076  0.05313  0.51319  1.0000
  C   C6997     1.0  0.75348  0.08255  0.49816  1.0000
  C   C6998     1.0  0.89226  0.17585  0.50605  1.0000
  C   C6999     1.0  0.82027  0.99797  0.51385  1.0000
  C   C7000     1.0  0.85835  0.16325  0.53742  1.0000
  C   C7001     1.0  0.83880  0.09707  0.52469  1.0000
  C   C7002     1.0  0.80444  0.04729  0.49144  1.0000
  H   H5570     1.0  0.93938  0.13566  0.48580  1.0000
  H   H5571     1.0  0.94143  0.18775  0.54692  1.0000
  H   H5572     1.0  0.92975  0.18115  0.53384  1.0000
  H   H5573     1.0  0.94225  0.17206  0.51399  1.0000
  H   H5574     1.0  0.83979  0.10727  0.52191  1.0000
  H   H5575     1.0  0.81758  0.08746  0.51501  1.0000
  C   C7003     1.0  0.86580  0.20055  0.49277  1.0000
  H   H5576     1.0  0.90409  0.07139  0.50281  1.0000
  Fe  Fe451     1.0  0.90604  0.23002  0.53419  1.0000
  C   C7004     1.0  0.98280  0.12312  0.58020  1.0000
  C   C7005     1.0  0.86629  0.21879  0.53463  1.0000
  H   H5577     1.0  0.97101  0.07633  0.50807  1.0000
  H   H5578     1.0  0.93491  0.18286  0.57744  1.0000
  C   C7006     1.0  0.87012  0.20838  0.52800  1.0000
  C   C7007     1.0  0.95219  0.14079  0.49455  1.0000
  C   C7008     1.0  0.91383  0.17909  0.50495  1.0000
  C   C7009     1.0  0.90841  0.19246  0.50519  1.0000
  H   H5579     1.0  0.87450  0.17291  0.53151  1.0000
  H   H5580     1.0  0.86262  0.15563  0.54505  1.0000
  C   C7010     1.0  0.88306  0.05821  0.49476  1.0000
  H   H5581     1.0  0.91463  0.19893  0.50488  1.0000
  C   C7011     1.0  0.94466  0.14580  0.53732  1.0000
  C   C7012     1.0  0.95214  0.13571  0.53076  1.0000
  H   H5582     1.0  0.97537  0.12202  0.54918  1.0000
  H   H5583     1.0  0.97251  0.22397  0.55632  1.0000
  C   C7013     1.0  0.95981  0.13949  0.55212  1.0000
  C   C7014     1.0  0.94853  0.14779  0.54788  1.0000
  P   P239      1.0  0.96299  0.14019  0.56754  1.0000
  C   C7015     1.0  0.95172  0.13174  0.58085  1.0000
  C   C7016     1.0  0.85579  0.22933  0.53181  1.0000
  C   C7017     1.0  0.81445  0.07564  0.49000  1.0000
  H   H5584     1.0  0.89087  0.20789  0.50605  1.0000
  C   C7018     1.0  0.97984  0.13196  0.56846  1.0000
  H   H5585     1.0  0.93611  0.13086  0.61344  1.0000
  H   H5586     1.0  0.78237  0.08730  0.50441  1.0000
  C   C7019     1.0  0.94799  0.13476  0.59351  1.0000
  C   C7020     1.0  0.93908  0.12838  0.60373  1.0000
  C   C7021     1.0  0.93390  0.11891  0.60141  1.0000
  C   C7022     1.0  0.93768  0.11575  0.58888  1.0000
  C   C7023     1.0  0.94657  0.12209  0.57865  1.0000
  C   C7024     1.0  0.96009  0.15730  0.56874  1.0000
  H   H5587     1.0  0.79031  0.00593  0.51254  1.0000
  C   C7025     1.0  0.97798  0.05776  0.54053  1.0000
  H   H5588     1.0  0.98071  0.15855  0.56274  1.0000
  C   C7026     1.0  0.80600  0.03361  0.49335  1.0000
  C   C7027     1.0  0.97064  0.16360  0.56593  1.0000
  H   H5589     1.0  0.78123  0.00280  0.49501  1.0000
  S   S905      1.0  0.90099  0.22325  0.55651  1.0000
  C   C7028     1.0  0.98001  0.09069  0.53585  1.0000
  H   H5590     1.0  0.79904  0.01798  0.49036  1.0000
  S   S906      1.0  0.93777  0.11005  0.49883  1.0000
  C   C7029     1.0  0.78350  0.98975  0.52726  1.0000
  C   C7030     1.0  0.78534  0.99791  0.51454  1.0000
  H   H5591     1.0  0.90299  0.05085  0.49735  1.0000
  C   C7031     1.0  0.87001  0.12017  0.51264  1.0000
  H   H5592     1.0  0.90996  0.16044  0.50526  1.0000
  Fe  Fe452     1.0  0.91741  0.23257  0.55601  1.0000
  C   C7032     1.0  0.86569  0.10908  0.51269  1.0000
  C   C7033     1.0  0.97516  0.05910  0.49986  1.0000
  C   C7034     1.0  0.89299  0.23246  0.48281  1.0000
  H   H5593     1.0  0.97506  0.12095  0.58887  1.0000
  C   C7035     1.0  0.79434  0.05607  0.48552  1.0000
  C   C7036     1.0  0.80063  0.07842  0.49222  1.0000
  H   H5594     1.0  0.90106  0.12975  0.49443  1.0000
  C   C7037     1.0  0.79302  0.08499  0.50243  1.0000
  C   C7038     1.0  0.82810  0.08001  0.54020  1.0000
  C   C7039     1.0  0.82032  0.99373  0.50261  1.0000
  H   H5595     1.0  0.84728  0.21903  0.50877  1.0000
  C   C7040     1.0  0.96846  0.05658  0.56402  1.0000
  C   C7041     1.0  0.96339  0.12742  0.53487  1.0000
  C   C7042     1.0  0.82986  0.09303  0.53646  1.0000
  H   H5596     1.0  0.82118  0.07685  0.54930  1.0000
  H   H5597     1.0  0.96890  0.11928  0.53007  1.0000
  Fe  Fe453     1.0  0.74667  0.03387  0.49757  1.0000
  C   C7043     1.0  0.91459  0.14194  0.48209  1.0000
  C   C7044     1.0  0.85278  0.21894  0.51583  1.0000
  H   H5598     1.0  0.73826  0.09836  0.49089  1.0000
  H   H5599     1.0  0.96137  0.17039  0.48553  1.0000
  C   C7045     1.0  0.84863  0.09691  0.48817  1.0000
  H   H5600     1.0  0.81873  0.00112  0.49371  1.0000
  H   H5601     1.0  0.97642  0.18149  0.56515  1.0000
  C   C7046     1.0  0.78766  0.03722  0.48315  1.0000
  S   S907      1.0  0.85024  0.98688  0.54324  1.0000
  C   C7047     1.0  0.74868  0.09373  0.48904  1.0000
  H   H5602     1.0  0.81113  0.05084  0.49471  1.0000
  H   H5603     1.0  0.86415  0.98600  0.51599  1.0000
  C   C7048     1.0  0.97904  0.19639  0.49533  1.0000
  H   H5604     1.0  0.96353  0.09697  0.48269  1.0000
  C   C7049     1.0  0.84891  0.22932  0.52255  1.0000
  C   C7050     1.0  0.90291  0.22995  0.50137  1.0000
  C   C7051     1.0  0.97879  0.05874  0.55299  1.0000
  C   C7052     1.0  0.86414  0.19135  0.48663  1.0000
  C   C7053     1.0  0.77562  0.08159  0.48430  1.0000
  C   C7054     1.0  0.98108  0.20739  0.48499  1.0000
  H   H5605     1.0  0.91973  0.02691  0.48338  1.0000
  C   C7055     1.0  0.75332  0.99548  0.57800  1.0000
  H   H5606     1.0  0.95260  0.08000  0.48174  1.0000
  H   H5607     1.0  0.82053  0.07058  0.48219  1.0000
  P   P240      1.0  0.79297  0.07379  0.48173  1.0000
  C   C7056     1.0  0.78595  0.05092  0.48136  1.0000
  H   H5608     1.0  0.81879  0.11389  0.48106  1.0000
  H   H5609     1.0  0.86112  0.11770  0.48089  1.0000
  S   S908      1.0  0.87193  0.02045  0.48129  1.0000
  H   H5610     1.0  0.86884  0.13723  0.48089  1.0000
  P   P241      1.0  0.98520  0.17645  0.51731  1.0000
  H   H5611     1.0  0.74580  0.06352  0.48141  1.0000
  H   H5612     1.0  0.98479  0.19657  0.53105  1.0000
  H   H5613     1.0  0.98605  0.09065  0.55339  1.0000
  H   H5614     1.0  0.98596  0.05962  0.53198  1.0000
  C   C7057     1.0  0.97558  0.46463  0.04916  1.0000
  C   C7058     1.0  0.85309  0.34472  0.01692  1.0000
  C   C7059     1.0  0.89815  0.32073  0.47557  1.0000
  S   S909      1.0  0.78248  0.39012  0.05777  1.0000
  C   C7060     1.0  0.77666  0.48035  0.02305  1.0000
  S   S910      1.0  0.78329  0.36628  0.00998  1.0000
  C   C7061     1.0  0.84544  0.33893  0.01248  1.0000
  Fe  Fe454     1.0  0.86776  0.41882  0.01429  1.0000
  S   S911      1.0  0.87451  0.39876  0.02696  1.0000
  S   S912      1.0  0.86878  0.42620  0.99220  1.0000
  Fe  Fe455     1.0  0.85573  0.43159  0.03791  1.0000
  S   S913      1.0  0.86124  0.41289  0.05268  1.0000
  S   S914      1.0  0.84297  0.45020  0.04386  1.0000
  Fe  Fe456     1.0  0.88074  0.41005  0.03819  1.0000
  S   S915      1.0  0.90003  0.40213  0.04513  1.0000
  Fe  Fe457     1.0  0.85453  0.40317  0.04054  1.0000
  S   S916      1.0  0.84303  0.38753  0.05228  1.0000
  S   S917      1.0  0.87573  0.42971  0.02429  1.0000
  S   S918      1.0  0.84730  0.42218  0.02705  1.0000
  Fe  Fe458     1.0  0.95922  0.41437  0.09576  1.0000
  S   S919      1.0  0.94204  0.40447  0.10112  1.0000
  H   H5615     1.0  0.74445  0.37450  0.00417  1.0000
  Fe  Fe459     1.0  0.94280  0.43819  0.10679  1.0000
  S   S920      1.0  0.92425  0.43048  0.11336  1.0000
  S   S921      1.0  0.94561  0.45740  0.10867  1.0000
  Fe  Fe460     1.0  0.93730  0.41109  0.12053  1.0000
  S   S922      1.0  0.93088  0.39723  0.14004  1.0000
  Fe  Fe461     1.0  0.93025  0.42470  0.09346  1.0000
  S   S923      1.0  0.91413  0.43167  0.08156  1.0000
  S   S924      1.0  0.95536  0.41929  0.11571  1.0000
  S   S925      1.0  0.94788  0.43398  0.08649  1.0000
  Fe  Fe462     1.0  0.94409  0.43086  0.20446  1.0000
  S   S926      1.0  0.93282  0.41561  0.21774  1.0000
  S   S927      1.0  0.96574  0.42405  0.19634  1.0000
  H   H5616     1.0  0.81960  0.43177  0.02632  1.0000
  S   S928      1.0  0.90653  0.43943  0.21656  1.0000
  Fe  Fe463     1.0  0.92171  0.43155  0.22903  1.0000
  S   S929      1.0  0.91347  0.43096  0.25097  1.0000
  Fe  Fe464     1.0  0.91878  0.42482  0.20402  1.0000
  S   S930      1.0  0.91012  0.41184  0.19702  1.0000
  C   C7062     1.0  0.81105  0.42491  0.05497  1.0000
  S   S931      1.0  0.93069  0.43904  0.19008  1.0000
  Fe  Fe465     1.0  0.92808  0.24787  0.43032  1.0000
  H   H5617     1.0  0.75017  0.44926  0.04742  1.0000
  S   S932      1.0  0.92610  0.26911  0.41872  1.0000
  C   C7063     1.0  0.76938  0.46633  0.98562  1.0000
  H   H5618     1.0  0.80895  0.41736  0.05154  1.0000
  C   C7064     1.0  0.74383  0.35145  0.04355  1.0000
  S   S933      1.0  0.91967  0.35609  0.46210  1.0000
  C   C7065     1.0  0.85424  0.35307  0.06112  1.0000
  C   C7066     1.0  0.74152  0.46838  0.01884  1.0000
  C   C7067     1.0  0.98317  0.30826  0.39364  1.0000
  C   C7068     1.0  0.89958  0.47348  0.28752  1.0000
  C   C7069     1.0  0.78083  0.34916  0.98228  1.0000
  Fe  Fe466     1.0  0.96267  0.43119  0.31100  1.0000
  H   H5619     1.0  0.81152  0.46047  0.02806  1.0000
  C   C7070     1.0  0.80482  0.43824  0.05117  1.0000
  Fe  Fe467     1.0  0.94522  0.41473  0.30915  1.0000
  S   S934      1.0  0.93052  0.41845  0.32817  1.0000
  S   S935      1.0  0.94740  0.40228  0.29453  1.0000
  Fe  Fe468     1.0  0.94846  0.41521  0.33635  1.0000
  S   S936      1.0  0.95282  0.40518  0.35660  1.0000
  H   H5620     1.0  0.93460  0.38036  0.20972  1.0000
  S   S937      1.0  0.96282  0.40965  0.31814  1.0000
  S   S938      1.0  0.95267  0.33747  0.44256  1.0000
  Fe  Fe469     1.0  0.93412  0.35119  0.41379  1.0000
  S   S939      1.0  0.95455  0.33844  0.41117  1.0000
  S   S940      1.0  0.92495  0.35995  0.39589  1.0000
  Fe  Fe470     1.0  0.94702  0.32613  0.43115  1.0000
  S   S941      1.0  0.95329  0.30387  0.43717  1.0000
  Fe  Fe471     1.0  0.95799  0.35103  0.42279  1.0000
  S   S942      1.0  0.97533  0.36057  0.41479  1.0000
  S   S943      1.0  0.92610  0.33780  0.43293  1.0000
  S   S944      1.0  0.93804  0.36462  0.42420  1.0000
  H   H5621     1.0  0.74433  0.39636  0.98910  1.0000
  H   H5622     1.0  0.90546  0.46414  0.07217  1.0000
  H   H5623     1.0  0.96750  0.23683  0.47539  1.0000
  C   C7071     1.0  0.96523  0.39017  0.43178  1.0000
  C   C7072     1.0  0.96708  0.26098  0.40162  1.0000
  C   C7073     1.0  0.87967  0.47995  0.12711  1.0000
  C   C7074     1.0  0.94549  0.39193  0.36653  1.0000
  C   C7075     1.0  0.93419  0.38977  0.36433  1.0000
  C   C7076     1.0  0.92802  0.37975  0.37321  1.0000
  C   C7077     1.0  0.93310  0.37195  0.38433  1.0000
  C   C7078     1.0  0.94458  0.37394  0.38626  1.0000
  C   C7079     1.0  0.95078  0.38382  0.37734  1.0000
  H   H5624     1.0  0.93006  0.39595  0.35596  1.0000
  H   H5625     1.0  0.91921  0.37817  0.37159  1.0000
  H   H5626     1.0  0.94873  0.36786  0.39464  1.0000
  H   H5627     1.0  0.95970  0.38519  0.37888  1.0000
  C   C7080     1.0  0.92825  0.35519  0.47425  1.0000
  H   H5628     1.0  0.90868  0.45595  0.26378  1.0000
  H   H5629     1.0  0.95138  0.39066  0.21221  1.0000
  C   C7081     1.0  0.90328  0.38546  0.42174  1.0000
  H   H5630     1.0  0.95664  0.40661  0.23226  1.0000
  S   S945      1.0  0.94600  0.43611  0.30092  1.0000
  C   C7082     1.0  0.81159  0.34554  0.04465  1.0000
  H   H5631     1.0  0.74603  0.35206  0.05260  1.0000
  C   C7083     1.0  0.93332  0.27886  0.42415  1.0000
  C   C7084     1.0  0.94288  0.27284  0.43171  1.0000
  C   C7085     1.0  0.94904  0.28063  0.43551  1.0000
  C   C7086     1.0  0.94530  0.29449  0.43224  1.0000
  C   C7087     1.0  0.93558  0.30057  0.42483  1.0000
  C   C7088     1.0  0.92975  0.29275  0.42062  1.0000
  H   H5632     1.0  0.94573  0.26217  0.43435  1.0000
  H   H5633     1.0  0.95678  0.27589  0.44096  1.0000
  H   H5634     1.0  0.93277  0.31128  0.42210  1.0000
  H   H5635     1.0  0.92243  0.29748  0.41465  1.0000
  H   H5636     1.0  0.78095  0.47686  0.05073  1.0000
  H   H5637     1.0  0.94989  0.24444  0.46274  1.0000
  S   S946      1.0  0.92651  0.24254  0.45242  1.0000
  H   H5638     1.0  0.91207  0.39919  0.42543  1.0000
  H   H5639     1.0  0.80198  0.45808  0.05406  1.0000
  H   H5640     1.0  0.94025  0.46982  0.22605  1.0000
  H   H5641     1.0  0.74302  0.46088  0.00160  1.0000
  C   C7089     1.0  0.94837  0.35432  0.48063  1.0000
  C   C7090     1.0  0.89758  0.43428  0.43110  1.0000
  C   C7091     1.0  0.82241  0.43085  0.06818  1.0000
  H   H5642     1.0  0.82510  0.41095  0.06575  1.0000
  C   C7092     1.0  0.86674  0.33952  0.01510  1.0000
  C   C7093     1.0  0.81999  0.42124  0.06326  1.0000
  C   C7094     1.0  0.92330  0.42300  0.26272  1.0000
  C   C7095     1.0  0.93503  0.41369  0.25980  1.0000
  C   C7096     1.0  0.94244  0.40725  0.26960  1.0000
  C   C7097     1.0  0.93826  0.41037  0.28222  1.0000
  C   C7098     1.0  0.92661  0.41975  0.28507  1.0000
  C   C7099     1.0  0.91907  0.42594  0.27540  1.0000
  H   H5643     1.0  0.93812  0.41120  0.25014  1.0000
  H   H5644     1.0  0.95139  0.39987  0.26744  1.0000
  H   H5645     1.0  0.92323  0.42190  0.29489  1.0000
  H   H5646     1.0  0.90987  0.43295  0.27780  1.0000
  C   C7100     1.0  0.92534  0.40207  0.15552  1.0000
  C   C7101     1.0  0.92714  0.41381  0.15737  1.0000
  C   C7102     1.0  0.92269  0.41690  0.17013  1.0000
  C   C7103     1.0  0.91636  0.40835  0.18094  1.0000
  C   C7104     1.0  0.91437  0.39684  0.17891  1.0000
  C   C7105     1.0  0.91899  0.39363  0.16636  1.0000
  H   H5647     1.0  0.93201  0.42041  0.14903  1.0000
  H   H5648     1.0  0.92389  0.42598  0.17159  1.0000
  H   H5649     1.0  0.90936  0.39026  0.18715  1.0000
  H   H5650     1.0  0.91754  0.38457  0.16503  1.0000
  H   H5651     1.0  0.79136  0.35631  0.04578  1.0000
  H   H5652     1.0  0.86919  0.31363  0.00148  1.0000
  H   H5653     1.0  0.92037  0.45787  0.10456  1.0000
  C   C7106     1.0  0.98002  0.45354  0.20034  1.0000
  C   C7107     1.0  0.90402  0.41034  0.05521  1.0000
  C   C7108     1.0  0.89653  0.42274  0.05734  1.0000
  C   C7109     1.0  0.90003  0.42918  0.06518  1.0000
  C   C7110     1.0  0.91084  0.42323  0.07121  1.0000
  C   C7111     1.0  0.91828  0.41075  0.06922  1.0000
  C   C7112     1.0  0.91494  0.40438  0.06114  1.0000
  H   H5654     1.0  0.88813  0.42742  0.05283  1.0000
  H   H5655     1.0  0.89432  0.43883  0.06662  1.0000
  H   H5656     1.0  0.92662  0.40602  0.07384  1.0000
  H   H5657     1.0  0.92080  0.39478  0.05953  1.0000
  H   H5658     1.0  0.94079  0.23886  0.36883  1.0000
  H   H5659     1.0  0.96276  0.26719  0.40883  1.0000
  C   C7113     1.0  0.84139  0.47653  0.03369  1.0000
  C   C7114     1.0  0.84982  0.46406  0.03602  1.0000
  C   C7115     1.0  0.86347  0.46293  0.03296  1.0000
  C   C7116     1.0  0.86862  0.47439  0.02796  1.0000
  C   C7117     1.0  0.76182  0.31806  0.99762  1.0000
  H   H5660     1.0  0.83082  0.47741  0.03601  1.0000
  H   H5661     1.0  0.87003  0.45333  0.03488  1.0000
  H   H5662     1.0  0.87912  0.47364  0.02576  1.0000
  C   C7118     1.0  0.97516  0.23812  0.35936  1.0000
  H   H5663     1.0  0.88685  0.26196  0.47477  1.0000
  C   C7119     1.0  0.97131  0.44641  0.19950  1.0000
  C   C7120     1.0  0.97620  0.43372  0.19674  1.0000
  H   H5664     1.0  0.87416  0.45102  0.00079  1.0000
  H   H5665     1.0  0.96348  0.45780  0.31055  1.0000
  H   H5666     1.0  0.97425  0.38879  0.34324  1.0000
  H   H5667     1.0  0.96085  0.45070  0.20106  1.0000
  C   C7121     1.0  0.94968  0.46036  0.27269  1.0000
  H   H5668     1.0  0.94045  0.46428  0.30456  1.0000
  C   C7122     1.0  0.91494  0.45240  0.29153  1.0000
  C   C7123     1.0  0.89891  0.46570  0.04390  1.0000
  C   C7124     1.0  0.73773  0.35116  0.01984  1.0000
  H   H5669     1.0  0.92840  0.31206  0.45584  1.0000
  H   H5670     1.0  0.98149  0.37483  0.11960  1.0000
  C   C7125     1.0  0.87252  0.32838  0.00951  1.0000
  C   C7126     1.0  0.96237  0.44547  0.37404  1.0000
  C   C7127     1.0  0.96408  0.39992  0.39376  1.0000
  C   C7128     1.0  0.95658  0.40231  0.43321  1.0000
  C   C7129     1.0  0.97763  0.31784  0.38359  1.0000
  C   C7130     1.0  0.79957  0.38924  0.05485  1.0000
  C   C7131     1.0  0.80590  0.38197  0.06521  1.0000
  C   C7132     1.0  0.81924  0.38139  0.06399  1.0000
  C   C7133     1.0  0.82642  0.38840  0.05256  1.0000
  C   C7134     1.0  0.82026  0.39560  0.04196  1.0000
  C   C7135     1.0  0.80680  0.39596  0.04308  1.0000
  H   H5671     1.0  0.80042  0.37677  0.07430  1.0000
  H   H5672     1.0  0.82393  0.37570  0.07214  1.0000
  H   H5673     1.0  0.82576  0.40099  0.03305  1.0000
  H   H5674     1.0  0.80198  0.40167  0.03504  1.0000
  H   H5675     1.0  0.96880  0.25900  0.35987  1.0000
  S   S947      1.0  0.91094  0.47443  0.19662  1.0000
  C   C7136     1.0  0.97680  0.47522  0.10653  1.0000
  P   P242      1.0  0.98533  0.23400  0.37136  1.0000
  H   H5676     1.0  0.80611  0.44818  0.98251  1.0000
  H   H5677     1.0  0.86090  0.47753  0.12623  1.0000
  H   H5678     1.0  0.76227  0.41313  0.06455  1.0000
  H   H5679     1.0  0.82078  0.45688  0.09610  1.0000
  C   C7137     1.0  0.79996  0.47922  0.01987  1.0000
  C   C7138     1.0  0.91019  0.47829  0.10136  1.0000
  H   H5680     1.0  0.93520  0.39403  0.41413  1.0000
  C   C7139     1.0  0.86143  0.47774  0.14612  1.0000
  C   C7140     1.0  0.87892  0.40172  0.98563  1.0000
  C   C7141     1.0  0.77928  0.36402  0.99619  1.0000
  P   P243      1.0  0.92385  0.47151  0.26957  1.0000
  H   H5681     1.0  0.95799  0.24436  0.38425  1.0000
  C   C7142     1.0  0.97623  0.37680  0.27527  1.0000
  H   H5682     1.0  0.88051  0.39790  0.99566  1.0000
  H   H5683     1.0  0.84396  0.36679  0.99647  1.0000
  H   H5684     1.0  0.94689  0.35632  0.46044  1.0000
  C   C7143     1.0  0.89442  0.30852  0.47934  1.0000
  C   C7144     1.0  0.89414  0.45486  0.16939  1.0000
  C   C7145     1.0  0.95301  0.43934  0.26067  1.0000
  C   C7146     1.0  0.93341  0.48000  0.19857  1.0000
  C   C7147     1.0  0.94179  0.31855  0.47768  1.0000
  H   H5685     1.0  0.94417  0.46402  0.07479  1.0000
  C   C7148     1.0  0.98326  0.47734  0.31069  1.0000
  C   C7149     1.0  0.96477  0.40894  0.23451  1.0000
  C   C7150     1.0  0.86674  0.47838  0.13254  1.0000
  H   H5686     1.0  0.97795  0.44557  0.16616  1.0000
  H   H5687     1.0  0.90708  0.45376  0.35236  1.0000
  H   H5688     1.0  0.90223  0.37967  0.43191  1.0000
  C   C7151     1.0  0.93576  0.46865  0.07024  1.0000
  C   C7152     1.0  0.90123  0.38867  0.39909  1.0000
  C   C7153     1.0  0.74670  0.33968  0.99611  1.0000
  C   C7154     1.0  0.90670  0.44138  0.38541  1.0000
  H   H5689     1.0  0.78753  0.34302  0.00056  1.0000
  C   C7155     1.0  0.95525  0.39380  0.40423  1.0000
  H   H5690     1.0  0.89740  0.48203  0.13071  1.0000
  C   C7156     1.0  0.96515  0.47687  0.33021  1.0000
  C   C7157     1.0  0.95276  0.47935  0.16497  1.0000
  H   H5691     1.0  0.89740  0.45999  0.37425  1.0000
  C   C7158     1.0  0.78296  0.35128  0.99368  1.0000
  C   C7159     1.0  0.75063  0.44531  0.01698  1.0000
  C   C7160     1.0  0.81433  0.34630  0.99975  1.0000
  H   H5692     1.0  0.96238  0.47445  0.07207  1.0000
  C   C7161     1.0  0.95812  0.45554  0.17273  1.0000
  C   C7162     1.0  0.98340  0.40226  0.24510  1.0000
  H   H5693     1.0  0.88602  0.45217  0.31457  1.0000
  H   H5694     1.0  0.96291  0.46608  0.03622  1.0000
  H   H5695     1.0  0.86493  0.47437  0.99237  1.0000
  C   C7163     1.0  0.90554  0.44765  0.30245  1.0000
  H   H5696     1.0  0.81140  0.35636  0.00108  1.0000
  H   H5697     1.0  0.80583  0.33879  0.02027  1.0000
  C   C7164     1.0  0.88516  0.45668  0.19610  1.0000
  H   H5698     1.0  0.89762  0.45399  0.15908  1.0000
  S   S948      1.0  0.74121  0.47704  0.04106  1.0000
  C   C7165     1.0  0.86472  0.32235  0.00567  1.0000
  H   H5699     1.0  0.82212  0.37426  0.98980  1.0000
  S   S949      1.0  0.97977  0.40813  0.08373  1.0000
  C   C7166     1.0  0.92480  0.46291  0.07435  1.0000
  C   C7167     1.0  0.80783  0.47537  0.08929  1.0000
  C   C7168     1.0  0.87554  0.47104  0.99070  1.0000
  H   H5700     1.0  0.97624  0.46326  0.20265  1.0000
  H   H5701     1.0  0.77273  0.45654  0.05948  1.0000
  H   H5702     1.0  0.76628  0.30888  0.00361  1.0000
  H   H5703     1.0  0.92474  0.45384  0.08194  1.0000
  C   C7169     1.0  0.98472  0.38530  0.34291  1.0000
  C   C7170     1.0  0.75372  0.35103  0.03195  1.0000
  C   C7171     1.0  0.91893  0.47246  0.15438  1.0000
  C   C7172     1.0  0.86655  0.35636  0.05760  1.0000
  H   H5704     1.0  0.97653  0.25373  0.42589  1.0000
  C   C7173     1.0  0.92362  0.47239  0.31850  1.0000
  C   C7174     1.0  0.74486  0.45843  0.01151  1.0000
  H   H5705     1.0  0.94231  0.42554  0.37955  1.0000
  C   C7175     1.0  0.75953  0.44357  0.06998  1.0000
  H   H5706     1.0  0.80647  0.39514  0.99350  1.0000
  C   C7176     1.0  0.97045  0.46086  0.23367  1.0000
  C   C7177     1.0  0.97456  0.48293  0.40260  1.0000
  C   C7178     1.0  0.92030  0.42537  0.37234  1.0000
  C   C7179     1.0  0.86904  0.47881  0.15423  1.0000
  S   S950      1.0  0.98143  0.43743  0.29950  1.0000
  C   C7180     1.0  0.75650  0.43137  0.07140  1.0000
  Fe  Fe472     1.0  0.74459  0.39062  0.03811  1.0000
  H   H5707     1.0  0.76368  0.35120  0.03196  1.0000
  H   H5708     1.0  0.98354  0.46557  0.29713  1.0000
  H   H5709     1.0  0.97253  0.43319  0.26460  1.0000
  C   C7181     1.0  0.96447  0.44322  0.36129  1.0000
  H   H5710     1.0  0.95460  0.44187  0.38193  1.0000
  C   C7182     1.0  0.89318  0.45584  0.30596  1.0000
  C   C7183     1.0  0.90700  0.39967  0.39524  1.0000
  H   H5711     1.0  0.96022  0.30544  0.47166  1.0000
  H   H5712     1.0  0.95423  0.42351  0.42857  1.0000
  H   H5713     1.0  0.90239  0.47678  0.22493  1.0000
  H   H5714     1.0  0.82960  0.42809  0.07430  1.0000
  H   H5715     1.0  0.81776  0.45157  0.06858  1.0000
  P   P244      1.0  0.84539  0.35876  0.02471  1.0000
  C   C7184     1.0  0.82824  0.35815  0.03169  1.0000
  C   C7185     1.0  0.85363  0.35769  0.03769  1.0000
  C   C7186     1.0  0.87239  0.36043  0.04417  1.0000
  C   C7187     1.0  0.86598  0.36109  0.03427  1.0000
  C   C7188     1.0  0.81817  0.36931  0.02886  1.0000
  C   C7189     1.0  0.80496  0.36853  0.03388  1.0000
  C   C7190     1.0  0.84654  0.37399  0.01234  1.0000
  C   C7191     1.0  0.84526  0.37513  0.99936  1.0000
  C   C7192     1.0  0.96155  0.24683  0.47481  1.0000
  C   C7193     1.0  0.97831  0.42445  0.23155  1.0000
  C   C7194     1.0  0.84877  0.39690  0.00631  1.0000
  C   C7195     1.0  0.84810  0.38504  0.01579  1.0000
  H   H5716     1.0  0.75842  0.35069  0.01122  1.0000
  H   H5717     1.0  0.88174  0.36339  0.04145  1.0000
  H   H5718     1.0  0.87053  0.36459  0.02394  1.0000
  H   H5719     1.0  0.82042  0.37867  0.02294  1.0000
  H   H5720     1.0  0.79721  0.37719  0.03188  1.0000
  C   C7196     1.0  0.90648  0.46251  0.02126  1.0000
  H   H5721     1.0  0.97913  0.31170  0.44255  1.0000
  H   H5722     1.0  0.95545  0.24752  0.33151  1.0000
  H   H5723     1.0  0.85045  0.40524  0.00888  1.0000
  H   H5724     1.0  0.84883  0.38457  0.02577  1.0000
  C   C7197     1.0  0.95894  0.45961  0.23106  1.0000
  H   H5725     1.0  0.97042  0.38958  0.24633  1.0000
  H   H5726     1.0  0.96754  0.47809  0.26103  1.0000
  H   H5727     1.0  0.97356  0.38522  0.27984  1.0000
  C   C7198     1.0  0.90892  0.39652  0.41798  1.0000
  C   C7199     1.0  0.97806  0.48197  0.38925  1.0000
  P   P245      1.0  0.97474  0.39579  0.16508  1.0000
  C   C7200     1.0  0.96247  0.38994  0.17926  1.0000
  C   C7201     1.0  0.96912  0.41335  0.15896  1.0000
  C   C7202     1.0  0.95608  0.41981  0.16363  1.0000
  C   C7203     1.0  0.95096  0.43260  0.15698  1.0000
  C   C7204     1.0  0.95881  0.43904  0.14575  1.0000
  C   C7205     1.0  0.90449  0.46562  0.24459  1.0000
  C   C7206     1.0  0.97825  0.24449  0.38329  1.0000
  C   C7207     1.0  0.95323  0.38366  0.17804  1.0000
  C   C7208     1.0  0.94329  0.38014  0.18904  1.0000
  C   C7209     1.0  0.94254  0.38274  0.20132  1.0000
  C   C7210     1.0  0.95191  0.38864  0.20270  1.0000
  C   C7211     1.0  0.96177  0.39231  0.19171  1.0000
  H   H5728     1.0  0.73741  0.47855  0.01446  1.0000
  H   H5729     1.0  0.96787  0.45468  0.38633  1.0000
  C   C7212     1.0  0.91639  0.47384  0.25566  1.0000
  C   C7213     1.0  0.82989  0.46746  0.07706  1.0000
  H   H5730     1.0  0.88743  0.43580  0.43666  1.0000
  C   C7214     1.0  0.89016  0.46875  0.29844  1.0000
  C   C7215     1.0  0.91507  0.42884  0.38478  1.0000
  C   C7216     1.0  0.88195  0.48074  0.14877  1.0000
  H   H5731     1.0  0.90492  0.29393  0.44922  1.0000
  H   H5732     1.0  0.93649  0.26737  0.46091  1.0000
  C   C7217     1.0  0.96727  0.46420  0.31402  1.0000
  H   H5733     1.0  0.94963  0.41483  0.17203  1.0000
  H   H5734     1.0  0.94077  0.43735  0.16026  1.0000
  H   H5735     1.0  0.95458  0.44854  0.14009  1.0000
  C   C7218     1.0  0.76545  0.32031  0.98372  1.0000
  P   P246      1.0  0.91926  0.41731  0.39970  1.0000
  H   H5736     1.0  0.95341  0.38160  0.16869  1.0000
  H   H5737     1.0  0.93596  0.37566  0.18794  1.0000
  H   H5738     1.0  0.96869  0.39727  0.19288  1.0000
  H   H5739     1.0  0.91303  0.47890  0.00644  1.0000
  C   C7219     1.0  0.89947  0.38151  0.41229  1.0000
  H   H5740     1.0  0.89166  0.32921  0.47931  1.0000
  C   C7220     1.0  0.94915  0.47084  0.22806  1.0000
  H   H5741     1.0  0.97556  0.40710  0.27203  1.0000
  C   C7221     1.0  0.87189  0.44813  0.08554  1.0000
  C   C7222     1.0  0.86786  0.45095  0.07354  1.0000
  C   C7223     1.0  0.86388  0.44131  0.07013  1.0000
  C   C7224     1.0  0.86411  0.42878  0.07858  1.0000
  C   C7225     1.0  0.86858  0.42565  0.09041  1.0000
  C   C7226     1.0  0.87216  0.43555  0.09401  1.0000
  P   P247      1.0  0.86895  0.40928  0.10110  1.0000
  C   C7227     1.0  0.88123  0.40527  0.11096  1.0000
  C   C7228     1.0  0.85288  0.40865  0.11189  1.0000
  C   C7229     1.0  0.84385  0.42035  0.11448  1.0000
  C   C7230     1.0  0.83139  0.41976  0.12281  1.0000
  C   C7231     1.0  0.82791  0.40751  0.12862  1.0000
  C   C7232     1.0  0.83689  0.39582  0.12616  1.0000
  C   C7233     1.0  0.84935  0.39637  0.11786  1.0000
  C   C7234     1.0  0.89335  0.40899  0.10521  1.0000
  C   C7235     1.0  0.90289  0.40606  0.11269  1.0000
  C   C7236     1.0  0.90044  0.39933  0.12602  1.0000
  C   C7237     1.0  0.88842  0.39553  0.13186  1.0000
  C   C7238     1.0  0.87883  0.39846  0.12438  1.0000
  C   C7239     1.0  0.87322  0.39754  0.09049  1.0000
  C   C7240     1.0  0.88648  0.39225  0.08521  1.0000
  C   C7241     1.0  0.88973  0.38386  0.07634  1.0000
  C   C7242     1.0  0.87981  0.38078  0.07255  1.0000
  C   C7243     1.0  0.86659  0.38590  0.07779  1.0000
  C   C7244     1.0  0.86329  0.39432  0.08665  1.0000
  H   H5742     1.0  0.87525  0.45552  0.08806  1.0000
  H   H5743     1.0  0.86809  0.46046  0.06669  1.0000
  H   H5744     1.0  0.86090  0.44343  0.06078  1.0000
  H   H5745     1.0  0.86104  0.42146  0.07570  1.0000
  H   H5746     1.0  0.87547  0.43349  0.10318  1.0000
  H   H5747     1.0  0.84639  0.42991  0.11011  1.0000
  H   H5748     1.0  0.82444  0.42880  0.12478  1.0000
  H   H5749     1.0  0.81825  0.40705  0.13505  1.0000
  H   H5750     1.0  0.83421  0.38632  0.13068  1.0000
  H   H5751     1.0  0.85624  0.38722  0.11609  1.0000
  H   H5752     1.0  0.89545  0.41418  0.09491  1.0000
  H   H5753     1.0  0.91220  0.40903  0.10813  1.0000
  H   H5754     1.0  0.90787  0.39706  0.13180  1.0000
  H   H5755     1.0  0.88659  0.39028  0.14220  1.0000
  H   H5756     1.0  0.86963  0.39540  0.12914  1.0000
  H   H5757     1.0  0.89441  0.39486  0.08750  1.0000
  H   H5758     1.0  0.89999  0.38026  0.07189  1.0000
  H   H5759     1.0  0.88241  0.37478  0.06520  1.0000
  H   H5760     1.0  0.85890  0.38380  0.07452  1.0000
  H   H5761     1.0  0.85299  0.39865  0.09010  1.0000
  C   C7245     1.0  0.90284  0.46155  0.98690  1.0000
  H   H5762     1.0  0.83277  0.48175  0.12364  1.0000
  H   H5763     1.0  0.97475  0.47250  0.42292  1.0000
  C   C7246     1.0  0.94602  0.27258  0.47329  1.0000
  H   H5764     1.0  0.96613  0.41569  0.37637  1.0000
  C   C7247     1.0  0.73943  0.38963  0.98750  1.0000
  H   H5765     1.0  0.75328  0.45036  0.07616  1.0000
  P   P248      1.0  0.89807  0.28186  0.47844  1.0000
  H   H5766     1.0  0.95598  0.26476  0.34253  1.0000
  C   C7248     1.0  0.90907  0.47524  0.01690  1.0000
  C   C7249     1.0  0.97202  0.43307  0.14160  1.0000
  C   C7250     1.0  0.96404  0.29847  0.39995  1.0000
  C   C7251     1.0  0.95831  0.30836  0.39036  1.0000
  C   C7252     1.0  0.96513  0.31801  0.38213  1.0000
  C   C7253     1.0  0.80598  0.39055  0.98591  1.0000
  C   C7254     1.0  0.97514  0.46688  0.15833  1.0000
  C   C7255     1.0  0.88735  0.48097  0.13518  1.0000
  C   C7256     1.0  0.88637  0.46815  0.18613  1.0000
  S   S951      1.0  0.91371  0.23610  0.43075  1.0000
  C   C7257     1.0  0.87337  0.41516  0.98146  1.0000
  H   H5767     1.0  0.90242  0.44436  0.39481  1.0000
  H   H5768     1.0  0.88395  0.47757  0.18901  1.0000
  H   H5769     1.0  0.97233  0.44982  0.08887  1.0000
  H   H5770     1.0  0.74957  0.32569  0.01458  1.0000
  C   C7258     1.0  0.89087  0.46731  0.17271  1.0000
  H   H5771     1.0  0.94479  0.32729  0.47094  1.0000
  C   C7259     1.0  0.74878  0.45187  0.03738  1.0000
  H   H5772     1.0  0.89523  0.46175  0.05435  1.0000
  C   C7260     1.0  0.96944  0.23748  0.44028  1.0000
  H   H5773     1.0  0.97815  0.41667  0.28917  1.0000
  H   H5774     1.0  0.91202  0.25463  0.47530  1.0000
  C   C7261     1.0  0.97236  0.35559  0.27565  1.0000
  H   H5775     1.0  0.79999  0.47379  0.09800  1.0000
  H   H5776     1.0  0.94855  0.30857  0.38938  1.0000
  H   H5777     1.0  0.96067  0.32570  0.37470  1.0000
  C   C7262     1.0  0.97431  0.44810  0.35107  1.0000
  S   S952      1.0  0.91715  0.45801  0.32357  1.0000
  C   C7263     1.0  0.96164  0.45100  0.27143  1.0000
  H   H5778     1.0  0.88775  0.43538  0.20047  1.0000
  H   H5779     1.0  0.97575  0.47508  0.04603  1.0000
  C   C7264     1.0  0.96449  0.24800  0.38775  1.0000
  H   H5780     1.0  0.95757  0.44994  0.23138  1.0000
  H   H5781     1.0  0.95965  0.38765  0.12918  1.0000
  H   H5782     1.0  0.96943  0.45152  0.27566  1.0000
  S   S953      1.0  0.75574  0.43304  0.00753  1.0000
  C   C7265     1.0  0.98076  0.25757  0.39723  1.0000
  H   H5783     1.0  0.77000  0.46255  0.03373  1.0000
  H   H5784     1.0  0.98123  0.40344  0.11113  1.0000
  H   H5785     1.0  0.92722  0.43989  0.43025  1.0000
  Fe  Fe473     1.0  0.93307  0.43962  0.32057  1.0000
  C   C7266     1.0  0.92001  0.43655  0.42749  1.0000
  H   H5786     1.0  0.84512  0.32304  0.00411  1.0000
  C   C7267     1.0  0.97697  0.38873  0.15089  1.0000
  S   S954      1.0  0.76376  0.37649  0.04080  1.0000
  H   H5787     1.0  0.93797  0.46969  0.19874  1.0000
  H   H5788     1.0  0.74782  0.42357  0.98936  1.0000
  H   H5789     1.0  0.80900  0.33640  0.05088  1.0000
  H   H5790     1.0  0.98220  0.36872  0.35943  1.0000
  C   C7268     1.0  0.97414  0.41378  0.42073  1.0000
  H   H5791     1.0  0.88191  0.45733  0.20647  1.0000
  H   H5792     1.0  0.94643  0.40250  0.43853  1.0000
  H   H5793     1.0  0.95968  0.46819  0.11873  1.0000
  C   C7269     1.0  0.75242  0.32766  0.00380  1.0000
  C   C7270     1.0  0.89876  0.28263  0.43962  1.0000
  C   C7271     1.0  0.94576  0.41677  0.38663  1.0000
  H   H5794     1.0  0.98050  0.29084  0.40937  1.0000
  C   C7272     1.0  0.78910  0.45848  0.99444  1.0000
  H   H5795     1.0  0.97480  0.42725  0.05993  1.0000
  H   H5796     1.0  0.94000  0.46551  0.15054  1.0000
  C   C7273     1.0  0.91094  0.40368  0.40465  1.0000
  C   C7274     1.0  0.90967  0.46444  0.25555  1.0000
  H   H5797     1.0  0.92434  0.44585  0.28883  1.0000
  C   C7275     1.0  0.90133  0.42793  0.42044  1.0000
  H   H5798     1.0  0.74795  0.42865  0.07872  1.0000
  C   C7276     1.0  0.91449  0.42575  0.41328  1.0000
  C   C7277     1.0  0.90608  0.47610  0.23358  1.0000
  H   H5799     1.0  0.97738  0.42300  0.41634  1.0000
  C   C7278     1.0  0.91211  0.46543  0.28413  1.0000
  Fe  Fe474     1.0  0.93228  0.35003  0.44312  1.0000
  C   C7279     1.0  0.75070  0.35079  0.02018  1.0000
  H   H5800     1.0  0.88413  0.25656  0.45489  1.0000
  C   C7280     1.0  0.96121  0.25460  0.34550  1.0000
  C   C7281     1.0  0.96745  0.42155  0.22926  1.0000
  C   C7282     1.0  0.93683  0.41055  0.39712  1.0000
  H   H5801     1.0  0.91314  0.33151  0.46396  1.0000
  H   H5802     1.0  0.95145  0.46518  0.33141  1.0000
  C   C7283     1.0  0.84558  0.38717  0.99000  1.0000
  H   H5803     1.0  0.89834  0.44253  0.99761  1.0000
  C   C7284     1.0  0.81572  0.44408  0.06498  1.0000
  C   C7285     1.0  0.94168  0.35531  0.47076  1.0000
  H   H5804     1.0  0.97687  0.34355  0.44101  1.0000
  H   H5805     1.0  0.87138  0.35610  0.06528  1.0000
  H   H5806     1.0  0.77011  0.38448  0.98943  1.0000
  H   H5807     1.0  0.92184  0.29061  0.46213  1.0000
  H   H5808     1.0  0.97654  0.27678  0.46370  1.0000
  C   C7286     1.0  0.84776  0.35380  0.05124  1.0000
  H   H5809     1.0  0.85147  0.47634  0.15041  1.0000
  H   H5810     1.0  0.95687  0.39716  0.14843  1.0000
  C   C7287     1.0  0.81116  0.33624  0.01079  1.0000
  C   C7288     1.0  0.80165  0.35671  0.04179  1.0000
  H   H5811     1.0  0.83803  0.35173  0.05433  1.0000
  C   C7289     1.0  0.98220  0.44273  0.06260  1.0000
  H   H5812     1.0  0.96126  0.42894  0.22313  1.0000
  H   H5813     1.0  0.89398  0.42464  0.41781  1.0000
  C   C7290     1.0  0.89298  0.44342  0.17939  1.0000
  H   H5814     1.0  0.75915  0.47153  0.98640  1.0000
  H   H5815     1.0  0.97350  0.47697  0.09747  1.0000
  H   H5816     1.0  0.83894  0.45992  0.07611  1.0000
  Fe  Fe475     1.0  0.77053  0.38328  0.01882  1.0000
  H   H5817     1.0  0.90399  0.44342  0.44295  1.0000
  C   C7291     1.0  0.82071  0.34333  0.98723  1.0000
  H   H5818     1.0  0.97480  0.43554  0.11079  1.0000
  C   C7292     1.0  0.80695  0.44778  0.05650  1.0000
  C   C7293     1.0  0.89439  0.45293  0.99377  1.0000
  C   C7294     1.0  0.81476  0.37863  0.98386  1.0000
  C   C7295     1.0  0.82484  0.34623  0.03959  1.0000
  H   H5819     1.0  0.83498  0.34302  0.01326  1.0000
  Fe  Fe476     1.0  0.91985  0.45288  0.20378  1.0000
  C   C7296     1.0  0.95933  0.41137  0.38491  1.0000
  C   C7297     1.0  0.81435  0.32309  0.00947  1.0000
  C   C7298     1.0  0.97228  0.47341  0.23317  1.0000
  H   H5820     1.0  0.98429  0.33543  0.39464  1.0000
  H   H5821     1.0  0.82742  0.42141  0.00687  1.0000
  H   H5822     1.0  0.97785  0.45202  0.23608  1.0000
  C   C7299     1.0  0.91376  0.46889  0.06885  1.0000
  S   S955      1.0  0.75106  0.40710  0.04192  1.0000
  C   C7300     1.0  0.96794  0.38585  0.13374  1.0000
  H   H5823     1.0  0.81164  0.31535  0.01800  1.0000
  C   C7301     1.0  0.95051  0.30615  0.47818  1.0000
  C   C7302     1.0  0.92380  0.43019  0.41682  1.0000
  H   H5824     1.0  0.94842  0.46807  0.27791  1.0000
  H   H5825     1.0  0.90834  0.45632  0.01422  1.0000
  C   C7303     1.0  0.85119  0.32764  0.00715  1.0000
  C   C7304     1.0  0.97503  0.43770  0.05688  1.0000
  H   H5826     1.0  0.84950  0.35039  0.07153  1.0000
  C   C7305     1.0  0.84745  0.39799  0.99346  1.0000
  H   H5827     1.0  0.84809  0.40721  0.98618  1.0000
  C   C7306     1.0  0.97860  0.46871  0.30639  1.0000
  H   H5828     1.0  0.90791  0.43766  0.30833  1.0000
  C   C7307     1.0  0.82077  0.32000  0.99709  1.0000
  C   C7308     1.0  0.97121  0.45516  0.16594  1.0000
  C   C7309     1.0  0.77581  0.46489  0.99573  1.0000
  H   H5829     1.0  0.83245  0.33749  0.04186  1.0000
  C   C7310     1.0  0.81694  0.42423  0.01092  1.0000
  C   C7311     1.0  0.81248  0.43000  0.02204  1.0000
  C   C7312     1.0  0.98530  0.40538  0.27391  1.0000
  H   H5830     1.0  0.96178  0.38098  0.43585  1.0000
  C   C7313     1.0  0.79589  0.45327  0.98317  1.0000
  C   C7314     1.0  0.80171  0.46596  0.02683  1.0000
  H   H5831     1.0  0.87298  0.34392  0.01807  1.0000
  H   H5832     1.0  0.89959  0.44781  0.03816  1.0000
  C   C7315     1.0  0.94174  0.39909  0.40597  1.0000
  H   H5833     1.0  0.93864  0.46772  0.17714  1.0000
  P   P249      1.0  0.79319  0.44267  0.04062  1.0000
  C   C7316     1.0  0.90282  0.29758  0.47437  1.0000
  H   H5834     1.0  0.82310  0.30983  0.99601  1.0000
  C   C7317     1.0  0.75040  0.34184  0.98216  1.0000
  C   C7318     1.0  0.98022  0.37857  0.12839  1.0000
  C   C7319     1.0  0.80788  0.42233  0.00493  1.0000
  C   C7320     1.0  0.79087  0.45990  0.03216  1.0000
  H   H5835     1.0  0.81133  0.41799  0.99624  1.0000
  C   C7321     1.0  0.98293  0.40158  0.41950  1.0000
  H   H5836     1.0  0.89561  0.37262  0.41506  1.0000
  C   C7322     1.0  0.79893  0.43369  0.02740  1.0000
  C   C7323     1.0  0.92088  0.46787  0.10395  1.0000
  C   C7324     1.0  0.77840  0.46711  0.03001  1.0000
  H   H5837     1.0  0.86488  0.47812  0.16480  1.0000
  S   S956      1.0  0.94998  0.43653  0.32999  1.0000
  H   H5838     1.0  0.77944  0.43556  0.02458  1.0000
  C   C7325     1.0  0.98228  0.45630  0.05899  1.0000
  H   H5839     1.0  0.94009  0.28256  0.47237  1.0000
  C   C7326     1.0  0.77303  0.37463  0.98744  1.0000
  C   C7327     1.0  0.97005  0.45266  0.37652  1.0000
  C   C7328     1.0  0.96101  0.41412  0.42760  1.0000
  C   C7329     1.0  0.77550  0.42616  0.05378  1.0000
  H   H5840     1.0  0.95418  0.43102  0.25628  1.0000
  C   C7330     1.0  0.97270  0.39929  0.24242  1.0000
  H   H5841     1.0  0.94836  0.25879  0.40036  1.0000
  S   S957      1.0  0.93433  0.44599  0.21703  1.0000
  H   H5842     1.0  0.96684  0.46358  0.13947  1.0000
  C   C7331     1.0  0.90148  0.45772  0.03476  1.0000
  C   C7332     1.0  0.79436  0.42637  0.00996  1.0000
  C   C7333     1.0  0.78991  0.43210  0.02110  1.0000
  H   H5843     1.0  0.93327  0.44759  0.25804  1.0000
  H   H5844     1.0  0.78177  0.41908  0.04793  1.0000
  H   H5845     1.0  0.97810  0.43830  0.13312  1.0000
  C   C7334     1.0  0.77842  0.43853  0.05207  1.0000
  C   C7335     1.0  0.76450  0.42268  0.06333  1.0000
  C   C7336     1.0  0.88076  0.45769  0.99564  1.0000
  H   H5846     1.0  0.78725  0.42536  0.00511  1.0000
  Fe  Fe477     1.0  0.77101  0.39352  0.04205  1.0000
  C   C7337     1.0  0.98004  0.45749  0.36626  1.0000
  C   C7338     1.0  0.94407  0.26406  0.46663  1.0000
  C   C7339     1.0  0.96638  0.39114  0.14476  1.0000
  H   H5847     1.0  0.95922  0.24221  0.44050  1.0000
  S   S958      1.0  0.77898  0.39949  0.02018  1.0000
  C   C7340     1.0  0.77048  0.44711  0.06039  1.0000
  C   C7341     1.0  0.91029  0.32204  0.46694  1.0000
  H   H5848     1.0  0.92167  0.43166  0.35115  1.0000
  C   C7342     1.0  0.97825  0.38983  0.42471  1.0000
  C   C7343     1.0  0.90691  0.43857  0.43464  1.0000
  C   C7344     1.0  0.93220  0.47043  0.10559  1.0000
  H   H5849     1.0  0.92672  0.41575  0.37161  1.0000
  C   C7345     1.0  0.93935  0.45945  0.26769  1.0000
  C   C7346     1.0  0.90135  0.47856  0.03959  1.0000
  C   C7347     1.0  0.74373  0.46508  0.03176  1.0000
  C   C7348     1.0  0.91356  0.48076  0.05914  1.0000
  C   C7349     1.0  0.97749  0.47171  0.41258  1.0000
  H   H5850     1.0  0.79410  0.45742  0.00227  1.0000
  C   C7350     1.0  0.90382  0.45032  0.37375  1.0000
  H   H5851     1.0  0.89873  0.38526  0.39169  1.0000
  H   H5852     1.0  0.90161  0.47618  0.09985  1.0000
  C   C7351     1.0  0.95172  0.25115  0.46752  1.0000
  H   H5853     1.0  0.88056  0.47508  0.30113  1.0000
  H   H5854     1.0  0.89568  0.43378  0.17686  1.0000
  C   C7352     1.0  0.98160  0.44787  0.09184  1.0000
  H   H5855     1.0  0.90219  0.28829  0.42974  1.0000
  C   C7353     1.0  0.98214  0.45510  0.35352  1.0000
  S   S959      1.0  0.75088  0.39626  0.01585  1.0000
  C   C7354     1.0  0.81963  0.46575  0.08828  1.0000
  C   C7355     1.0  0.96048  0.46837  0.32582  1.0000
  H   H5856     1.0  0.87823  0.47821  0.26527  1.0000
  H   H5857     1.0  0.89959  0.45815  0.24447  1.0000
  H   H5858     1.0  0.96225  0.44219  0.04331  1.0000
  H   H5859     1.0  0.88304  0.32435  0.00827  1.0000
  C   C7356     1.0  0.90924  0.44682  0.36141  1.0000
  C   C7357     1.0  0.96839  0.25127  0.35542  1.0000
  H   H5860     1.0  0.97451  0.39541  0.39224  1.0000
  C   C7358     1.0  0.82395  0.33006  0.98601  1.0000
  C   C7359     1.0  0.90043  0.28569  0.45081  1.0000
  H   H5861     1.0  0.95843  0.43781  0.35924  1.0000
  H   H5862     1.0  0.97817  0.31150  0.41999  1.0000
  H   H5863     1.0  0.95517  0.44638  0.17822  1.0000
  C   C7360     1.0  0.91746  0.43435  0.36072  1.0000
  C   C7361     1.0  0.98514  0.47024  0.13034  1.0000
  C   C7362     1.0  0.96799  0.44613  0.04749  1.0000
  Fe  Fe478     1.0  0.75859  0.41199  0.01973  1.0000
  C   C7363     1.0  0.75241  0.44208  0.02999  1.0000
  C   C7364     1.0  0.96580  0.47901  0.15790  1.0000
  C   C7365     1.0  0.89023  0.26777  0.46500  1.0000
  C   C7366     1.0  0.97638  0.29843  0.40165  1.0000
  C   C7367     1.0  0.88846  0.44432  0.19273  1.0000
  H   H5864     1.0  0.95877  0.29098  0.40627  1.0000
  C   C7368     1.0  0.88863  0.26472  0.45377  1.0000
  C   C7369     1.0  0.95896  0.25619  0.39688  1.0000
  H   H5865     1.0  0.95873  0.35455  0.47785  1.0000
  H   H5866     1.0  0.75687  0.43209  0.03432  1.0000
  H   H5867     1.0  0.97762  0.42645  0.32765  1.0000
  C   C7370     1.0  0.97716  0.42018  0.14804  1.0000
  C   C7371     1.0  0.89304  0.27205  0.44107  1.0000
  H   H5868     1.0  0.89216  0.26946  0.43232  1.0000
  C   C7372     1.0  0.93548  0.47269  0.30907  1.0000
  C   C7373     1.0  0.91888  0.31109  0.46235  1.0000
  C   C7374     1.0  0.94109  0.44880  0.26173  1.0000
  H   H5869     1.0  0.97570  0.44667  0.34111  1.0000
  C   C7375     1.0  0.91520  0.29890  0.46608  1.0000
  H   H5870     1.0  0.90869  0.40466  0.38486  1.0000
  C   C7376     1.0  0.97926  0.24392  0.43187  1.0000
  C   C7377     1.0  0.89628  0.27817  0.46364  1.0000
  C   C7378     1.0  0.96093  0.24490  0.33927  1.0000
  C   C7379     1.0  0.97310  0.46766  0.13036  1.0000
  H   H5871     1.0  0.95881  0.38469  0.41082  1.0000
  H   H5872     1.0  0.91734  0.46381  0.16221  1.0000
  C   C7380     1.0  0.94888  0.46757  0.17218  1.0000
  H   H5873     1.0  0.93398  0.42870  0.41141  1.0000
  H   H5874     1.0  0.77043  0.46873  0.00453  1.0000
  C   C7381     1.0  0.98617  0.41491  0.23960  1.0000
  C   C7382     1.0  0.96834  0.45958  0.04354  1.0000
  C   C7383     1.0  0.96332  0.44052  0.26539  1.0000
  C   C7384     1.0  0.93188  0.47343  0.14786  1.0000
  C   C7385     1.0  0.96896  0.47020  0.11856  1.0000
  H   H5875     1.0  0.98085  0.43396  0.22676  1.0000
  C   C7386     1.0  0.96949  0.36657  0.28132  1.0000
  H   H5876     1.0  0.96704  0.34771  0.28034  1.0000
  H   H5877     1.0  0.96188  0.36731  0.29035  1.0000
  H   H5878     1.0  0.87147  0.29639  0.47594  1.0000
  C   C7387     1.0  0.73740  0.42487  0.99001  1.0000
  C   C7388     1.0  0.89765  0.47491  0.98180  1.0000
  H   H5879     1.0  0.91341  0.45782  0.98541  1.0000
  C   C7389     1.0  0.98291  0.43985  0.10435  1.0000
  H   H5880     1.0  0.98465  0.38033  0.42332  1.0000
  H   H5881     1.0  0.98284  0.32524  0.37694  1.0000
  C   C7390     1.0  0.98401  0.45951  0.40920  1.0000
  C   C7391     1.0  0.88394  0.47975  0.98357  1.0000
  P   P250      1.0  0.89149  0.48202  0.15958  1.0000
  C   C7392     1.0  0.98122  0.47908  0.06995  1.0000
  H   H5882     1.0  0.95975  0.48027  0.33923  1.0000
  C   C7393     1.0  0.98138  0.27962  0.46972  1.0000
  C   C7394     1.0  0.98448  0.46971  0.38580  1.0000
  C   C7395     1.0  0.98195  0.35488  0.26386  1.0000
  C   C7396     1.0  0.98595  0.37617  0.26344  1.0000
  H   H5883     1.0  0.98407  0.34644  0.25937  1.0000
  C   C7397     1.0  0.73950  0.37712  0.99603  1.0000
  C   C7398     1.0  0.96737  0.48167  0.07254  1.0000
  C   C7399     1.0  0.93582  0.48026  0.06028  1.0000
  C   C7400     1.0  0.97660  0.48120  0.32277  1.0000
  H   H5884     1.0  0.85452  0.48088  0.27642  1.0000
  C   C7401     1.0  0.90831  0.48269  0.15093  1.0000
  H   H5885     1.0  0.88375  0.48051  0.11658  1.0000
  C   C7402     1.0  0.82834  0.47876  0.06685  1.0000
  H   H5886     1.0  0.77332  0.48236  0.09790  1.0000
  H   H5887     1.0  0.76127  0.48103  0.12131  1.0000
  H   H5888     1.0  0.83625  0.48003  0.05814  1.0000
  H   H5889     1.0  0.93458  0.23312  0.35087  1.0000
  H   H5890     1.0  0.79587  0.48245  0.06075  1.0000
  H   H5891     1.0  0.93885  0.36882  0.82180  1.0000
  H   H5892     1.0  0.95509  0.37020  0.67970  1.0000
  Fe  Fe479     1.0  0.88012  0.38866  0.90758  1.0000
  S   S960      1.0  0.86009  0.40023  0.90457  1.0000
  S   S961      1.0  0.89431  0.37899  0.89139  1.0000
  Fe  Fe480     1.0  0.86350  0.41487  0.91380  1.0000
  S   S962      1.0  0.85772  0.43633  0.90397  1.0000
  Fe  Fe481     1.0  0.85289  0.39020  0.92562  1.0000
  H   H5893     1.0  0.96435  0.39477  0.54504  1.0000
  S   S963      1.0  0.88422  0.40428  0.91504  1.0000
  S   S964      1.0  0.87263  0.37712  0.92791  1.0000
  H   H5894     1.0  0.78809  0.39472  0.96293  1.0000
  H   H5895     1.0  0.97857  0.44418  0.78775  1.0000
  C   C7403     1.0  0.92647  0.35640  0.90723  1.0000
  C   C7404     1.0  0.94880  0.35178  0.88070  1.0000
  Fe  Fe482     1.0  0.95875  0.40051  0.85542  1.0000
  S   S965      1.0  0.94501  0.40263  0.87504  1.0000
  S   S966      1.0  0.95225  0.40765  0.83610  1.0000
  Fe  Fe483     1.0  0.77353  0.39049  0.91516  1.0000
  S   S967      1.0  0.77176  0.39399  0.93538  1.0000
  S   S968      1.0  0.79148  0.39545  0.89964  1.0000
  Fe  Fe484     1.0  0.74869  0.37935  0.92417  1.0000
  S   S969      1.0  0.74526  0.38196  0.94493  1.0000
  C   C7405     1.0  0.77969  0.43181  0.96581  1.0000
  Fe  Fe485     1.0  0.75036  0.40167  0.93520  1.0000
  H   H5896     1.0  0.84068  0.23743  0.52048  1.0000
  C   C7406     1.0  0.94333  0.35162  0.85663  1.0000
  H   H5897     1.0  0.87681  0.36200  0.96711  1.0000
  S   S970      1.0  0.75224  0.39978  0.91432  1.0000
  S   S971      1.0  0.77013  0.36979  0.92278  1.0000
  C   C7407     1.0  0.74090  0.41831  0.88041  1.0000
  H   H5898     1.0  0.93232  0.43116  0.66422  1.0000
  C   C7408     1.0  0.89622  0.44625  0.67997  1.0000
  H   H5899     1.0  0.88689  0.38284  0.97994  1.0000
  Fe  Fe486     1.0  0.93047  0.31865  0.54543  1.0000
  S   S972      1.0  0.95059  0.31865  0.53211  1.0000
  S   S973      1.0  0.91844  0.30587  0.54263  1.0000
  Fe  Fe487     1.0  0.93081  0.34181  0.55653  1.0000
  S   S974      1.0  0.95055  0.34391  0.54370  1.0000
  S   S975      1.0  0.92081  0.35671  0.56966  1.0000
  Fe  Fe488     1.0  0.94360  0.34076  0.52721  1.0000
  S   S976      1.0  0.95041  0.35193  0.50617  1.0000
  Fe  Fe489     1.0  0.95595  0.32179  0.54956  1.0000
  C   C7409     1.0  0.85746  0.28203  0.50740  1.0000
  S   S977      1.0  0.92307  0.34080  0.53943  1.0000
  S   S978      1.0  0.93653  0.31964  0.56354  1.0000
  Fe  Fe490     1.0  0.94921  0.37936  0.61643  1.0000
  S   S979      1.0  0.95523  0.39427  0.59806  1.0000
  S   S980      1.0  0.94839  0.35940  0.61374  1.0000
  Fe  Fe491     1.0  0.94886  0.39702  0.63472  1.0000
  S   S981      1.0  0.95521  0.41315  0.61762  1.0000
  S   S982      1.0  0.94267  0.40138  0.65541  1.0000
  Fe  Fe492     1.0  0.94078  0.40960  0.60840  1.0000
  S   S983      1.0  0.92749  0.42586  0.59688  1.0000
  Fe  Fe493     1.0  0.96922  0.39663  0.60864  1.0000
  C   C7410     1.0  0.81250  0.41533  0.93195  1.0000
  S   S984      1.0  0.93321  0.39449  0.62603  1.0000
  S   S985      1.0  0.96437  0.38056  0.62662  1.0000
  H   H5900     1.0  0.81377  0.40814  0.94112  1.0000
  C   C7411     1.0  0.79615  0.44249  0.88447  1.0000
  H   H5901     1.0  0.84967  0.29641  0.49139  1.0000
  S   S986      1.0  0.95840  0.39714  0.72638  1.0000
  S   S987      1.0  0.93523  0.42959  0.72935  1.0000
  C   C7412     1.0  0.93904  0.35722  0.90776  1.0000
  H   H5902     1.0  0.77042  0.46317  0.87138  1.0000
  C   C7413     1.0  0.91495  0.27216  0.49595  1.0000
  C   C7414     1.0  0.97028  0.43178  0.65822  1.0000
  C   C7415     1.0  0.91121  0.27989  0.63932  1.0000
  C   C7416     1.0  0.97168  0.28350  0.54692  1.0000
  H   H5903     1.0  0.97743  0.26158  0.52234  1.0000
  C   C7417     1.0  0.92237  0.43551  0.66885  1.0000
  C   C7418     1.0  0.89657  0.29821  0.62165  1.0000
  H   H5904     1.0  0.94986  0.36271  0.91885  1.0000
  C   C7419     1.0  0.93283  0.44684  0.72624  1.0000
  C   C7420     1.0  0.94344  0.45320  0.72151  1.0000
  C   C7421     1.0  0.94104  0.46710  0.71924  1.0000
  C   C7422     1.0  0.92807  0.47451  0.72185  1.0000
  C   C7423     1.0  0.91754  0.46810  0.72651  1.0000
  C   C7424     1.0  0.91991  0.45430  0.72864  1.0000
  H   H5905     1.0  0.95343  0.44742  0.71969  1.0000
  H   H5906     1.0  0.94919  0.47207  0.71560  1.0000
  H   H5907     1.0  0.93614  0.24262  0.50402  1.0000
  H   H5908     1.0  0.91173  0.44939  0.73231  1.0000
  C   C7425     1.0  0.92978  0.44225  0.59234  1.0000
  C   C7426     1.0  0.92168  0.45177  0.58451  1.0000
  C   C7427     1.0  0.96196  0.37467  0.89227  1.0000
  H   H5909     1.0  0.88979  0.44372  0.92413  1.0000
  C   C7428     1.0  0.94007  0.45949  0.59299  1.0000
  C   C7429     1.0  0.93914  0.44606  0.59645  1.0000
  H   H5910     1.0  0.91447  0.44890  0.58128  1.0000
  C   C7430     1.0  0.98438  0.35157  0.60085  1.0000
  H   H5911     1.0  0.94711  0.46251  0.59633  1.0000
  H   H5912     1.0  0.94544  0.43878  0.60247  1.0000
  C   C7431     1.0  0.95463  0.40059  0.66407  1.0000
  C   C7432     1.0  0.96785  0.39441  0.66007  1.0000
  H   H5913     1.0  0.95715  0.46788  0.81209  1.0000
  H   H5914     1.0  0.82109  0.34177  0.92683  1.0000
  C   C7433     1.0  0.95953  0.40371  0.68375  1.0000
  C   C7434     1.0  0.95057  0.40543  0.67580  1.0000
  Fe  Fe494     1.0  0.76687  0.37395  0.94292  1.0000
  H   H5915     1.0  0.84406  0.47953  0.91576  1.0000
  H   H5916     1.0  0.95630  0.40720  0.69292  1.0000
  H   H5917     1.0  0.94037  0.41010  0.67902  1.0000
  C   C7435     1.0  0.94178  0.35285  0.49409  1.0000
  C   C7436     1.0  0.92618  0.46543  0.92621  1.0000
  H   H5918     1.0  0.80805  0.47443  0.96656  1.0000
  C   C7437     1.0  0.98122  0.28599  0.48974  1.0000
  C   C7438     1.0  0.92627  0.45281  0.52479  1.0000
  C   C7439     1.0  0.92836  0.35268  0.49759  1.0000
  C   C7440     1.0  0.87472  0.41150  0.95961  1.0000
  H   H5919     1.0  0.96534  0.24810  0.56269  1.0000
  S   S988      1.0  0.98397  0.40227  0.82169  1.0000
  H   H5920     1.0  0.92317  0.35166  0.50792  1.0000
  C   C7441     1.0  0.92912  0.35773  0.58129  1.0000
  C   C7442     1.0  0.92429  0.36824  0.58793  1.0000
  C   C7443     1.0  0.93046  0.36905  0.59754  1.0000
  C   C7444     1.0  0.94133  0.35921  0.60078  1.0000
  C   C7445     1.0  0.94619  0.34869  0.59412  1.0000
  C   C7446     1.0  0.94025  0.34809  0.58422  1.0000
  H   H5921     1.0  0.91569  0.37574  0.58571  1.0000
  H   H5922     1.0  0.92656  0.37702  0.60281  1.0000
  H   H5923     1.0  0.95462  0.34105  0.59653  1.0000
  H   H5924     1.0  0.94423  0.34016  0.57889  1.0000
  H   H5925     1.0  0.94261  0.33307  0.88815  1.0000
  C   C7447     1.0  0.90888  0.39572  0.83426  1.0000
  C   C7448     1.0  0.81542  0.46833  0.92252  1.0000
  C   C7449     1.0  0.88962  0.42268  0.85950  1.0000
  H   H5926     1.0  0.89360  0.42612  0.68570  1.0000
  C   C7450     1.0  0.89300  0.42910  0.86734  1.0000
  H   H5927     1.0  0.92077  0.44283  0.51301  1.0000
  C   C7451     1.0  0.81150  0.34421  0.94679  1.0000
  C   C7452     1.0  0.91838  0.26206  0.56206  1.0000
  C   C7453     1.0  0.91354  0.26831  0.55053  1.0000
  C   C7454     1.0  0.91374  0.28169  0.54471  1.0000
  C   C7455     1.0  0.91894  0.28895  0.55022  1.0000
  C   C7456     1.0  0.92383  0.28276  0.56176  1.0000
  C   C7457     1.0  0.92335  0.26939  0.56777  1.0000
  H   H5928     1.0  0.90933  0.26292  0.54625  1.0000
  H   H5929     1.0  0.90982  0.28645  0.53587  1.0000
  H   H5930     1.0  0.92771  0.28834  0.56616  1.0000
  H   H5931     1.0  0.92691  0.26465  0.57681  1.0000
  H   H5932     1.0  0.92058  0.45669  0.61774  1.0000
  C   C7458     1.0  0.89344  0.46244  0.93582  1.0000
  H   H5933     1.0  0.87320  0.41536  0.94956  1.0000
  C   C7459     1.0  0.95376  0.44650  0.64636  1.0000
  C   C7460     1.0  0.94604  0.45010  0.65827  1.0000
  C   C7461     1.0  0.96581  0.43727  0.64640  1.0000
  H   H5934     1.0  0.87070  0.24599  0.50757  1.0000
  H   H5935     1.0  0.88539  0.43384  0.87464  1.0000
  H   H5936     1.0  0.91686  0.27284  0.64621  1.0000
  C   C7462     1.0  0.74547  0.43346  0.93248  1.0000
  H   H5937     1.0  0.78929  0.40531  0.98031  1.0000
  C   C7463     1.0  0.74777  0.45620  0.92784  1.0000
  C   C7464     1.0  0.75508  0.45520  0.91497  1.0000
  C   C7465     1.0  0.75792  0.44317  0.91108  1.0000
  C   C7466     1.0  0.75330  0.43229  0.91987  1.0000
  C   C7467     1.0  0.91660  0.47706  0.61910  1.0000
  C   C7468     1.0  0.88228  0.28215  0.49000  1.0000
  H   H5938     1.0  0.76380  0.44220  0.90130  1.0000
  H   H5939     1.0  0.75583  0.42304  0.91679  1.0000
  H   H5940     1.0  0.95366  0.40568  0.52596  1.0000
  H   H5941     1.0  0.80604  0.41881  0.96128  1.0000
  H   H5942     1.0  0.91104  0.28160  0.49890  1.0000
  H   H5943     1.0  0.91553  0.30961  0.50133  1.0000
  H   H5944     1.0  0.92348  0.38913  0.55689  1.0000
  C   C7469     1.0  0.92407  0.26247  0.50248  1.0000
  H   H5945     1.0  0.94157  0.35144  0.84723  1.0000
  H   H5946     1.0  0.92250  0.32936  0.48561  1.0000
  H   H5947     1.0  0.90080  0.42167  0.89363  1.0000
  H   H5948     1.0  0.98111  0.24903  0.50526  1.0000
  C   C7470     1.0  0.93186  0.47635  0.91953  1.0000
  C   C7471     1.0  0.91538  0.36043  0.91686  1.0000
  P   P251      1.0  0.95353  0.35135  0.89574  1.0000
  C   C7472     1.0  0.92237  0.47136  0.68164  1.0000
  H   H5949     1.0  0.90155  0.46521  0.67260  1.0000
  C   C7473     1.0  0.97367  0.47124  0.83314  1.0000
  H   H5950     1.0  0.89674  0.40680  0.81239  1.0000
  H   H5951     1.0  0.95343  0.33604  0.92334  1.0000
  C   C7474     1.0  0.96764  0.45153  0.82474  1.0000
  C   C7475     1.0  0.96319  0.46494  0.81933  1.0000
  C   C7476     1.0  0.88116  0.27390  0.50283  1.0000
  H   H5952     1.0  0.92057  0.41118  0.84227  1.0000
  S   S989      1.0  0.98515  0.48217  0.60599  1.0000
  H   H5953     1.0  0.96427  0.30956  0.58351  1.0000
  C   C7477     1.0  0.90895  0.38469  0.88676  1.0000
  C   C7478     1.0  0.91672  0.38533  0.87380  1.0000
  C   C7479     1.0  0.92803  0.39065  0.87006  1.0000
  C   C7480     1.0  0.93159  0.39510  0.87937  1.0000
  C   C7481     1.0  0.92415  0.39387  0.89243  1.0000
  C   C7482     1.0  0.91281  0.38881  0.89606  1.0000
  H   H5954     1.0  0.91386  0.38202  0.86660  1.0000
  H   H5955     1.0  0.93384  0.39150  0.85996  1.0000
  H   H5956     1.0  0.92713  0.39681  0.89981  1.0000
  H   H5957     1.0  0.90727  0.38773  0.90621  1.0000
  C   C7483     1.0  0.80462  0.39054  0.90787  1.0000
  C   C7484     1.0  0.81596  0.39581  0.90255  1.0000
  C   C7485     1.0  0.82552  0.39304  0.91013  1.0000
  C   C7486     1.0  0.82376  0.38494  0.92298  1.0000
  C   C7487     1.0  0.81279  0.37919  0.92790  1.0000
  C   C7488     1.0  0.80336  0.38184  0.92035  1.0000
  H   H5958     1.0  0.81716  0.40235  0.89279  1.0000
  H   H5959     1.0  0.83398  0.39748  0.90623  1.0000
  H   H5960     1.0  0.93820  0.39253  0.81146  1.0000
  H   H5961     1.0  0.79502  0.37719  0.92430  1.0000
  C   C7489     1.0  0.85179  0.46427  0.93126  1.0000
  C   C7490     1.0  0.84828  0.46910  0.91890  1.0000
  C   C7491     1.0  0.85011  0.46043  0.91059  1.0000
  C   C7492     1.0  0.85517  0.44687  0.91474  1.0000
  C   C7493     1.0  0.85846  0.44196  0.92723  1.0000
  C   C7494     1.0  0.85683  0.45069  0.93546  1.0000
  H   H5962     1.0  0.93806  0.43799  0.55273  1.0000
  H   H5963     1.0  0.84757  0.46426  0.90095  1.0000
  H   H5964     1.0  0.86255  0.43152  0.93042  1.0000
  H   H5965     1.0  0.85981  0.44699  0.94489  1.0000
  C   C7495     1.0  0.81368  0.37213  0.97463  1.0000
  C   C7496     1.0  0.93118  0.40679  0.94767  1.0000
  C   C7497     1.0  0.90363  0.42646  0.89971  1.0000
  Fe  Fe495     1.0  0.95617  0.41833  0.72695  1.0000
  C   C7498     1.0  0.94744  0.39853  0.53003  1.0000
  C   C7499     1.0  0.81025  0.43266  0.90722  1.0000
  C   C7500     1.0  0.84589  0.42059  0.87409  1.0000
  H   H5966     1.0  0.92332  0.46330  0.93699  1.0000
  C   C7501     1.0  0.90004  0.43190  0.71760  1.0000
  C   C7502     1.0  0.90979  0.43812  0.70868  1.0000
  C   C7503     1.0  0.92184  0.43051  0.70326  1.0000
  C   C7504     1.0  0.92419  0.41666  0.70684  1.0000
  C   C7505     1.0  0.91443  0.41032  0.71573  1.0000
  C   C7506     1.0  0.90237  0.41805  0.72122  1.0000
  P   P252      1.0  0.91811  0.39254  0.72169  1.0000
  C   C7507     1.0  0.92981  0.38506  0.70857  1.0000
  C   C7508     1.0  0.92486  0.38858  0.73637  1.0000
  C   C7509     1.0  0.93118  0.37549  0.74132  1.0000
  C   C7510     1.0  0.93704  0.37258  0.75220  1.0000
  C   C7511     1.0  0.93659  0.38267  0.75827  1.0000
  C   C7512     1.0  0.93024  0.39568  0.75351  1.0000
  C   C7513     1.0  0.92435  0.39863  0.74266  1.0000
  C   C7514     1.0  0.92568  0.38423  0.69756  1.0000
  C   C7515     1.0  0.93475  0.37871  0.68730  1.0000
  C   C7516     1.0  0.94801  0.37399  0.68792  1.0000
  C   C7517     1.0  0.95225  0.37491  0.69872  1.0000
  C   C7518     1.0  0.94324  0.38054  0.70893  1.0000
  C   C7519     1.0  0.90309  0.38665  0.72541  1.0000
  C   C7520     1.0  0.89402  0.39233  0.71712  1.0000
  C   C7521     1.0  0.88241  0.38782  0.71987  1.0000
  C   C7522     1.0  0.87973  0.37762  0.73094  1.0000
  C   C7523     1.0  0.88865  0.37195  0.73928  1.0000
  C   C7524     1.0  0.90028  0.37644  0.73656  1.0000
  H   H5967     1.0  0.89085  0.43783  0.72205  1.0000
  H   H5968     1.0  0.90817  0.44883  0.70632  1.0000
  H   H5969     1.0  0.92958  0.43531  0.69674  1.0000
  H   H5970     1.0  0.93378  0.41094  0.70306  1.0000
  H   H5971     1.0  0.89494  0.41340  0.72861  1.0000
  H   H5972     1.0  0.93186  0.36761  0.73654  1.0000
  H   H5973     1.0  0.94226  0.36257  0.75575  1.0000
  H   H5974     1.0  0.94146  0.38048  0.76645  1.0000
  H   H5975     1.0  0.93028  0.40361  0.75790  1.0000
  H   H5976     1.0  0.91983  0.40886  0.73900  1.0000
  H   H5977     1.0  0.91557  0.38808  0.69664  1.0000
  H   H5978     1.0  0.93163  0.37854  0.67858  1.0000
  C   C7525     1.0  0.91541  0.25705  0.48270  1.0000
  H   H5979     1.0  0.94691  0.38161  0.71686  1.0000
  H   H5980     1.0  0.89589  0.40029  0.70851  1.0000
  H   H5981     1.0  0.87550  0.39222  0.71339  1.0000
  H   H5982     1.0  0.87074  0.37411  0.73305  1.0000
  H   H5983     1.0  0.88656  0.36405  0.74789  1.0000
  H   H5984     1.0  0.90697  0.37191  0.74320  1.0000
  H   H5985     1.0  0.83743  0.44008  0.84542  1.0000
  H   H5986     1.0  0.96672  0.35612  0.80656  1.0000
  H   H5987     1.0  0.78680  0.47678  0.95202  1.0000
  H   H5988     1.0  0.95126  0.37751  0.57466  1.0000
  H   H5989     1.0  0.89321  0.27315  0.64917  1.0000
  H   H5990     1.0  0.79587  0.40897  0.93056  1.0000
  H   H5991     1.0  0.96637  0.43137  0.67914  1.0000
  C   C7526     1.0  0.92849  0.47261  0.66805  1.0000
  C   C7527     1.0  0.77131  0.37257  0.97568  1.0000
  H   H5992     1.0  0.92040  0.36217  0.84021  1.0000
  H   H5993     1.0  0.95412  0.29009  0.56102  1.0000
  H   H5994     1.0  0.87655  0.46416  0.90330  1.0000
  H   H5995     1.0  0.90799  0.36898  0.93421  1.0000
  H   H5996     1.0  0.96387  0.42058  0.57700  1.0000
  C   C7528     1.0  0.92268  0.46504  0.58098  1.0000
  H   H5997     1.0  0.91925  0.40972  0.81919  1.0000
  C   C7529     1.0  0.96573  0.36134  0.89125  1.0000
  H   H5998     1.0  0.89044  0.42359  0.79293  1.0000
  H   H5999     1.0  0.91793  0.46305  0.68707  1.0000
  C   C7530     1.0  0.91826  0.44924  0.66820  1.0000
  H   H6000     1.0  0.89353  0.40999  0.59602  1.0000
  C   C7531     1.0  0.95021  0.36244  0.86971  1.0000
  C   C7532     1.0  0.93340  0.42741  0.54070  1.0000
  H   H6001     1.0  0.96929  0.35592  0.78299  1.0000
  C   C7533     1.0  0.94782  0.26477  0.53528  1.0000
  H   H6002     1.0  0.95052  0.36908  0.55562  1.0000
  C   C7534     1.0  0.82637  0.47471  0.88357  1.0000
  C   C7535     1.0  0.93116  0.45133  0.53600  1.0000
  S   S990      1.0  0.85060  0.47533  0.94108  1.0000
  C   C7536     1.0  0.77712  0.45399  0.87469  1.0000
  C   C7537     1.0  0.83465  0.42515  0.88329  1.0000
  H   H6003     1.0  0.81768  0.44845  0.86157  1.0000
  H   H6004     1.0  0.88019  0.28952  0.63359  1.0000
  H   H6005     1.0  0.96630  0.43668  0.76891  1.0000
  C   C7538     1.0  0.95961  0.36676  0.55894  1.0000
  C   C7539     1.0  0.91726  0.28880  0.62875  1.0000
  C   C7540     1.0  0.89788  0.28008  0.64101  1.0000
  C   C7541     1.0  0.87912  0.46003  0.95785  1.0000
  C   C7542     1.0  0.80124  0.42443  0.91370  1.0000
  H   H6006     1.0  0.79338  0.42439  0.90936  1.0000
  C   C7543     1.0  0.85847  0.29017  0.49460  1.0000
  H   H6007     1.0  0.97446  0.47164  0.72871  1.0000
  C   C7544     1.0  0.93044  0.37628  0.82525  1.0000
  C   C7545     1.0  0.96288  0.43568  0.66998  1.0000
  H   H6008     1.0  0.88604  0.45043  0.68412  1.0000
  H   H6009     1.0  0.95744  0.47449  0.86086  1.0000
  C   C7546     1.0  0.90504  0.45459  0.67354  1.0000
  C   C7547     1.0  0.90940  0.38222  0.84019  1.0000
  C   C7548     1.0  0.95223  0.40915  0.55679  1.0000
  C   C7549     1.0  0.77675  0.43512  0.93991  1.0000
  C   C7550     1.0  0.77029  0.42653  0.95044  1.0000
  H   H6010     1.0  0.76705  0.38081  0.96856  1.0000
  H   H6011     1.0  0.87023  0.46373  0.96471  1.0000
  C   C7551     1.0  0.78659  0.44011  0.95520  1.0000
  C   C7552     1.0  0.78501  0.44177  0.94222  1.0000
  P   P253      1.0  0.79781  0.44790  0.95839  1.0000
  H   H6012     1.0  0.88970  0.26724  0.50622  1.0000
  C   C7553     1.0  0.81298  0.43604  0.96072  1.0000
  C   C7554     1.0  0.89753  0.43878  0.91710  1.0000
  C   C7555     1.0  0.94023  0.38006  0.52774  1.0000
  H   H6013     1.0  0.88495  0.44220  0.97207  1.0000
  C   C7556     1.0  0.82626  0.41353  0.96262  1.0000
  C   C7557     1.0  0.81421  0.42248  0.96167  1.0000
  C   C7558     1.0  0.92493  0.46699  0.64332  1.0000
  C   C7559     1.0  0.83667  0.43590  0.85598  1.0000
  H   H6014     1.0  0.82883  0.32749  0.97647  1.0000
  C   C7560     1.0  0.80191  0.46109  0.94431  1.0000
  C   C7561     1.0  0.98375  0.47016  0.73142  1.0000
  H   H6015     1.0  0.90161  0.37908  0.84836  1.0000
  C   C7562     1.0  0.92477  0.45836  0.63566  1.0000
  C   C7563     1.0  0.94140  0.34118  0.86768  1.0000
  C   C7564     1.0  0.81221  0.45820  0.93345  1.0000
  H   H6016     1.0  0.77545  0.43651  0.92990  1.0000
  H   H6017     1.0  0.76414  0.42116  0.94856  1.0000
  Fe  Fe496     1.0  0.98526  0.41500  0.72534  1.0000
  C   C7565     1.0  0.92903  0.25015  0.49900  1.0000
  H   H6018     1.0  0.79008  0.44817  0.93383  1.0000
  C   C7566     1.0  0.91091  0.43762  0.91653  1.0000
  C   C7567     1.0  0.95529  0.27297  0.50745  1.0000
  C   C7568     1.0  0.96846  0.47104  0.66417  1.0000
  C   C7569     1.0  0.87138  0.42004  0.96842  1.0000
  H   H6019     1.0  0.78389  0.33929  0.98031  1.0000
  H   H6020     1.0  0.90431  0.48142  0.97626  1.0000
  H   H6021     1.0  0.94787  0.24615  0.53161  1.0000
  C   C7570     1.0  0.94669  0.29492  0.48724  1.0000
  C   C7571     1.0  0.97802  0.25988  0.54787  1.0000
  C   C7572     1.0  0.89055  0.28929  0.63222  1.0000
  H   H6022     1.0  0.87933  0.42272  0.86075  1.0000
  H   H6023     1.0  0.81776  0.44815  0.93341  1.0000
  H   H6024     1.0  0.92824  0.39735  0.95147  1.0000
  H   H6025     1.0  0.92712  0.26443  0.51041  1.0000
  H   H6026     1.0  0.79198  0.46615  0.89921  1.0000
  C   C7573     1.0  0.97484  0.28164  0.48257  1.0000
  H   H6027     1.0  0.89552  0.47382  0.90101  1.0000
  H   H6028     1.0  0.77088  0.46242  0.96666  1.0000
  Fe  Fe497     1.0  0.96858  0.41855  0.82994  1.0000
  C   C7574     1.0  0.93172  0.46900  0.58532  1.0000
  C   C7575     1.0  0.94960  0.27767  0.52958  1.0000
  C   C7576     1.0  0.86691  0.36080  0.96824  1.0000
  S   S991      1.0  0.88516  0.38728  0.95274  1.0000
  C   C7577     1.0  0.95115  0.46761  0.86270  1.0000
  C   C7578     1.0  0.82546  0.44057  0.86515  1.0000
  C   C7579     1.0  0.92156  0.35412  0.48766  1.0000
  C   C7580     1.0  0.96358  0.25534  0.48143  1.0000
  H   H6029     1.0  0.74400  0.47082  0.88556  1.0000
  C   C7581     1.0  0.76031  0.41832  0.86240  1.0000
  H   H6030     1.0  0.95336  0.37089  0.87039  1.0000
  C   C7582     1.0  0.96639  0.47473  0.82331  1.0000
  H   H6031     1.0  0.93209  0.45997  0.53870  1.0000
  C   C7583     1.0  0.75463  0.43109  0.85619  1.0000
  C   C7584     1.0  0.77552  0.35984  0.97300  1.0000
  H   H6032     1.0  0.91254  0.47544  0.88024  1.0000
  C   C7585     1.0  0.91046  0.41603  0.56374  1.0000
  H   H6033     1.0  0.95312  0.27223  0.59228  1.0000
  C   C7586     1.0  0.98475  0.47446  0.77074  1.0000
  H   H6034     1.0  0.77278  0.31295  0.97888  1.0000
  C   C7587     1.0  0.79632  0.39631  0.97844  1.0000
  P   P254      1.0  0.93714  0.41115  0.55145  1.0000
  H   H6035     1.0  0.80296  0.37348  0.95979  1.0000
  H   H6036     1.0  0.97936  0.42434  0.65838  1.0000
  H   H6037     1.0  0.85383  0.41292  0.87759  1.0000
  S   S992      1.0  0.76056  0.46876  0.90341  1.0000
  C   C7588     1.0  0.93946  0.47187  0.85811  1.0000
  C   C7589     1.0  0.98202  0.31232  0.50749  1.0000
  C   C7590     1.0  0.97678  0.39251  0.66813  1.0000
  H   H6038     1.0  0.74585  0.46528  0.93111  1.0000
  H   H6039     1.0  0.77002  0.41331  0.85784  1.0000
  H   H6040     1.0  0.75778  0.40197  0.87929  1.0000
  C   C7591     1.0  0.89091  0.23650  0.50820  1.0000
  C   C7592     1.0  0.94298  0.40814  0.94951  1.0000
  H   H6041     1.0  0.95047  0.45055  0.63711  1.0000
  H   H6042     1.0  0.88981  0.42036  0.57319  1.0000
  H   H6043     1.0  0.95437  0.25302  0.50740  1.0000
  H   H6044     1.0  0.92572  0.45501  0.89905  1.0000
  C   C7593     1.0  0.92778  0.44332  0.82893  1.0000
  C   C7594     1.0  0.91650  0.44546  0.82406  1.0000
  C   C7595     1.0  0.90508  0.45437  0.82867  1.0000
  C   C7596     1.0  0.90486  0.46098  0.83829  1.0000
  C   C7597     1.0  0.91598  0.45849  0.84366  1.0000
  C   C7598     1.0  0.92759  0.44987  0.83859  1.0000
  P   P255      1.0  0.91597  0.46827  0.85495  1.0000
  C   C7599     1.0  0.92031  0.48071  0.63896  1.0000
  C   C7600     1.0  0.90332  0.46677  0.87019  1.0000
  H   H6045     1.0  0.97376  0.42777  0.59613  1.0000
  H   H6046     1.0  0.82320  0.46602  0.91408  1.0000
  C   C7601     1.0  0.88400  0.46486  0.89408  1.0000
  C   C7602     1.0  0.88290  0.46037  0.88349  1.0000
  C   C7603     1.0  0.89250  0.46133  0.87157  1.0000
  H   H6047     1.0  0.95537  0.38893  0.51334  1.0000
  C   C7604     1.0  0.82203  0.34406  0.93570  1.0000
  H   H6048     1.0  0.98403  0.46918  0.64684  1.0000
  H   H6049     1.0  0.96823  0.42407  0.79186  1.0000
  C   C7605     1.0  0.98108  0.46566  0.65752  1.0000
  C   C7606     1.0  0.93134  0.46298  0.86035  1.0000
  C   C7607     1.0  0.93503  0.44984  0.86733  1.0000
  C   C7608     1.0  0.94687  0.44555  0.87165  1.0000
  H   H6050     1.0  0.95586  0.42137  0.94605  1.0000
  C   C7609     1.0  0.96431  0.46658  0.67792  1.0000
  C   C7610     1.0  0.98039  0.44968  0.60954  1.0000
  H   H6051     1.0  0.93681  0.43678  0.82502  1.0000
  H   H6052     1.0  0.91676  0.44048  0.81645  1.0000
  H   H6053     1.0  0.89652  0.45647  0.82448  1.0000
  H   H6054     1.0  0.89616  0.46838  0.84121  1.0000
  H   H6055     1.0  0.93669  0.44842  0.84169  1.0000
  C   C7611     1.0  0.81248  0.34774  0.95802  1.0000
  C   C7612     1.0  0.98247  0.35529  0.55727  1.0000
  H   H6056     1.0  0.76261  0.33403  0.96522  1.0000
  H   H6057     1.0  0.87456  0.45612  0.88460  1.0000
  H   H6058     1.0  0.89140  0.45773  0.86360  1.0000
  H   H6059     1.0  0.98460  0.39285  0.55201  1.0000
  C   C7613     1.0  0.98477  0.47716  0.74018  1.0000
  H   H6060     1.0  0.92489  0.37318  0.54371  1.0000
  H   H6061     1.0  0.97772  0.29824  0.91750  1.0000
  C   C7614     1.0  0.98578  0.40999  0.78516  1.0000
  H   H6062     1.0  0.92889  0.44284  0.86918  1.0000
  H   H6063     1.0  0.94989  0.43528  0.87659  1.0000
  C   C7615     1.0  0.92478  0.44167  0.52157  1.0000
  C   C7616     1.0  0.92525  0.30860  0.49480  1.0000
  H   H6064     1.0  0.82338  0.45096  0.95971  1.0000
  C   C7617     1.0  0.91005  0.29780  0.61967  1.0000
  P   P256      1.0  0.91778  0.30950  0.60629  1.0000
  C   C7618     1.0  0.93453  0.30175  0.59953  1.0000
  C   C7619     1.0  0.90976  0.31419  0.59245  1.0000
  C   C7620     1.0  0.90782  0.32729  0.58495  1.0000
  C   C7621     1.0  0.90239  0.33065  0.57373  1.0000
  C   C7622     1.0  0.89912  0.32091  0.56973  1.0000
  C   C7623     1.0  0.90115  0.30782  0.57704  1.0000
  C   C7624     1.0  0.90651  0.30444  0.58832  1.0000
  C   C7625     1.0  0.94417  0.30934  0.59392  1.0000
  C   C7626     1.0  0.95696  0.30355  0.58804  1.0000
  C   C7627     1.0  0.95064  0.28256  0.59290  1.0000
  C   C7628     1.0  0.88037  0.39809  0.96374  1.0000
  C   C7629     1.0  0.93781  0.28833  0.59881  1.0000
  C   C7630     1.0  0.91693  0.32332  0.61323  1.0000
  C   C7631     1.0  0.90573  0.33379  0.61369  1.0000
  C   C7632     1.0  0.90540  0.34478  0.61842  1.0000
  C   C7633     1.0  0.91604  0.34521  0.62312  1.0000
  C   C7634     1.0  0.92690  0.33451  0.62338  1.0000
  C   C7635     1.0  0.92729  0.32353  0.61860  1.0000
  H   H6065     1.0  0.92755  0.28864  0.62765  1.0000
  H   H6066     1.0  0.89071  0.30540  0.61503  1.0000
  H   H6067     1.0  0.91100  0.33484  0.58736  1.0000
  H   H6068     1.0  0.90122  0.34073  0.56783  1.0000
  H   H6069     1.0  0.89544  0.32338  0.56071  1.0000
  H   H6070     1.0  0.89898  0.30022  0.57365  1.0000
  H   H6071     1.0  0.90840  0.29415  0.59358  1.0000
  H   H6072     1.0  0.94172  0.31984  0.59371  1.0000
  P   P257      1.0  0.95826  0.27914  0.48954  1.0000
  H   H6073     1.0  0.95645  0.45804  0.79433  1.0000
  C   C7636     1.0  0.97536  0.42097  0.78330  1.0000
  H   H6074     1.0  0.93042  0.28238  0.60259  1.0000
  H   H6075     1.0  0.89738  0.33363  0.61012  1.0000
  H   H6076     1.0  0.89699  0.35310  0.61822  1.0000
  H   H6077     1.0  0.91600  0.35389  0.62640  1.0000
  H   H6078     1.0  0.93519  0.33496  0.62692  1.0000
  H   H6079     1.0  0.93581  0.31537  0.61889  1.0000
  H   H6080     1.0  0.94923  0.39972  0.95470  1.0000
  C   C7637     1.0  0.82111  0.42392  0.92591  1.0000
  C   C7638     1.0  0.81995  0.43261  0.91364  1.0000
  S   S993      1.0  0.92118  0.24066  0.53399  1.0000
  H   H6081     1.0  0.82891  0.42362  0.93054  1.0000
  H   H6082     1.0  0.82702  0.43886  0.90890  1.0000
  C   C7639     1.0  0.95079  0.44476  0.67003  1.0000
  C   C7640     1.0  0.90620  0.42922  0.86590  1.0000
  H   H6083     1.0  0.93792  0.33298  0.86690  1.0000
  C   C7641     1.0  0.92010  0.37256  0.83563  1.0000
  C   C7642     1.0  0.94969  0.25599  0.52716  1.0000
  C   C7643     1.0  0.92059  0.43093  0.90737  1.0000
  H   H6084     1.0  0.74632  0.35102  0.97591  1.0000
  H   H6085     1.0  0.88001  0.44684  0.79482  1.0000
  H   H6086     1.0  0.86920  0.38437  0.88063  1.0000
  H   H6087     1.0  0.87576  0.45327  0.81640  1.0000
  C   C7644     1.0  0.95841  0.26889  0.56297  1.0000
  H   H6088     1.0  0.97634  0.28780  0.49951  1.0000
  H   H6089     1.0  0.91373  0.48097  0.60958  1.0000
  H   H6090     1.0  0.76653  0.44158  0.87108  1.0000
  C   C7645     1.0  0.93006  0.38968  0.81938  1.0000
  H   H6091     1.0  0.90868  0.42076  0.55387  1.0000
  C   C7646     1.0  0.92065  0.46339  0.62362  1.0000
  S   S994      1.0  0.91830  0.24517  0.56946  1.0000
  C   C7647     1.0  0.91667  0.36550  0.92698  1.0000
  H   H6092     1.0  0.87234  0.40423  0.83236  1.0000
  C   C7648     1.0  0.96212  0.47640  0.78335  1.0000
  H   H6093     1.0  0.94764  0.28464  0.53587  1.0000
  C   C7649     1.0  0.86881  0.27387  0.51148  1.0000
  C   C7650     1.0  0.83595  0.43149  0.96193  1.0000
  H   H6094     1.0  0.90888  0.43429  0.87181  1.0000
  P   P258      1.0  0.92946  0.46009  0.65932  1.0000
  S   S995      1.0  0.85480  0.40567  0.93484  1.0000
  H   H6095     1.0  0.88759  0.39514  0.86778  1.0000
  H   H6096     1.0  0.92632  0.42236  0.85616  1.0000
  H   H6097     1.0  0.88225  0.43672  0.83593  1.0000
  C   C7651     1.0  0.94409  0.34126  0.87969  1.0000
  C   C7652     1.0  0.97329  0.44183  0.60725  1.0000
  Fe  Fe498     1.0  0.96805  0.39071  0.82954  1.0000
  C   C7653     1.0  0.79413  0.43039  0.88373  1.0000
  C   C7654     1.0  0.91932  0.39938  0.82382  1.0000
  H   H6098     1.0  0.97154  0.43412  0.63733  1.0000
  H   H6099     1.0  0.97081  0.35568  0.54390  1.0000
  H   H6100     1.0  0.88364  0.43396  0.90924  1.0000
  S   S996      1.0  0.96777  0.41376  0.74265  1.0000
  C   C7655     1.0  0.96863  0.37682  0.77580  1.0000
  C   C7656     1.0  0.97255  0.39692  0.68012  1.0000
  H   H6101     1.0  0.94504  0.44741  0.67933  1.0000
  C   C7657     1.0  0.81235  0.45876  0.88996  1.0000
  H   H6102     1.0  0.92658  0.42064  0.52703  1.0000
  H   H6103     1.0  0.96322  0.44184  0.61275  1.0000
  C   C7658     1.0  0.80248  0.41572  0.92594  1.0000
  C   C7659     1.0  0.88046  0.44313  0.81557  1.0000
  C   C7660     1.0  0.88280  0.43951  0.80342  1.0000
  C   C7661     1.0  0.88869  0.42641  0.80235  1.0000
  C   C7662     1.0  0.89235  0.41694  0.81339  1.0000
  C   C7663     1.0  0.89038  0.42058  0.82555  1.0000
  C   C7664     1.0  0.88418  0.43370  0.82662  1.0000
  P   P259      1.0  0.89495  0.40828  0.83985  1.0000
  C   C7665     1.0  0.89944  0.41625  0.85023  1.0000
  C   C7666     1.0  0.88120  0.40073  0.84919  1.0000
  C   C7667     1.0  0.88021  0.39499  0.86281  1.0000
  C   C7668     1.0  0.86979  0.38886  0.87011  1.0000
  C   C7669     1.0  0.86022  0.38847  0.86388  1.0000
  C   C7670     1.0  0.86118  0.39405  0.85027  1.0000
  C   C7671     1.0  0.87169  0.40010  0.84291  1.0000
  C   C7672     1.0  0.91270  0.41622  0.84907  1.0000
  C   C7673     1.0  0.91604  0.42263  0.85694  1.0000
  H   H6104     1.0  0.93008  0.37034  0.93543  1.0000
  C   C7674     1.0  0.93466  0.43872  0.54394  1.0000
  C   C7675     1.0  0.96884  0.32592  0.89424  1.0000
  S   S997      1.0  0.83461  0.38213  0.93350  1.0000
  C   C7676     1.0  0.95931  0.32972  0.91656  1.0000
  H   H6105     1.0  0.84791  0.28195  0.51414  1.0000
  H   H6106     1.0  0.96744  0.39786  0.77201  1.0000
  H   H6107     1.0  0.92456  0.48021  0.82663  1.0000
  C   C7677     1.0  0.80308  0.48140  0.89278  1.0000
  H   H6108     1.0  0.91618  0.39979  0.59940  1.0000
  C   C7678     1.0  0.75343  0.41193  0.87449  1.0000
  H   H6109     1.0  0.94989  0.26743  0.57096  1.0000
  H   H6110     1.0  0.85380  0.39364  0.84544  1.0000
  C   C7679     1.0  0.84122  0.35794  0.97110  1.0000
  H   H6111     1.0  0.97310  0.29638  0.52003  1.0000
  C   C7680     1.0  0.93391  0.29622  0.49538  1.0000
  H   H6112     1.0  0.97351  0.29337  0.54293  1.0000
  H   H6113     1.0  0.85308  0.23752  0.53678  1.0000
  C   C7681     1.0  0.89972  0.41580  0.57465  1.0000
  C   C7682     1.0  0.96434  0.46263  0.78775  1.0000
  H   H6114     1.0  0.92346  0.46261  0.51873  1.0000
  H   H6115     1.0  0.97004  0.28586  0.58250  1.0000
  C   C7683     1.0  0.97890  0.35625  0.88539  1.0000
  H   H6116     1.0  0.85210  0.38377  0.86960  1.0000
  C   C7684     1.0  0.77610  0.46115  0.97438  1.0000
  H   H6117     1.0  0.78921  0.46391  0.87926  1.0000
  H   H6118     1.0  0.96424  0.45112  0.87245  1.0000
  S   S998      1.0  0.77532  0.35687  0.95784  1.0000
  C   C7685     1.0  0.92396  0.45749  0.91899  1.0000
  C   C7686     1.0  0.96531  0.31671  0.92186  1.0000
  H   H6119     1.0  0.90567  0.36010  0.91615  1.0000
  C   C7687     1.0  0.96075  0.28163  0.55733  1.0000
  C   C7688     1.0  0.94757  0.36232  0.85770  1.0000
  H   H6120     1.0  0.81148  0.37275  0.93766  1.0000
  H   H6121     1.0  0.97107  0.39067  0.65103  1.0000
  P   P260      1.0  0.81030  0.44247  0.89043  1.0000
  C   C7689     1.0  0.95331  0.28176  0.51575  1.0000
  C   C7690     1.0  0.96709  0.25801  0.55830  1.0000
  H   H6122     1.0  0.93079  0.28775  0.50254  1.0000
  C   C7691     1.0  0.78774  0.45434  0.87950  1.0000
  S   S999      1.0  0.97312  0.42205  0.70968  1.0000
  C   C7692     1.0  0.97161  0.36785  0.57445  1.0000
  C   C7693     1.0  0.96403  0.40075  0.55175  1.0000
  H   H6123     1.0  0.95248  0.48250  0.78647  1.0000
  C   C7694     1.0  0.85070  0.34716  0.97600  1.0000
  H   H6124     1.0  0.96810  0.39309  0.88811  1.0000
  C   C7695     1.0  0.91351  0.42722  0.67518  1.0000
  H   H6125     1.0  0.91678  0.41666  0.67547  1.0000
  H   H6126     1.0  0.98454  0.40581  0.56794  1.0000
  H   H6127     1.0  0.83353  0.45444  0.88200  1.0000
  C   C7696     1.0  0.97228  0.48234  0.77489  1.0000
  C   C7697     1.0  0.89862  0.44290  0.95299  1.0000
  C   C7698     1.0  0.97562  0.40685  0.56468  1.0000
  C   C7699     1.0  0.92755  0.46064  0.90499  1.0000
  C   C7700     1.0  0.89395  0.43321  0.90868  1.0000
  C   C7701     1.0  0.94028  0.36213  0.91811  1.0000
  C   C7702     1.0  0.98277  0.35937  0.56852  1.0000
  H   H6128     1.0  0.94890  0.37050  0.84916  1.0000
  C   C7703     1.0  0.96398  0.41522  0.56975  1.0000
  C   C7704     1.0  0.91455  0.40400  0.58940  1.0000
  H   H6129     1.0  0.97583  0.45593  0.61673  1.0000
  C   C7705     1.0  0.84692  0.42597  0.86046  1.0000
  S   S1000     1.0  0.88916  0.23967  0.52390  1.0000
  H   H6130     1.0  0.84161  0.34758  0.92720  1.0000
  C   C7706     1.0  0.90046  0.43256  0.68085  1.0000
  C   C7707     1.0  0.77493  0.44185  0.87451  1.0000
  C   C7708     1.0  0.78347  0.43005  0.87898  1.0000
  H   H6131     1.0  0.93507  0.39934  0.58026  1.0000
  C   C7709     1.0  0.92912  0.36634  0.92761  1.0000
  C   C7710     1.0  0.92335  0.41030  0.56560  1.0000
  C   C7711     1.0  0.96735  0.38874  0.77952  1.0000
  C   C7712     1.0  0.96592  0.38883  0.79308  1.0000
  H   H6132     1.0  0.96462  0.39800  0.79602  1.0000
  H   H6133     1.0  0.97177  0.37166  0.58275  1.0000
  C   C7713     1.0  0.96690  0.36527  0.79909  1.0000
  H   H6134     1.0  0.94468  0.26163  0.54598  1.0000
  H   H6135     1.0  0.91392  0.41643  0.93973  1.0000
  H   H6136     1.0  0.85566  0.42246  0.85339  1.0000
  H   H6137     1.0  0.98366  0.45509  0.84638  1.0000
  C   C7714     1.0  0.96001  0.37136  0.56977  1.0000
  H   H6138     1.0  0.95455  0.47085  0.68310  1.0000
  S   S1001     1.0  0.96407  0.37619  0.82008  1.0000
  Fe  Fe499     1.0  0.87531  0.39357  0.93529  1.0000
  H   H6139     1.0  0.95405  0.29200  0.51156  1.0000
  H   H6140     1.0  0.82724  0.40314  0.96295  1.0000
  C   C7715     1.0  0.96020  0.29018  0.58747  1.0000
  C   C7716     1.0  0.96585  0.37703  0.80288  1.0000
  S   S1002     1.0  0.97394  0.41262  0.84976  1.0000
  C   C7717     1.0  0.94837  0.38917  0.52280  1.0000
  C   C7718     1.0  0.93857  0.43127  0.93803  1.0000
  C   C7719     1.0  0.92308  0.41764  0.94101  1.0000
  H   H6141     1.0  0.91624  0.47234  0.57504  1.0000
  C   C7720     1.0  0.96836  0.36515  0.78570  1.0000
  H   H6142     1.0  0.78179  0.42057  0.87900  1.0000
  C   C7721     1.0  0.93854  0.39866  0.54244  1.0000
  H   H6143     1.0  0.93097  0.42978  0.90688  1.0000
  H   H6144     1.0  0.83417  0.42083  0.89377  1.0000
  S   S1003     1.0  0.97541  0.31208  0.55534  1.0000
  H   H6145     1.0  0.80238  0.34203  0.94654  1.0000
  H   H6146     1.0  0.87076  0.34033  0.97851  1.0000
  C   C7722     1.0  0.97275  0.45656  0.68500  1.0000
  C   C7723     1.0  0.83457  0.35083  0.94719  1.0000
  H   H6147     1.0  0.94332  0.42234  0.57053  1.0000
  C   C7724     1.0  0.92529  0.40400  0.57850  1.0000
  H   H6148     1.0  0.92446  0.42047  0.89175  1.0000
  H   H6149     1.0  0.80070  0.42113  0.88701  1.0000
  C   C7725     1.0  0.98422  0.37758  0.88177  1.0000
  C   C7726     1.0  0.93039  0.38944  0.54733  1.0000
  C   C7727     1.0  0.82436  0.43525  0.87888  1.0000
  C   C7728     1.0  0.93119  0.38028  0.53992  1.0000
  C   C7729     1.0  0.95232  0.41623  0.56598  1.0000
  H   H6150     1.0  0.90468  0.43336  0.95644  1.0000
  C   C7730     1.0  0.96091  0.33441  0.90270  1.0000
  H   H6151     1.0  0.97836  0.43776  0.83903  1.0000
  H   H6152     1.0  0.98092  0.30644  0.89298  1.0000
  C   C7731     1.0  0.90178  0.40989  0.58750  1.0000
  C   C7732     1.0  0.91056  0.26952  0.48600  1.0000
  H   H6153     1.0  0.90753  0.47383  0.72850  1.0000
  H   H6154     1.0  0.95179  0.37909  0.89610  1.0000
  C   C7733     1.0  0.86347  0.34863  0.97468  1.0000
  H   H6155     1.0  0.92509  0.35288  0.89931  1.0000
  C   C7734     1.0  0.88222  0.46732  0.94481  1.0000
  C   C7735     1.0  0.83358  0.34730  0.93593  1.0000
  H   H6156     1.0  0.96266  0.37187  0.69886  1.0000
  H   H6157     1.0  0.94095  0.37279  0.52215  1.0000
  H   H6158     1.0  0.97377  0.34964  0.62133  1.0000
  C   C7736     1.0  0.92666  0.43000  0.93624  1.0000
  C   C7737     1.0  0.83713  0.41804  0.96272  1.0000
  C   C7738     1.0  0.95341  0.26001  0.51331  1.0000
  H   H6159     1.0  0.86811  0.26733  0.52130  1.0000
  H   H6160     1.0  0.94167  0.44060  0.93432  1.0000
  C   C7739     1.0  0.92823  0.42904  0.52952  1.0000
  H   H6161     1.0  0.92777  0.44771  0.63902  1.0000
  H   H6162     1.0  0.83783  0.37836  0.96013  1.0000
  C   C7740     1.0  0.97094  0.35900  0.55251  1.0000
  C   C7741     1.0  0.97495  0.44800  0.83461  1.0000
  H   H6163     1.0  0.97477  0.33157  0.53061  1.0000
  C   C7742     1.0  0.77169  0.42494  0.96340  1.0000
  C   C7743     1.0  0.92472  0.24746  0.48910  1.0000
  C   C7744     1.0  0.92923  0.31977  0.48603  1.0000
  C   C7745     1.0  0.97564  0.39957  0.55573  1.0000
  C   C7746     1.0  0.90437  0.47111  0.88100  1.0000
  C   C7747     1.0  0.84483  0.37003  0.96442  1.0000
  C   C7748     1.0  0.91694  0.42556  0.89885  1.0000
  C   C7749     1.0  0.90170  0.45014  0.93981  1.0000
  H   H6164     1.0  0.84346  0.35370  0.94693  1.0000
  S   S1004     1.0  0.97059  0.37560  0.75910  1.0000
  C   C7750     1.0  0.97803  0.45784  0.83876  1.0000
  H   H6165     1.0  0.84830  0.33760  0.98066  1.0000
  C   C7751     1.0  0.82398  0.44049  0.96078  1.0000
  C   C7752     1.0  0.79559  0.39029  0.96874  1.0000
  C   C7753     1.0  0.82487  0.46187  0.88491  1.0000
  H   H6166     1.0  0.86725  0.43047  0.96513  1.0000
  C   C7754     1.0  0.97305  0.30831  0.91337  1.0000
  H   H6167     1.0  0.83600  0.47709  0.87961  1.0000
  H   H6168     1.0  0.97690  0.34883  0.59787  1.0000
  C   C7755     1.0  0.95494  0.45444  0.86932  1.0000
  P   P261      1.0  0.91592  0.44389  0.92784  1.0000
  C   C7756     1.0  0.79486  0.47423  0.94395  1.0000
  C   C7757     1.0  0.88097  0.23873  0.48980  1.0000
  S   S1005     1.0  0.98345  0.39310  0.69083  1.0000
  C   C7758     1.0  0.94669  0.42036  0.94466  1.0000
  H   H6169     1.0  0.98269  0.42951  0.74944  1.0000
  H   H6170     1.0  0.89554  0.46822  0.92571  1.0000
  C   C7759     1.0  0.97424  0.42804  0.77042  1.0000
  C   C7760     1.0  0.88739  0.44788  0.96196  1.0000
  H   H6171     1.0  0.96399  0.31315  0.93256  1.0000
  C   C7761     1.0  0.80159  0.46845  0.89457  1.0000
  S   S1006     1.0  0.96425  0.43957  0.81857  1.0000
  C   C7762     1.0  0.92216  0.48079  0.68846  1.0000
  H   H6172     1.0  0.88501  0.30773  0.48608  1.0000
  H   H6173     1.0  0.74181  0.44922  0.88385  1.0000
  C   C7763     1.0  0.78943  0.45461  0.97302  1.0000
  C   C7764     1.0  0.97683  0.45479  0.78399  1.0000
  H   H6174     1.0  0.96951  0.45307  0.69565  1.0000
  H   H6175     1.0  0.84440  0.43500  0.96193  1.0000
  C   C7765     1.0  0.85762  0.37143  0.96301  1.0000
  C   C7766     1.0  0.97484  0.31292  0.89957  1.0000
  H   H6176     1.0  0.75991  0.43600  0.84675  1.0000
  H   H6177     1.0  0.86032  0.38080  0.95781  1.0000
  C   C7767     1.0  0.93336  0.47146  0.89838  1.0000
  C   C7768     1.0  0.82391  0.35129  0.95825  1.0000
  C   C7769     1.0  0.87082  0.29017  0.48590  1.0000
  C   C7770     1.0  0.95555  0.26816  0.48103  1.0000
  Fe  Fe500     1.0  0.97611  0.40049  0.71003  1.0000
  C   C7771     1.0  0.98341  0.42395  0.75945  1.0000
  H   H6178     1.0  0.97045  0.32937  0.88351  1.0000
  H   H6179     1.0  0.91117  0.35407  0.49043  1.0000
  Fe  Fe501     1.0  0.97118  0.39277  0.74107  1.0000
  C   C7772     1.0  0.87997  0.24088  0.50237  1.0000
  P   P262      1.0  0.82468  0.35627  0.97276  1.0000
  S   S1007     1.0  0.97328  0.38249  0.84969  1.0000
  C   C7773     1.0  0.98223  0.29977  0.51598  1.0000
  C   C7774     1.0  0.98021  0.27270  0.54187  1.0000
  H   H6180     1.0  0.87583  0.47672  0.94162  1.0000
  C   C7775     1.0  0.74214  0.43756  0.86217  1.0000
  C   C7776     1.0  0.89474  0.47021  0.89284  1.0000
  C   C7777     1.0  0.97918  0.43400  0.59782  1.0000
  H   H6181     1.0  0.84657  0.41119  0.96313  1.0000
  C   C7778     1.0  0.98544  0.45121  0.67839  1.0000
  H   H6182     1.0  0.80419  0.34806  0.96641  1.0000
  H   H6183     1.0  0.97132  0.25188  0.48693  1.0000
  H   H6184     1.0  0.98206  0.34617  0.88406  1.0000
  C   C7779     1.0  0.97120  0.38271  0.88765  1.0000
  H   H6185     1.0  0.92857  0.23789  0.48642  1.0000
  H   H6186     1.0  0.96197  0.47878  0.65862  1.0000
  C   C7780     1.0  0.80411  0.37816  0.96696  1.0000
  H   H6187     1.0  0.76659  0.41836  0.97154  1.0000
  C   C7781     1.0  0.93541  0.47939  0.90561  1.0000
  C   C7782     1.0  0.98261  0.35190  0.61422  1.0000
  H   H6188     1.0  0.78058  0.43057  0.97595  1.0000
  C   C7783     1.0  0.98479  0.32822  0.53183  1.0000
  H   H6189     1.0  0.93609  0.47385  0.88760  1.0000
  H   H6190     1.0  0.87247  0.24229  0.48534  1.0000
  H   H6191     1.0  0.93689  0.48206  0.85279  1.0000
  C   C7784     1.0  0.74276  0.44541  0.93652  1.0000
  C   C7785     1.0  0.88251  0.39322  0.97673  1.0000
  H   H6192     1.0  0.91729  0.47991  0.69889  1.0000
  C   C7786     1.0  0.75967  0.33215  0.97602  1.0000
  H   H6193     1.0  0.97276  0.31869  0.50542  1.0000
  H   H6194     1.0  0.89360  0.48050  0.95646  1.0000
  H   H6195     1.0  0.98474  0.25130  0.54449  1.0000
  S   S1008     1.0  0.73941  0.41987  0.94326  1.0000
  H   H6196     1.0  0.73973  0.42594  0.96910  1.0000
  H   H6197     1.0  0.73784  0.44748  0.85729  1.0000
  C   C7787     1.0  0.80859  0.48144  0.92243  1.0000
  H   H6198     1.0  0.73779  0.38772  0.89708  1.0000
  H   H6199     1.0  0.93333  0.48261  0.92511  1.0000
  H   H6200     1.0  0.84453  0.38812  0.98002  1.0000
  H   H6201     1.0  0.73693  0.44630  0.94638  1.0000
  H   H6202     1.0  0.94454  0.60764  0.04117  1.0000
  H   H6203     1.0  0.91149  0.65593  0.46005  1.0000
  C   C7788     1.0  0.78048  0.49608  0.07136  1.0000
  C   C7789     1.0  0.78957  0.53849  0.06170  1.0000
  S   S1009     1.0  0.98617  0.55719  0.09331  1.0000
  C   C7790     1.0  0.81689  0.50747  0.13892  1.0000
  Fe  Fe502     1.0  0.83544  0.54088  0.03694  1.0000
  S   S1010     1.0  0.85151  0.53957  0.01849  1.0000
  S   S1011     1.0  0.83530  0.54899  0.05445  1.0000
  Fe  Fe503     1.0  0.81949  0.52559  0.02931  1.0000
  S   S1012     1.0  0.83441  0.52297  0.01041  1.0000
  S   S1013     1.0  0.80351  0.51415  0.03419  1.0000
  Fe  Fe504     1.0  0.84942  0.51858  0.02261  1.0000
  C   C7791     1.0  0.75577  0.55000  0.99320  1.0000
  Fe  Fe505     1.0  0.83503  0.54405  0.00779  1.0000
  S   S1014     1.0  0.83481  0.55800  0.98767  1.0000
  S   S1015     1.0  0.83460  0.51937  0.04183  1.0000
  S   S1016     1.0  0.81887  0.54727  0.02597  1.0000
  Fe  Fe506     1.0  0.89413  0.55228  0.08188  1.0000
  S   S1017     1.0  0.90991  0.53446  0.07783  1.0000
  S   S1018     1.0  0.88497  0.56310  0.06397  1.0000
  Fe  Fe507     1.0  0.89721  0.54671  0.11083  1.0000
  S   S1019     1.0  0.91294  0.52824  0.10866  1.0000
  S   S1020     1.0  0.88908  0.54968  0.13214  1.0000
  Fe  Fe508     1.0  0.92126  0.54041  0.08894  1.0000
  S   S1021     1.0  0.94316  0.53642  0.07997  1.0000
  Fe  Fe509     1.0  0.90036  0.52395  0.09765  1.0000
  S   S1022     1.0  0.89669  0.50405  0.09871  1.0000
  S   S1023     1.0  0.90631  0.55939  0.09152  1.0000
  S   S1024     1.0  0.88379  0.54137  0.10128  1.0000
  H   H6204     1.0  0.96074  0.49501  0.27466  1.0000
  Fe  Fe510     1.0  0.92192  0.55945  0.18548  1.0000
  S   S1025     1.0  0.94278  0.54786  0.18427  1.0000
  S   S1026     1.0  0.91622  0.57040  0.16573  1.0000
  Fe  Fe511     1.0  0.91622  0.55369  0.21605  1.0000
  S   S1027     1.0  0.93653  0.54153  0.21717  1.0000
  S   S1028     1.0  0.89988  0.55717  0.23415  1.0000
  Fe  Fe512     1.0  0.94338  0.55731  0.20012  1.0000
  S   S1029     1.0  0.96128  0.56451  0.19923  1.0000
  Fe  Fe513     1.0  0.93438  0.53296  0.20125  1.0000
  S   S1030     1.0  0.94440  0.51174  0.20106  1.0000
  S   S1031     1.0  0.92320  0.57045  0.20004  1.0000
  S   S1032     1.0  0.91330  0.54368  0.20144  1.0000
  H   H6205     1.0  0.96338  0.48441  0.36487  1.0000
  Fe  Fe514     1.0  0.94010  0.60008  0.41084  1.0000
  S   S1033     1.0  0.93201  0.61563  0.39416  1.0000
  S   S1034     1.0  0.93048  0.59287  0.43245  1.0000
  H   H6206     1.0  0.94909  0.49521  0.07863  1.0000
  H   H6207     1.0  0.90289  0.50215  0.13849  1.0000
  H   H6208     1.0  0.81843  0.53185  0.07148  1.0000
  Fe  Fe515     1.0  0.95036  0.62331  0.39072  1.0000
  S   S1035     1.0  0.95701  0.64255  0.38634  1.0000
  Fe  Fe516     1.0  0.94460  0.60123  0.38111  1.0000
  S   S1036     1.0  0.94116  0.59846  0.36195  1.0000
  H   H6209     1.0  0.96058  0.55543  0.04341  1.0000
  S   S1037     1.0  0.95149  0.58528  0.39801  1.0000
  Fe  Fe517     1.0  0.91819  0.55472  0.30178  1.0000
  S   S1038     1.0  0.93768  0.54364  0.29239  1.0000
  S   S1039     1.0  0.90226  0.56501  0.29017  1.0000
  Fe  Fe518     1.0  0.92581  0.54933  0.32874  1.0000
  S   S1040     1.0  0.94561  0.53705  0.32144  1.0000
  S   S1041     1.0  0.92181  0.55283  0.34975  1.0000
  Fe  Fe519     1.0  0.94627  0.55325  0.30295  1.0000
  S   S1042     1.0  0.96371  0.56271  0.29318  1.0000
  Fe  Fe520     1.0  0.93529  0.52831  0.31155  1.0000
  S   S1043     1.0  0.94328  0.50763  0.30765  1.0000
  S   S1044     1.0  0.92693  0.56594  0.31068  1.0000
  S   S1045     1.0  0.91513  0.53892  0.32062  1.0000
  H   H6210     1.0  0.75840  0.51196  0.03747  1.0000
  C   C7792     1.0  0.78243  0.49813  0.09730  1.0000
  C   C7793     1.0  0.93495  0.49466  0.31159  1.0000
  C   C7794     1.0  0.92284  0.49460  0.32073  1.0000
  C   C7795     1.0  0.97243  0.51487  0.11170  1.0000
  C   C7796     1.0  0.93919  0.66654  0.42213  1.0000
  H   H6211     1.0  0.95845  0.55756  0.32853  1.0000
  C   C7797     1.0  0.94737  0.65595  0.47792  1.0000
  H   H6212     1.0  0.91811  0.50292  0.32545  1.0000
  H   H6213     1.0  0.80867  0.58047  0.98243  1.0000
  H   H6214     1.0  0.75707  0.48719  0.05501  1.0000
  H   H6215     1.0  0.73905  0.60136  0.02704  1.0000
  H   H6216     1.0  0.96564  0.50500  0.16378  1.0000
  C   C7798     1.0  0.98061  0.58801  0.27041  1.0000
  H   H6217     1.0  0.74761  0.55752  0.98994  1.0000
  H   H6218     1.0  0.92963  0.59662  0.32006  1.0000
  H   H6219     1.0  0.90469  0.68996  0.45492  1.0000
  C   C7799     1.0  0.89239  0.50109  0.17210  1.0000
  H   H6220     1.0  0.96956  0.53513  0.30595  1.0000
  H   H6221     1.0  0.94620  0.50912  0.25300  1.0000
  C   C7800     1.0  0.89428  0.52149  0.25358  1.0000
  C   C7801     1.0  0.97902  0.63325  0.42943  1.0000
  C   C7802     1.0  0.93637  0.58516  0.35899  1.0000
  C   C7803     1.0  0.93054  0.57589  0.36931  1.0000
  C   C7804     1.0  0.92617  0.56603  0.36636  1.0000
  C   C7805     1.0  0.92776  0.56518  0.35309  1.0000
  C   C7806     1.0  0.93378  0.57433  0.34280  1.0000
  C   C7807     1.0  0.93794  0.58431  0.34573  1.0000
  H   H6222     1.0  0.92917  0.57646  0.37955  1.0000
  H   H6223     1.0  0.92152  0.55904  0.37441  1.0000
  H   H6224     1.0  0.93513  0.57376  0.33258  1.0000
  H   H6225     1.0  0.94238  0.59145  0.33770  1.0000
  C   C7808     1.0  0.94787  0.65890  0.38651  1.0000
  H   H6226     1.0  0.97840  0.68676  0.40121  1.0000
  H   H6227     1.0  0.88219  0.51909  0.24172  1.0000
  S   S1046     1.0  0.94633  0.73061  0.37918  1.0000
  H   H6228     1.0  0.92875  0.65518  0.38878  1.0000
  C   C7809     1.0  0.73975  0.59208  0.02451  1.0000
  C   C7810     1.0  0.90691  0.52255  0.25355  1.0000
  C   C7811     1.0  0.98518  0.50797  0.11280  1.0000
  C   C7812     1.0  0.93338  0.61527  0.46192  1.0000
  C   C7813     1.0  0.93528  0.60144  0.46526  1.0000
  C   C7814     1.0  0.93403  0.59466  0.45632  1.0000
  C   C7815     1.0  0.93166  0.60158  0.44369  1.0000
  C   C7816     1.0  0.93012  0.61537  0.44023  1.0000
  C   C7817     1.0  0.93065  0.62220  0.44944  1.0000
  H   H6229     1.0  0.86624  0.50222  0.15967  1.0000
  H   H6230     1.0  0.93516  0.58400  0.45909  1.0000
  H   H6231     1.0  0.92818  0.62081  0.43057  1.0000
  H   H6232     1.0  0.92897  0.63289  0.44685  1.0000
  C   C7818     1.0  0.90177  0.55940  0.24924  1.0000
  C   C7819     1.0  0.89075  0.56629  0.25702  1.0000
  C   C7820     1.0  0.89126  0.56798  0.26934  1.0000
  C   C7821     1.0  0.90273  0.56262  0.27430  1.0000
  C   C7822     1.0  0.91386  0.55558  0.26663  1.0000
  C   C7823     1.0  0.91341  0.55407  0.25404  1.0000
  H   H6233     1.0  0.88176  0.57048  0.25342  1.0000
  H   H6234     1.0  0.88262  0.57341  0.27513  1.0000
  H   H6235     1.0  0.92279  0.55140  0.27035  1.0000
  H   H6236     1.0  0.92195  0.54864  0.24816  1.0000
  H   H6237     1.0  0.77773  0.52450  0.06474  1.0000
  C   C7824     1.0  0.87929  0.49758  0.26635  1.0000
  H   H6238     1.0  0.93738  0.59602  0.47486  1.0000
  C   C7825     1.0  0.93507  0.50182  0.19912  1.0000
  C   C7826     1.0  0.92186  0.50677  0.19830  1.0000
  C   C7827     1.0  0.91444  0.49828  0.19762  1.0000
  C   C7828     1.0  0.76692  0.52686  0.99766  1.0000
  C   C7829     1.0  0.93744  0.65729  0.44573  1.0000
  H   H6239     1.0  0.91735  0.51707  0.19830  1.0000
  H   H6240     1.0  0.90416  0.50199  0.19728  1.0000
  C   C7830     1.0  0.89756  0.55473  0.14117  1.0000
  C   C7831     1.0  0.89573  0.54989  0.15505  1.0000
  C   C7832     1.0  0.90194  0.55406  0.16261  1.0000
  C   C7833     1.0  0.90961  0.56355  0.15642  1.0000
  C   C7834     1.0  0.91141  0.56838  0.14254  1.0000
  C   C7835     1.0  0.90567  0.56379  0.13491  1.0000
  H   H6241     1.0  0.88948  0.54289  0.15996  1.0000
  H   H6242     1.0  0.90039  0.55034  0.17329  1.0000
  H   H6243     1.0  0.91712  0.57587  0.13766  1.0000
  H   H6244     1.0  0.90707  0.56767  0.12426  1.0000
  C   C7836     1.0  0.96646  0.57813  0.04758  1.0000
  H   H6245     1.0  0.78307  0.54654  0.05642  1.0000
  C   C7837     1.0  0.97820  0.53894  0.30403  1.0000
  H   H6246     1.0  0.76336  0.49589  0.13428  1.0000
  C   C7838     1.0  0.91225  0.61428  0.33389  1.0000
  H   H6247     1.0  0.92272  0.50397  0.10117  1.0000
  C   C7839     1.0  0.87151  0.55848  0.06139  1.0000
  C   C7840     1.0  0.87031  0.55967  0.04835  1.0000
  C   C7841     1.0  0.85960  0.55624  0.04604  1.0000
  C   C7842     1.0  0.84956  0.55237  0.05677  1.0000
  C   C7843     1.0  0.85050  0.55175  0.06975  1.0000
  C   C7844     1.0  0.86159  0.55442  0.07208  1.0000
  H   H6248     1.0  0.87767  0.56333  0.04000  1.0000
  H   H6249     1.0  0.85885  0.55709  0.03596  1.0000
  H   H6250     1.0  0.84267  0.54904  0.07803  1.0000
  H   H6251     1.0  0.86232  0.55370  0.08210  1.0000
  H   H6252     1.0  0.97432  0.49900  0.18414  1.0000
  H   H6253     1.0  0.88606  0.50599  0.03116  1.0000
  C   C7845     1.0  0.97397  0.53872  0.20849  1.0000
  C   C7846     1.0  0.97450  0.55215  0.20446  1.0000
  H   H6254     1.0  0.74252  0.59336  0.98963  1.0000
  C   C7847     1.0  0.80642  0.51769  0.07515  1.0000
  H   H6255     1.0  0.74560  0.50949  0.99404  1.0000
  H   H6256     1.0  0.96540  0.53566  0.20812  1.0000
  C   C7848     1.0  0.96505  0.66012  0.34033  1.0000
  H   H6257     1.0  0.97496  0.54614  0.12276  1.0000
  C   C7849     1.0  0.95187  0.71430  0.44619  1.0000
  C   C7850     1.0  0.96054  0.55581  0.09550  1.0000
  C   C7851     1.0  0.95086  0.55100  0.09293  1.0000
  C   C7852     1.0  0.95466  0.54154  0.08511  1.0000
  C   C7853     1.0  0.96809  0.53650  0.08045  1.0000
  H   H6258     1.0  0.92253  0.51888  0.22205  1.0000
  H   H6259     1.0  0.95753  0.56356  0.10100  1.0000
  H   H6260     1.0  0.94050  0.55500  0.09652  1.0000
  H   H6261     1.0  0.97111  0.52928  0.07435  1.0000
  H   H6262     1.0  0.80765  0.52696  0.99239  1.0000
  C   C7854     1.0  0.89434  0.58902  0.32303  1.0000
  H   H6263     1.0  0.85315  0.50213  0.99636  1.0000
  C   C7855     1.0  0.78670  0.52154  0.03462  1.0000
  C   C7856     1.0  0.78139  0.53494  0.03489  1.0000
  H   H6264     1.0  0.78241  0.50312  0.03508  1.0000
  H   H6265     1.0  0.78782  0.54133  0.03412  1.0000
  H   H6266     1.0  0.94552  0.48864  0.16448  1.0000
  H   H6267     1.0  0.89114  0.71162  0.45919  1.0000
  H   H6268     1.0  0.84596  0.49816  0.10991  1.0000
  C   C7857     1.0  0.93434  0.48466  0.13801  1.0000
  H   H6269     1.0  0.94192  0.66518  0.41201  1.0000
  H   H6270     1.0  0.98619  0.56630  0.20152  1.0000
  C   C7858     1.0  0.92432  0.50391  0.28263  1.0000
  H   H6271     1.0  0.95333  0.71686  0.47654  1.0000
  C   C7859     1.0  0.88880  0.50543  0.99137  1.0000
  C   C7860     1.0  0.91173  0.70554  0.48010  1.0000
  C   C7861     1.0  0.97651  0.72437  0.34717  1.0000
  C   C7862     1.0  0.90690  0.69435  0.46176  1.0000
  C   C7863     1.0  0.88108  0.57755  0.31716  1.0000
  C   C7864     1.0  0.86147  0.55929  0.25147  1.0000
  C   C7865     1.0  0.90007  0.60176  0.35912  1.0000
  H   H6272     1.0  0.94182  0.57550  0.07556  1.0000
  P   P263      1.0  0.90116  0.60337  0.32007  1.0000
  C   C7866     1.0  0.91066  0.49131  0.10071  1.0000
  C   C7867     1.0  0.78654  0.52594  0.06650  1.0000
  H   H6273     1.0  0.89695  0.55718  0.34113  1.0000
  C   C7868     1.0  0.96946  0.65360  0.35202  1.0000
  C   C7869     1.0  0.98319  0.56124  0.24210  1.0000
  H   H6274     1.0  0.96379  0.60917  0.46053  1.0000
  C   C7870     1.0  0.98187  0.51446  0.13361  1.0000
  S   S1047     1.0  0.86648  0.50118  0.02148  1.0000
  H   H6275     1.0  0.91087  0.61090  0.36679  1.0000
  C   C7871     1.0  0.93981  0.59361  0.30054  1.0000
  H   H6276     1.0  0.84455  0.51787  0.06735  1.0000
  C   C7872     1.0  0.94089  0.48850  0.19900  1.0000
  C   C7873     1.0  0.91461  0.61617  0.34534  1.0000
  H   H6277     1.0  0.84224  0.50176  0.28379  1.0000
  P   P264      1.0  0.76390  0.57061  0.99734  1.0000
  H   H6278     1.0  0.94553  0.64581  0.43057  1.0000
  H   H6279     1.0  0.96220  0.58019  0.32223  1.0000
  C   C7874     1.0  0.77679  0.50561  0.11804  1.0000
  H   H6280     1.0  0.90898  0.52430  0.26212  1.0000
  C   C7875     1.0  0.90864  0.60979  0.35794  1.0000
  C   C7876     1.0  0.87126  0.48623  0.08653  1.0000
  C   C7877     1.0  0.90161  0.51357  0.05078  1.0000
  C   C7878     1.0  0.89924  0.52734  0.04608  1.0000
  C   C7879     1.0  0.89238  0.53331  0.03589  1.0000
  C   C7880     1.0  0.88762  0.52556  0.03059  1.0000
  C   C7881     1.0  0.89013  0.51179  0.03513  1.0000
  P   P265      1.0  0.79101  0.49926  0.08004  1.0000
  S   S1048     1.0  0.74174  0.51323  0.02010  1.0000
  H   H6281     1.0  0.74821  0.50379  0.06915  1.0000
  C   C7882     1.0  0.94721  0.57983  0.06588  1.0000
  H   H6282     1.0  0.95639  0.50574  0.34972  1.0000
  H   H6283     1.0  0.96740  0.55455  0.47177  1.0000
  C   C7883     1.0  0.80086  0.57771  0.99083  1.0000
  H   H6284     1.0  0.83440  0.52034  0.09050  1.0000
  H   H6285     1.0  0.96378  0.49453  0.22911  1.0000
  C   C7884     1.0  0.89912  0.70656  0.46427  1.0000
  H   H6286     1.0  0.90631  0.50922  0.05917  1.0000
  H   H6287     1.0  0.90236  0.53347  0.05060  1.0000
  H   H6288     1.0  0.89045  0.54397  0.03235  1.0000
  H   H6289     1.0  0.88169  0.53027  0.02322  1.0000
  C   C7885     1.0  0.80110  0.54058  0.06343  1.0000
  H   H6290     1.0  0.92012  0.50796  0.29146  1.0000
  C   C7886     1.0  0.95089  0.61842  0.32862  1.0000
  H   H6291     1.0  0.97694  0.73046  0.43818  1.0000
  C   C7887     1.0  0.86015  0.48689  0.02620  1.0000
  C   C7888     1.0  0.86012  0.48608  0.08246  1.0000
  H   H6292     1.0  0.74220  0.55859  0.01601  1.0000
  C   C7889     1.0  0.98574  0.55595  0.20471  1.0000
  C   C7890     1.0  0.78120  0.56984  0.01260  1.0000
  C   C7891     1.0  0.85903  0.51087  0.27682  1.0000
  H   H6293     1.0  0.89164  0.48739  0.08045  1.0000
  C   C7892     1.0  0.93152  0.66992  0.44846  1.0000
  C   C7893     1.0  0.96902  0.58124  0.45303  1.0000
  H   H6294     1.0  0.81305  0.50980  0.08040  1.0000
  C   C7894     1.0  0.97003  0.57254  0.16326  1.0000
  C   C7895     1.0  0.80283  0.57489  0.00375  1.0000
  C   C7896     1.0  0.94120  0.65561  0.43261  1.0000
  H   H6295     1.0  0.84673  0.57365  0.26131  1.0000
  H   H6296     1.0  0.94622  0.68757  0.46004  1.0000
  H   H6297     1.0  0.74930  0.53421  0.98986  1.0000
  C   C7897     1.0  0.93918  0.50449  0.26106  1.0000
  H   H6298     1.0  0.82970  0.50364  0.99735  1.0000
  C   C7898     1.0  0.91714  0.66010  0.47609  1.0000
  C   C7899     1.0  0.87228  0.50490  0.16454  1.0000
  H   H6299     1.0  0.94167  0.48552  0.10571  1.0000
  H   H6300     1.0  0.97977  0.51427  0.05022  1.0000
  H   H6301     1.0  0.86178  0.56563  0.24159  1.0000
  P   P266      1.0  0.98204  0.56856  0.04014  1.0000
  C   C7900     1.0  0.96821  0.67226  0.33324  1.0000
  S   S1049     1.0  0.96215  0.61034  0.37643  1.0000
  H   H6302     1.0  0.91633  0.72811  0.45035  1.0000
  H   H6303     1.0  0.97930  0.69367  0.37720  1.0000
  H   H6304     1.0  0.92517  0.49498  0.04664  1.0000
  H   H6305     1.0  0.90016  0.51760  0.22172  1.0000
  H   H6306     1.0  0.88292  0.59752  0.30776  1.0000
  C   C7901     1.0  0.95406  0.61570  0.30618  1.0000
  C   C7902     1.0  0.88573  0.58895  0.31539  1.0000
  H   H6307     1.0  0.97029  0.51491  0.26682  1.0000
  C   C7903     1.0  0.92712  0.48679  0.27067  1.0000
  C   C7904     1.0  0.91952  0.69337  0.47758  1.0000
  C   C7905     1.0  0.85308  0.56383  0.26258  1.0000
  C   C7906     1.0  0.88226  0.52776  0.99524  1.0000
  H   H6308     1.0  0.96252  0.52450  0.29104  1.0000
  C   C7907     1.0  0.97401  0.55076  0.09072  1.0000
  C   C7908     1.0  0.97818  0.57817  0.15157  1.0000
  H   H6309     1.0  0.87658  0.54373  0.24430  1.0000
  C   C7909     1.0  0.87285  0.48733  0.26849  1.0000
  C   C7910     1.0  0.98121  0.55128  0.04410  1.0000
  S   S1050     1.0  0.74203  0.53772  0.04032  1.0000
  H   H6310     1.0  0.76750  0.51661  0.99778  1.0000
  H   H6311     1.0  0.95995  0.51103  0.08193  1.0000
  C   C7911     1.0  0.91598  0.60060  0.30728  1.0000
  C   C7912     1.0  0.96685  0.58320  0.44031  1.0000
  C   C7913     1.0  0.85260  0.50060  0.27893  1.0000
  C   C7914     1.0  0.93364  0.67920  0.42470  1.0000
  C   C7915     1.0  0.92995  0.68093  0.43782  1.0000
  H   H6312     1.0  0.89067  0.59392  0.34891  1.0000
  C   C7916     1.0  0.92757  0.67588  0.38782  1.0000
  H   H6313     1.0  0.89186  0.53980  0.27671  1.0000
  C   C7917     1.0  0.78362  0.50646  0.10474  1.0000
  H   H6314     1.0  0.93218  0.68768  0.41650  1.0000
  H   H6315     1.0  0.92608  0.69088  0.43953  1.0000
  C   C7918     1.0  0.90405  0.60581  0.33496  1.0000
  C   C7919     1.0  0.76517  0.55342  0.99763  1.0000
  H   H6316     1.0  0.97734  0.57123  0.26572  1.0000
  H   H6317     1.0  0.97228  0.58816  0.27887  1.0000
  H   H6318     1.0  0.85077  0.48599  0.08955  1.0000
  H   H6319     1.0  0.88164  0.55723  0.32767  1.0000
  C   C7920     1.0  0.77536  0.54337  0.00224  1.0000
  C   C7921     1.0  0.77617  0.53014  0.00231  1.0000
  H   H6320     1.0  0.97866  0.59397  0.13380  1.0000
  C   C7922     1.0  0.83774  0.50093  0.11785  1.0000
  H   H6321     1.0  0.98365  0.59784  0.15873  1.0000
  C   C7923     1.0  0.77912  0.57261  0.99964  1.0000
  C   C7924     1.0  0.98428  0.48389  0.35755  1.0000
  C   C7925     1.0  0.92023  0.48489  0.19770  1.0000
  C   C7926     1.0  0.98495  0.69669  0.35116  1.0000
  H   H6322     1.0  0.97775  0.56001  0.01809  1.0000
  C   C7927     1.0  0.96224  0.72031  0.43836  1.0000
  C   C7928     1.0  0.91088  0.49400  0.14111  1.0000
  C   C7929     1.0  0.84654  0.48794  0.02889  1.0000
  C   C7930     1.0  0.74163  0.56803  0.01811  1.0000
  H   H6323     1.0  0.78265  0.54561  0.00592  1.0000
  H   H6324     1.0  0.78390  0.52242  0.00615  1.0000
  C   C7931     1.0  0.97817  0.55210  0.29747  1.0000
  S   S1051     1.0  0.92620  0.70205  0.38709  1.0000
  C   C7932     1.0  0.95977  0.49331  0.07653  1.0000
  H   H6325     1.0  0.88354  0.53526  0.99943  1.0000
  H   H6326     1.0  0.96546  0.60655  0.33947  1.0000
  C   C7933     1.0  0.90206  0.51880  0.23068  1.0000
  C   C7934     1.0  0.97295  0.52009  0.28876  1.0000
  H   H6327     1.0  0.95030  0.48392  0.29833  1.0000
  C   C7935     1.0  0.95584  0.71794  0.46589  1.0000
  P   P267      1.0  0.98522  0.59063  0.32113  1.0000
  C   C7936     1.0  0.86762  0.51679  0.16896  1.0000
  C   C7937     1.0  0.94247  0.66829  0.47025  1.0000
  C   C7938     1.0  0.80558  0.53330  0.98305  1.0000
  H   H6328     1.0  0.87485  0.57739  0.31090  1.0000
  C   C7939     1.0  0.85037  0.50086  0.98790  1.0000
  C   C7940     1.0  0.94182  0.59239  0.05902  1.0000
  C   C7941     1.0  0.76763  0.53990  0.03666  1.0000
  H   H6329     1.0  0.88966  0.49614  0.26153  1.0000
  H   H6330     1.0  0.89512  0.49566  0.99289  1.0000
  C   C7942     1.0  0.91738  0.68782  0.46814  1.0000
  H   H6331     1.0  0.79448  0.56891  0.02467  1.0000
  C   C7943     1.0  0.96787  0.55916  0.32864  1.0000
  C   C7944     1.0  0.97009  0.57201  0.32495  1.0000
  C   C7945     1.0  0.97143  0.54575  0.24039  1.0000
  C   C7946     1.0  0.96026  0.55595  0.23917  1.0000
  C   C7947     1.0  0.96044  0.56876  0.23952  1.0000
  C   C7948     1.0  0.92385  0.49494  0.13466  1.0000
  C   C7949     1.0  0.98021  0.52456  0.04845  1.0000
  H   H6332     1.0  0.94233  0.64787  0.48061  1.0000
  H   H6333     1.0  0.97077  0.50230  0.30328  1.0000
  C   C7950     1.0  0.96506  0.61744  0.43957  1.0000
  H   H6334     1.0  0.96814  0.62735  0.41883  1.0000
  H   H6335     1.0  0.95903  0.65581  0.33690  1.0000
  H   H6336     1.0  0.89951  0.53767  0.29700  1.0000
  C   C7951     1.0  0.89758  0.59995  0.34769  1.0000
  C   C7952     1.0  0.87001  0.53858  0.26585  1.0000
  C   C7953     1.0  0.98478  0.57338  0.00015  1.0000
  C   C7954     1.0  0.94875  0.59790  0.04649  1.0000
  H   H6337     1.0  0.87333  0.48746  0.04943  1.0000
  C   C7955     1.0  0.98223  0.56851  0.01396  1.0000
  C   C7956     1.0  0.89365  0.56610  0.33407  1.0000
  H   H6338     1.0  0.91694  0.61928  0.32420  1.0000
  H   H6339     1.0  0.96841  0.48805  0.15144  1.0000
  H   H6340     1.0  0.98228  0.56862  0.99379  1.0000
  H   H6341     1.0  0.97133  0.53594  0.23969  1.0000
  H   H6342     1.0  0.95156  0.55400  0.23762  1.0000
  H   H6343     1.0  0.95182  0.57669  0.23837  1.0000
  C   C7957     1.0  0.94104  0.48383  0.30555  1.0000
  H   H6344     1.0  0.84668  0.55937  0.28397  1.0000
  C   C7958     1.0  0.91712  0.48349  0.32410  1.0000
  C   C7959     1.0  0.80947  0.53020  0.07022  1.0000
  H   H6345     1.0  0.93225  0.59779  0.06340  1.0000
  H   H6346     1.0  0.92252  0.49208  0.24436  1.0000
  C   C7960     1.0  0.81406  0.55655  0.10128  1.0000
  C   C7961     1.0  0.81956  0.56759  0.09855  1.0000
  C   C7962     1.0  0.83238  0.56590  0.10001  1.0000
  C   C7963     1.0  0.83972  0.55318  0.10422  1.0000
  C   C7964     1.0  0.83421  0.54205  0.10722  1.0000
  C   C7965     1.0  0.82139  0.54381  0.10549  1.0000
  P   P268      1.0  0.84438  0.52559  0.11071  1.0000
  C   C7966     1.0  0.85236  0.52196  0.09449  1.0000
  C   C7967     1.0  0.85566  0.52475  0.12072  1.0000
  C   C7968     1.0  0.86720  0.51475  0.12065  1.0000
  C   C7969     1.0  0.87648  0.51468  0.12748  1.0000
  C   C7970     1.0  0.87409  0.52424  0.13487  1.0000
  C   C7971     1.0  0.86226  0.53375  0.13569  1.0000
  C   C7972     1.0  0.85298  0.53393  0.12877  1.0000
  C   C7973     1.0  0.86376  0.51909  0.06816  1.0000
  C   C7974     1.0  0.87133  0.52084  0.07590  1.0000
  C   C7975     1.0  0.86564  0.52241  0.08893  1.0000
  H   H6347     1.0  0.80426  0.55787  0.09977  1.0000
  H   H6348     1.0  0.81400  0.57744  0.09499  1.0000
  H   H6349     1.0  0.83683  0.57440  0.09748  1.0000
  H   H6350     1.0  0.84985  0.55205  0.10470  1.0000
  H   H6351     1.0  0.86935  0.50736  0.11480  1.0000
  H   H6352     1.0  0.88581  0.50759  0.12649  1.0000
  H   H6353     1.0  0.88151  0.52444  0.13978  1.0000
  H   H6354     1.0  0.86057  0.54128  0.14129  1.0000
  H   H6355     1.0  0.84393  0.54145  0.12947  1.0000
  C   C7976     1.0  0.97340  0.66322  0.43809  1.0000
  H   H6356     1.0  0.88150  0.52154  0.07170  1.0000
  H   H6357     1.0  0.87158  0.52451  0.09434  1.0000
  C   C7977     1.0  0.87243  0.50945  0.27049  1.0000
  C   C7978     1.0  0.95890  0.59428  0.14532  1.0000
  C   C7979     1.0  0.95084  0.58849  0.15689  1.0000
  C   C7980     1.0  0.95642  0.57766  0.16584  1.0000
  C   C7981     1.0  0.81652  0.48831  0.06771  1.0000
  C   C7982     1.0  0.95950  0.57277  0.06022  1.0000
  C   C7983     1.0  0.77700  0.48367  0.05733  1.0000
  P   P269      1.0  0.92698  0.67170  0.46552  1.0000
  C   C7984     1.0  0.93458  0.68548  0.38673  1.0000
  C   C7985     1.0  0.97252  0.58916  0.14266  1.0000
  C   C7986     1.0  0.83034  0.49158  0.12567  1.0000
  H   H6358     1.0  0.97217  0.57028  0.11372  1.0000
  C   C7987     1.0  0.92853  0.59721  0.31019  1.0000
  H   H6359     1.0  0.98370  0.48734  0.20863  1.0000
  H   H6360     1.0  0.98570  0.66323  0.41156  1.0000
  C   C7988     1.0  0.95481  0.66855  0.38527  1.0000
  H   H6361     1.0  0.97557  0.58360  0.34994  1.0000
  H   H6362     1.0  0.96076  0.58141  0.46155  1.0000
  S   S1052     1.0  0.95368  0.70429  0.40294  1.0000
  C   C7989     1.0  0.97052  0.62612  0.42836  1.0000
  C   C7990     1.0  0.96834  0.49601  0.26557  1.0000
  H   H6363     1.0  0.89550  0.72159  0.47542  1.0000
  H   H6364     1.0  0.98000  0.48798  0.32612  1.0000
  C   C7991     1.0  0.91466  0.51961  0.23082  1.0000
  H   H6365     1.0  0.95070  0.61820  0.29698  1.0000
  C   C7992     1.0  0.97782  0.54834  0.33232  1.0000
  H   H6366     1.0  0.95456  0.60277  0.13845  1.0000
  H   H6367     1.0  0.94025  0.59236  0.15900  1.0000
  H   H6368     1.0  0.95018  0.57343  0.17497  1.0000
  H   H6369     1.0  0.98018  0.71753  0.40798  1.0000
  C   C7993     1.0  0.89741  0.50565  0.04503  1.0000
  C   C7994     1.0  0.89049  0.51509  0.99682  1.0000
  H   H6370     1.0  0.76342  0.55011  0.03740  1.0000
  C   C7995     1.0  0.91053  0.65405  0.47071  1.0000
  H   H6371     1.0  0.89142  0.49867  0.31219  1.0000
  C   C7996     1.0  0.96556  0.72478  0.45798  1.0000
  C   C7997     1.0  0.98153  0.52705  0.27882  1.0000
  C   C7998     1.0  0.87224  0.53074  0.98835  1.0000
  C   C7999     1.0  0.97146  0.70268  0.35265  1.0000
  C   C8000     1.0  0.94965  0.67824  0.46640  1.0000
  C   C8001     1.0  0.85950  0.48884  0.27478  1.0000
  C   C8002     1.0  0.91763  0.48454  0.24466  1.0000
  H   H6372     1.0  0.96469  0.67738  0.32422  1.0000
  H   H6373     1.0  0.95376  0.68907  0.38432  1.0000
  C   C8003     1.0  0.96679  0.50152  0.34941  1.0000
  C   C8004     1.0  0.76473  0.51845  0.03664  1.0000
  H   H6374     1.0  0.81717  0.53535  0.10703  1.0000
  C   C8005     1.0  0.87195  0.64160  0.30556  1.0000
  C   C8006     1.0  0.86748  0.63171  0.31613  1.0000
  H   H6375     1.0  0.86148  0.53718  0.28695  1.0000
  H   H6376     1.0  0.86506  0.65061  0.30223  1.0000
  H   H6377     1.0  0.85712  0.63308  0.32103  1.0000
  C   C8007     1.0  0.96508  0.56651  0.12230  1.0000
  C   C8008     1.0  0.95425  0.57535  0.12796  1.0000
  C   C8009     1.0  0.94507  0.57056  0.13903  1.0000
  C   C8010     1.0  0.94652  0.55693  0.14426  1.0000
  C   C8011     1.0  0.95711  0.54796  0.13831  1.0000
  C   C8012     1.0  0.96657  0.55283  0.12745  1.0000
  P   P270      1.0  0.95869  0.53042  0.14520  1.0000
  C   C8013     1.0  0.96594  0.52579  0.15965  1.0000
  C   C8014     1.0  0.94242  0.52702  0.14877  1.0000
  C   C8015     1.0  0.93777  0.51799  0.16030  1.0000
  C   C8016     1.0  0.92584  0.51443  0.16190  1.0000
  C   C8017     1.0  0.91839  0.52000  0.15216  1.0000
  C   C8018     1.0  0.92271  0.52931  0.14095  1.0000
  C   C8019     1.0  0.93446  0.53307  0.13942  1.0000
  C   C8020     1.0  0.96818  0.51256  0.16682  1.0000
  C   C8021     1.0  0.97333  0.50907  0.17824  1.0000
  C   C8022     1.0  0.97655  0.51871  0.18244  1.0000
  C   C8023     1.0  0.97489  0.53177  0.17508  1.0000
  C   C8024     1.0  0.96970  0.53531  0.16367  1.0000
  C   C8025     1.0  0.96899  0.52143  0.13262  1.0000
  H   H6378     1.0  0.98418  0.69783  0.46371  1.0000
  H   H6379     1.0  0.98439  0.50633  0.07813  1.0000
  H   H6380     1.0  0.94104  0.70807  0.46620  1.0000
  C   C8026     1.0  0.88720  0.52040  0.28281  1.0000
  C   C8027     1.0  0.96441  0.52168  0.12147  1.0000
  H   H6381     1.0  0.81538  0.49683  0.05946  1.0000
  H   H6382     1.0  0.95298  0.58590  0.12378  1.0000
  H   H6383     1.0  0.93677  0.57741  0.14358  1.0000
  H   H6384     1.0  0.93931  0.55337  0.15289  1.0000
  C   C8028     1.0  0.79497  0.51542  0.07324  1.0000
  H   H6385     1.0  0.94313  0.51372  0.16815  1.0000
  H   H6386     1.0  0.92237  0.50734  0.17068  1.0000
  H   H6387     1.0  0.90914  0.51734  0.15334  1.0000
  H   H6388     1.0  0.91684  0.53379  0.13349  1.0000
  H   H6389     1.0  0.93735  0.54064  0.13080  1.0000
  H   H6390     1.0  0.89387  0.51648  0.18057  1.0000
  H   H6391     1.0  0.81151  0.54970  0.98574  1.0000
  H   H6392     1.0  0.98005  0.51617  0.19157  1.0000
  H   H6393     1.0  0.97724  0.53926  0.17846  1.0000
  H   H6394     1.0  0.96831  0.54556  0.15831  1.0000
  H   H6395     1.0  0.93908  0.64871  0.45378  1.0000
  H   H6396     1.0  0.86571  0.54050  0.98722  1.0000
  C   C8029     1.0  0.86149  0.54321  0.27698  1.0000
  H   H6397     1.0  0.92130  0.62231  0.34456  1.0000
  H   H6398     1.0  0.95483  0.52737  0.11995  1.0000
  C   C8030     1.0  0.78547  0.48698  0.06300  1.0000
  H   H6399     1.0  0.93756  0.62907  0.31566  1.0000
  C   C8031     1.0  0.89170  0.53078  0.28439  1.0000
  C   C8032     1.0  0.91703  0.52164  0.24217  1.0000
  C   C8033     1.0  0.88475  0.49697  0.16602  1.0000
  C   C8034     1.0  0.93311  0.51009  0.27215  1.0000
  H   H6400     1.0  0.97936  0.62098  0.46233  1.0000
  C   C8035     1.0  0.97964  0.49958  0.07628  1.0000
  H   H6401     1.0  0.94734  0.59005  0.28069  1.0000
  C   C8036     1.0  0.97081  0.48944  0.35795  1.0000
  H   H6402     1.0  0.90918  0.49281  0.02257  1.0000
  H   H6403     1.0  0.97199  0.69637  0.43059  1.0000
  H   H6404     1.0  0.96696  0.65653  0.43983  1.0000
  C   C8037     1.0  0.97228  0.48641  0.25791  1.0000
  H   H6405     1.0  0.90572  0.57695  0.33759  1.0000
  H   H6406     1.0  0.83990  0.49753  0.02756  1.0000
  C   C8038     1.0  0.79295  0.57109  0.01464  1.0000
  C   C8039     1.0  0.97388  0.50715  0.26130  1.0000
  H   H6407     1.0  0.97190  0.58151  0.24078  1.0000
  H   H6408     1.0  0.98007  0.61436  0.39082  1.0000
  H   H6409     1.0  0.80890  0.50997  0.14718  1.0000
  H   H6410     1.0  0.96483  0.72113  0.42776  1.0000
  C   C8040     1.0  0.86991  0.54674  0.25308  1.0000
  H   H6411     1.0  0.94939  0.59019  0.30307  1.0000
  C   C8041     1.0  0.87293  0.48685  0.05982  1.0000
  C   C8042     1.0  0.83709  0.50163  0.98852  1.0000
  C   C8043     1.0  0.98349  0.57839  0.26290  1.0000
  H   H6412     1.0  0.97302  0.51745  0.33370  1.0000
  C   C8044     1.0  0.93642  0.49275  0.26047  1.0000
  C   C8045     1.0  0.96573  0.60622  0.30761  1.0000
  C   C8046     1.0  0.75084  0.57581  0.01084  1.0000
  H   H6413     1.0  0.97416  0.56444  0.17059  1.0000
  C   C8047     1.0  0.85307  0.55578  0.27534  1.0000
  C   C8048     1.0  0.88977  0.61818  0.31406  1.0000
  H   H6414     1.0  0.85224  0.48698  0.06574  1.0000
  H   H6415     1.0  0.77378  0.56662  0.02116  1.0000
  C   C8049     1.0  0.98184  0.57895  0.45478  1.0000
  C   C8050     1.0  0.97009  0.60283  0.31955  1.0000
  H   H6416     1.0  0.93540  0.51905  0.27281  1.0000
  C   C8051     1.0  0.75857  0.49890  0.06769  1.0000
  H   H6417     1.0  0.89922  0.51721  0.31481  1.0000
  C   C8052     1.0  0.98458  0.58703  0.34801  1.0000
  C   C8053     1.0  0.88499  0.56615  0.32653  1.0000
  H   H6418     1.0  0.97809  0.68733  0.33226  1.0000
  Fe  Fe521     1.0  0.96252  0.72141  0.39045  1.0000
  H   H6419     1.0  0.96531  0.66569  0.38448  1.0000
  C   C8054     1.0  0.91492  0.60039  0.29457  1.0000
  C   C8055     1.0  0.89139  0.50767  0.30445  1.0000
  C   C8056     1.0  0.92210  0.49393  0.10207  1.0000
  H   H6420     1.0  0.96589  0.68449  0.46873  1.0000
  H   H6421     1.0  0.80365  0.55020  0.05941  1.0000
  C   C8057     1.0  0.76875  0.49645  0.12401  1.0000
  P   P271      1.0  0.88101  0.52240  0.26818  1.0000
  Fe  Fe522     1.0  0.94392  0.71763  0.41715  1.0000
  C   C8058     1.0  0.84481  0.52011  0.08668  1.0000
  C   C8059     1.0  0.85050  0.51871  0.07356  1.0000
  C   C8060     1.0  0.75927  0.53163  0.03756  1.0000
  C   C8061     1.0  0.75667  0.53678  0.99318  1.0000
  H   H6422     1.0  0.94508  0.62290  0.33693  1.0000
  H   H6423     1.0  0.78969  0.51370  0.10030  1.0000
  H   H6424     1.0  0.89803  0.51269  0.00247  1.0000
  C   C8062     1.0  0.97618  0.50816  0.34038  1.0000
  C   C8063     1.0  0.93419  0.66256  0.38780  1.0000
  C   C8064     1.0  0.96728  0.71647  0.35056  1.0000
  H   H6425     1.0  0.97566  0.58448  0.41955  1.0000
  C   C8065     1.0  0.98462  0.52918  0.21293  1.0000
  C   C8066     1.0  0.88422  0.48668  0.06392  1.0000
  C   C8067     1.0  0.93866  0.59344  0.28792  1.0000
  H   H6426     1.0  0.76690  0.48590  0.02169  1.0000
  C   C8068     1.0  0.94824  0.68176  0.38537  1.0000
  H   H6427     1.0  0.97908  0.63861  0.46995  1.0000
  H   H6428     1.0  0.95795  0.68059  0.43430  1.0000
  H   H6429     1.0  0.75679  0.59407  0.00856  1.0000
  S   S1053     1.0  0.95720  0.60889  0.40832  1.0000
  H   H6430     1.0  0.91499  0.48745  0.29055  1.0000
  C   C8069     1.0  0.83461  0.51368  0.12041  1.0000
  C   C8070     1.0  0.96091  0.67641  0.47117  1.0000
  H   H6431     1.0  0.94162  0.48822  0.25212  1.0000
  C   C8071     1.0  0.98543  0.57463  0.02226  1.0000
  H   H6432     1.0  0.81212  0.57550  0.00529  1.0000
  H   H6433     1.0  0.90875  0.59596  0.47887  1.0000
  C   C8072     1.0  0.97772  0.54091  0.08341  1.0000
  H   H6434     1.0  0.92527  0.59625  0.27531  1.0000
  H   H6435     1.0  0.90462  0.62722  0.29888  1.0000
  H   H6436     1.0  0.90201  0.49511  0.17342  1.0000
  C   C8073     1.0  0.89426  0.62828  0.30366  1.0000
  C   C8074     1.0  0.89192  0.51967  0.24202  1.0000
  H   H6437     1.0  0.87280  0.61256  0.32875  1.0000
  C   C8075     1.0  0.82426  0.51684  0.13111  1.0000
  H   H6438     1.0  0.82196  0.52652  0.13345  1.0000
  H   H6439     1.0  0.87192  0.53031  0.17787  1.0000
  C   C8076     1.0  0.76756  0.48809  0.11671  1.0000
  H   H6440     1.0  0.95838  0.61199  0.43877  1.0000
  C   C8077     1.0  0.92136  0.49228  0.28198  1.0000
  C   C8078     1.0  0.96894  0.53454  0.04687  1.0000
  C   C8079     1.0  0.96818  0.61582  0.45182  1.0000
  C   C8080     1.0  0.98001  0.67156  0.34982  1.0000
  Fe  Fe523     1.0  0.96795  0.59559  0.39421  1.0000
  C   C8081     1.0  0.87637  0.62008  0.32044  1.0000
  C   C8082     1.0  0.92622  0.59689  0.28492  1.0000
  H   H6441     1.0  0.90534  0.60240  0.29225  1.0000
  C   C8083     1.0  0.96256  0.60901  0.33005  1.0000
  H   H6442     1.0  0.91699  0.67871  0.38886  1.0000
  C   C8084     1.0  0.77834  0.51343  0.03533  1.0000
  H   H6443     1.0  0.95115  0.48466  0.19948  1.0000
  C   C8085     1.0  0.96590  0.50224  0.07843  1.0000
  H   H6444     1.0  0.96888  0.51527  0.10306  1.0000
  C   C8086     1.0  0.89850  0.57740  0.33215  1.0000
  C   C8087     1.0  0.96943  0.54785  0.04464  1.0000
  S   S1054     1.0  0.98383  0.71718  0.38010  1.0000
  H   H6445     1.0  0.77762  0.51216  0.12368  1.0000
  C   C8088     1.0  0.78745  0.48639  0.01794  1.0000
  C   C8089     1.0  0.88700  0.50885  0.29297  1.0000
  C   C8090     1.0  0.94664  0.62179  0.31670  1.0000
  H   H6446     1.0  0.94341  0.49209  0.22496  1.0000
  C   C8091     1.0  0.77438  0.48890  0.10342  1.0000
  C   C8092     1.0  0.88534  0.63990  0.29936  1.0000
  H   H6447     1.0  0.97127  0.60139  0.29947  1.0000
  H   H6448     1.0  0.88882  0.64762  0.29125  1.0000
  H   H6449     1.0  0.95698  0.58476  0.43886  1.0000
  H   H6450     1.0  0.89550  0.59679  0.36891  1.0000
  H   H6451     1.0  0.92454  0.73219  0.46794  1.0000
  C   C8093     1.0  0.90155  0.71217  0.47342  1.0000
  S   S1055     1.0  0.94220  0.70893  0.43896  1.0000
  C   C8094     1.0  0.91263  0.48554  0.23363  1.0000
  H   H6452     1.0  0.96411  0.69666  0.35596  1.0000
  H   H6453     1.0  0.88336  0.50080  0.29216  1.0000
  H   H6454     1.0  0.96614  0.59526  0.03104  1.0000
  C   C8095     1.0  0.96915  0.72550  0.44427  1.0000
  C   C8096     1.0  0.92483  0.48620  0.05458  1.0000
  H   H6455     1.0  0.85352  0.51986  0.28016  1.0000
  C   C8097     1.0  0.74979  0.58791  0.01407  1.0000
  H   H6456     1.0  0.96354  0.56306  0.06565  1.0000
  C   C8098     1.0  0.89580  0.51810  0.30595  1.0000
  C   C8099     1.0  0.98307  0.68337  0.38135  1.0000
  C   C8100     1.0  0.96102  0.59082  0.04077  1.0000
  H   H6457     1.0  0.96958  0.49242  0.40520  1.0000
  C   C8101     1.0  0.89600  0.52962  0.29590  1.0000
  C   C8102     1.0  0.96819  0.67688  0.43502  1.0000
  H   H6458     1.0  0.95970  0.53198  0.04768  1.0000
  H   H6459     1.0  0.92665  0.52283  0.24204  1.0000
  S   S1056     1.0  0.92602  0.72617  0.40845  1.0000
  H   H6460     1.0  0.98594  0.51460  0.14168  1.0000
  C   C8103     1.0  0.98393  0.50831  0.24982  1.0000
  C   C8104     1.0  0.98229  0.48755  0.24629  1.0000
  H   H6461     1.0  0.86805  0.51843  0.05787  1.0000
  Fe  Fe524     1.0  0.93678  0.71420  0.39297  1.0000
  C   C8105     1.0  0.80622  0.48677  0.07902  1.0000
  C   C8106     1.0  0.97685  0.62280  0.45286  1.0000
  H   H6462     1.0  0.98394  0.58407  0.36890  1.0000
  C   C8107     1.0  0.97184  0.57142  0.24095  1.0000
  H   H6463     1.0  0.91405  0.49352  0.22500  1.0000
  C   C8108     1.0  0.97691  0.65926  0.35676  1.0000
  C   C8109     1.0  0.94899  0.71275  0.46002  1.0000
  C   C8110     1.0  0.96249  0.48469  0.22988  1.0000
  S   S1057     1.0  0.93408  0.62433  0.47304  1.0000
  H   H6464     1.0  0.78607  0.49668  0.01264  1.0000
  H   H6465     1.0  0.98317  0.63989  0.42061  1.0000
  C   C8111     1.0  0.81990  0.49486  0.13618  1.0000
  C   C8112     1.0  0.76698  0.50214  0.07353  1.0000
  C   C8113     1.0  0.97745  0.58309  0.42934  1.0000
  C   C8114     1.0  0.78900  0.57672  0.98876  1.0000
  C   C8115     1.0  0.86093  0.48659  0.06907  1.0000
  C   C8116     1.0  0.97775  0.50745  0.29586  1.0000
  C   C8117     1.0  0.98235  0.67948  0.39508  1.0000
  C   C8118     1.0  0.97573  0.67792  0.33790  1.0000
  H   H6466     1.0  0.87061  0.48641  0.09676  1.0000
  H   H6467     1.0  0.92577  0.50365  0.12704  1.0000
  C   C8119     1.0  0.88777  0.51310  0.17630  1.0000
  H   H6468     1.0  0.85809  0.52297  0.16761  1.0000
  C   C8120     1.0  0.97609  0.68582  0.43302  1.0000
  H   H6469     1.0  0.76292  0.50933  0.07977  1.0000
  C   C8121     1.0  0.90283  0.64519  0.47910  1.0000
  C   C8122     1.0  0.87540  0.52094  0.17474  1.0000
  H   H6470     1.0  0.97612  0.53840  0.33502  1.0000
  H   H6471     1.0  0.98419  0.51880  0.21598  1.0000
  H   H6472     1.0  0.97777  0.53696  0.27347  1.0000
  H   H6473     1.0  0.95683  0.72098  0.35210  1.0000
  H   H6474     1.0  0.96685  0.64427  0.35768  1.0000
  C   C8123     1.0  0.98231  0.57411  0.32500  1.0000
  C   C8124     1.0  0.98220  0.63175  0.44171  1.0000
  H   H6475     1.0  0.98267  0.57476  0.06518  1.0000
  C   C8125     1.0  0.87886  0.50842  0.98424  1.0000
  C   C8126     1.0  0.88324  0.48668  0.07727  1.0000
  H   H6476     1.0  0.94436  0.48464  0.05699  1.0000
  H   H6477     1.0  0.97578  0.49083  0.38171  1.0000
  C   C8127     1.0  0.87056  0.52111  0.98291  1.0000
  C   C8128     1.0  0.76356  0.48955  0.05970  1.0000
  C   C8129     1.0  0.98286  0.54835  0.24185  1.0000
  P   P272      1.0  0.89939  0.48803  0.05178  1.0000
  H   H6478     1.0  0.83921  0.53184  0.98101  1.0000
  C   C8130     1.0  0.96533  0.66437  0.47947  1.0000
  H   H6479     1.0  0.94437  0.48542  0.13299  1.0000
  H   H6480     1.0  0.98334  0.57702  0.46479  1.0000
  H   H6481     1.0  0.89816  0.64018  0.47486  1.0000
  H   H6482     1.0  0.97986  0.65402  0.36599  1.0000
  C   C8131     1.0  0.74351  0.50963  0.98474  1.0000
  C   C8132     1.0  0.90672  0.48317  0.02605  1.0000
  H   H6483     1.0  0.90791  0.48331  0.33139  1.0000
  H   H6484     1.0  0.80830  0.48395  0.01605  1.0000
  C   C8133     1.0  0.95095  0.48337  0.22744  1.0000
  H   H6485     1.0  0.89723  0.48344  0.28174  1.0000
  C   C8134     1.0  0.93286  0.48348  0.10458  1.0000
  H   H6486     1.0  0.81421  0.48760  0.14229  1.0000
  C   C8135     1.0  0.76028  0.58010  0.98146  1.0000
  Fe  Fe525     1.0  0.85500  0.49428  0.92727  1.0000
  S   S1058     1.0  0.86891  0.50487  0.92996  1.0000
  H   H6487     1.0  0.90575  0.61048  0.49431  1.0000
  Fe  Fe526     1.0  0.84974  0.51350  0.90203  1.0000
  S   S1059     1.0  0.86336  0.52572  0.90234  1.0000
  S   S1060     1.0  0.83982  0.51866  0.88486  1.0000
  Fe  Fe527     1.0  0.87727  0.50643  0.90799  1.0000
  S   S1061     1.0  0.89924  0.50035  0.89957  1.0000
  Fe  Fe528     1.0  0.85392  0.52332  0.92424  1.0000
  S   S1062     1.0  0.84798  0.54245  0.93147  1.0000
  S   S1063     1.0  0.86448  0.49436  0.90582  1.0000
  S   S1064     1.0  0.83928  0.51254  0.92332  1.0000
  Fe  Fe529     1.0  0.96612  0.50320  0.82839  1.0000
  S   S1065     1.0  0.96327  0.52256  0.83406  1.0000
  C   C8136     1.0  0.92116  0.53738  0.55400  1.0000
  Fe  Fe530     1.0  0.95125  0.51513  0.80620  1.0000
  S   S1066     1.0  0.94713  0.53557  0.80980  1.0000
  S   S1067     1.0  0.94313  0.50908  0.79201  1.0000
  Fe  Fe531     1.0  0.96825  0.53033  0.81192  1.0000
  C   C8137     1.0  0.90377  0.54023  0.49622  1.0000
  Fe  Fe532     1.0  0.94249  0.52609  0.83164  1.0000
  S   S1068     1.0  0.92396  0.53560  0.84481  1.0000
  S   S1069     1.0  0.97274  0.51066  0.80636  1.0000
  S   S1070     1.0  0.94495  0.50604  0.82795  1.0000
  Fe  Fe533     1.0  0.76539  0.51280  0.90482  1.0000
  S   S1071     1.0  0.77215  0.49237  0.91641  1.0000
  S   S1072     1.0  0.77886  0.52516  0.88972  1.0000
  C   C8138     1.0  0.91701  0.50115  0.82442  1.0000
  H   H6488     1.0  0.83207  0.54806  0.82161  1.0000
  S   S1073     1.0  0.75032  0.50727  0.89780  1.0000
  Fe  Fe534     1.0  0.94296  0.49500  0.58977  1.0000
  S   S1074     1.0  0.94686  0.48941  0.61034  1.0000
  Fe  Fe535     1.0  0.95543  0.51906  0.58112  1.0000
  C   C8139     1.0  0.87285  0.55190  0.83714  1.0000
  C   C8140     1.0  0.81542  0.48454  0.88722  1.0000
  C   C8141     1.0  0.91254  0.59439  0.50977  1.0000
  C   C8142     1.0  0.80539  0.55431  0.96715  1.0000
  Fe  Fe536     1.0  0.94019  0.51123  0.60992  1.0000
  S   S1075     1.0  0.92639  0.51727  0.62845  1.0000
  H   H6489     1.0  0.89572  0.63548  0.49939  1.0000
  S   S1076     1.0  0.93463  0.51660  0.58999  1.0000
  Fe  Fe537     1.0  0.94017  0.59943  0.52019  1.0000
  C   C8143     1.0  0.86943  0.56227  0.82649  1.0000
  S   S1077     1.0  0.92870  0.58794  0.53861  1.0000
  Fe  Fe538     1.0  0.96640  0.59642  0.50091  1.0000
  C   C8144     1.0  0.91941  0.57246  0.50478  1.0000
  C   C8145     1.0  0.84325  0.53584  0.95943  1.0000
  H   H6490     1.0  0.97420  0.55348  0.60554  1.0000
  Fe  Fe539     1.0  0.95418  0.62249  0.51019  1.0000
  C   C8146     1.0  0.96506  0.56864  0.56687  1.0000
  Fe  Fe540     1.0  0.94213  0.50095  0.71106  1.0000
  S   S1078     1.0  0.93365  0.62110  0.51094  1.0000
  Fe  Fe541     1.0  0.97159  0.49824  0.70131  1.0000
  S   S1079     1.0  0.96962  0.52029  0.69583  1.0000
  S   S1080     1.0  0.95825  0.49805  0.72162  1.0000
  H   H6491     1.0  0.79466  0.48909  0.89564  1.0000
  S   S1081     1.0  0.93791  0.52319  0.70662  1.0000
  Fe  Fe542     1.0  0.95260  0.52090  0.68746  1.0000
  S   S1082     1.0  0.95032  0.53401  0.66733  1.0000
  Fe  Fe543     1.0  0.95522  0.52017  0.71561  1.0000
  S   S1083     1.0  0.95652  0.53209  0.72945  1.0000
  C   C8147     1.0  0.74908  0.59051  0.98072  1.0000
  H   H6492     1.0  0.98571  0.50382  0.73780  1.0000
  H   H6493     1.0  0.77840  0.51024  0.96910  1.0000
  Fe  Fe544     1.0  0.94437  0.71383  0.50782  1.0000
  C   C8148     1.0  0.95874  0.55586  0.54380  1.0000
  S   S1084     1.0  0.93257  0.69884  0.50927  1.0000
  C   C8149     1.0  0.83851  0.55265  0.97254  1.0000
  H   H6494     1.0  0.87621  0.53129  0.87099  1.0000
  H   H6495     1.0  0.98267  0.51164  0.62214  1.0000
  H   H6496     1.0  0.98512  0.54399  0.63258  1.0000
  C   C8150     1.0  0.84300  0.49669  0.96663  1.0000
  C   C8151     1.0  0.95306  0.65463  0.51400  1.0000
  C   C8152     1.0  0.94032  0.65906  0.51159  1.0000
  C   C8153     1.0  0.93414  0.67263  0.51013  1.0000
  C   C8154     1.0  0.94067  0.68188  0.51096  1.0000
  C   C8155     1.0  0.95341  0.67743  0.51333  1.0000
  C   C8156     1.0  0.95953  0.66387  0.51492  1.0000
  H   H6497     1.0  0.92063  0.57679  0.52284  1.0000
  H   H6498     1.0  0.92423  0.67598  0.50844  1.0000
  H   H6499     1.0  0.95848  0.68440  0.51417  1.0000
  H   H6500     1.0  0.96931  0.66054  0.51692  1.0000
  H   H6501     1.0  0.82379  0.52756  0.86615  1.0000
  C   C8157     1.0  0.95346  0.54793  0.55585  1.0000
  H   H6502     1.0  0.89029  0.52779  0.93325  1.0000
  S   S1085     1.0  0.93196  0.48598  0.58087  1.0000
  C   C8158     1.0  0.93816  0.57242  0.54508  1.0000
  C   C8159     1.0  0.93278  0.56439  0.55704  1.0000
  C   C8160     1.0  0.94043  0.55217  0.56245  1.0000
  H   H6503     1.0  0.78533  0.48598  0.97571  1.0000
  C   C8161     1.0  0.98559  0.52027  0.61503  1.0000
  H   H6504     1.0  0.92274  0.56770  0.56221  1.0000
  H   H6505     1.0  0.93630  0.54613  0.57178  1.0000
  C   C8162     1.0  0.93334  0.52087  0.63973  1.0000
  C   C8163     1.0  0.94697  0.51941  0.63765  1.0000
  C   C8164     1.0  0.95220  0.52300  0.64643  1.0000
  C   C8165     1.0  0.94388  0.52779  0.65750  1.0000
  C   C8166     1.0  0.93029  0.52885  0.65982  1.0000
  C   C8167     1.0  0.92504  0.52543  0.65095  1.0000
  H   H6506     1.0  0.95346  0.51570  0.62918  1.0000
  H   H6507     1.0  0.96267  0.52227  0.64448  1.0000
  H   H6508     1.0  0.92377  0.53270  0.66825  1.0000
  H   H6509     1.0  0.91449  0.52653  0.65266  1.0000
  H   H6510     1.0  0.86664  0.58278  0.86786  1.0000
  H   H6511     1.0  0.95705  0.57869  0.64260  1.0000
  C   C8168     1.0  0.94747  0.51519  0.77465  1.0000
  C   C8169     1.0  0.94413  0.50955  0.76604  1.0000
  C   C8170     1.0  0.94707  0.51448  0.75217  1.0000
  C   C8171     1.0  0.95308  0.52532  0.74682  1.0000
  C   C8172     1.0  0.95626  0.53104  0.75548  1.0000
  C   C8173     1.0  0.95374  0.52583  0.76931  1.0000
  H   H6512     1.0  0.93921  0.50135  0.77011  1.0000
  H   H6513     1.0  0.94441  0.51008  0.74565  1.0000
  H   H6514     1.0  0.96082  0.53945  0.75150  1.0000
  H   H6515     1.0  0.95634  0.53025  0.77586  1.0000
  C   C8174     1.0  0.84432  0.54567  0.94760  1.0000
  H   H6516     1.0  0.97844  0.71688  0.55756  1.0000
  C   C8175     1.0  0.96596  0.55819  0.50272  1.0000
  C   C8176     1.0  0.90622  0.51035  0.88454  1.0000
  C   C8177     1.0  0.91811  0.50490  0.87656  1.0000
  C   C8178     1.0  0.92372  0.51257  0.86442  1.0000
  C   C8179     1.0  0.91749  0.52579  0.86020  1.0000
  C   C8180     1.0  0.90566  0.53128  0.86823  1.0000
  C   C8181     1.0  0.90006  0.52360  0.88037  1.0000
  C   C8182     1.0  0.97720  0.53279  0.61483  1.0000
  H   H6517     1.0  0.93282  0.50824  0.85828  1.0000
  H   H6518     1.0  0.90082  0.54152  0.86506  1.0000
  H   H6519     1.0  0.89103  0.52796  0.88655  1.0000
  C   C8183     1.0  0.82292  0.51945  0.88705  1.0000
  C   C8184     1.0  0.81480  0.51524  0.89945  1.0000
  C   C8185     1.0  0.80124  0.51634  0.90045  1.0000
  C   C8186     1.0  0.79585  0.52196  0.88910  1.0000
  C   C8187     1.0  0.80407  0.52603  0.87681  1.0000
  C   C8188     1.0  0.81753  0.52456  0.87576  1.0000
  H   H6520     1.0  0.81891  0.51129  0.90823  1.0000
  H   H6521     1.0  0.79489  0.51333  0.91000  1.0000
  H   H6522     1.0  0.79998  0.53035  0.86803  1.0000
  C   C8189     1.0  0.96580  0.57105  0.64411  1.0000
  C   C8190     1.0  0.76807  0.54672  0.95976  1.0000
  H   H6523     1.0  0.86299  0.49920  0.85468  1.0000
  C   C8191     1.0  0.83339  0.49967  0.97783  1.0000
  H   H6524     1.0  0.97190  0.56006  0.50836  1.0000
  H   H6525     1.0  0.90192  0.55724  0.50388  1.0000
  S   S1086     1.0  0.96137  0.63773  0.51572  1.0000
  C   C8192     1.0  0.92526  0.54842  0.52649  1.0000
  H   H6526     1.0  0.91153  0.60073  0.51646  1.0000
  H   H6527     1.0  0.88918  0.53912  0.84567  1.0000
  C   C8193     1.0  0.90926  0.59986  0.49735  1.0000
  C   C8194     1.0  0.89132  0.51747  0.93849  1.0000
  C   C8195     1.0  0.88482  0.51419  0.95183  1.0000
  H   H6528     1.0  0.81122  0.48927  0.91402  1.0000
  C   C8196     1.0  0.86208  0.51985  0.85301  1.0000
  C   C8197     1.0  0.79714  0.51275  0.95568  1.0000
  H   H6529     1.0  0.92820  0.49861  0.68725  1.0000
  Fe  Fe545     1.0  0.75590  0.48733  0.91104  1.0000
  C   C8198     1.0  0.84433  0.54781  0.83448  1.0000
  H   H6530     1.0  0.86360  0.49308  0.95750  1.0000
  H   H6531     1.0  0.98127  0.55805  0.48494  1.0000
  H   H6532     1.0  0.93523  0.65201  0.51093  1.0000
  C   C8199     1.0  0.93508  0.53837  0.53183  1.0000
  H   H6533     1.0  0.91965  0.48771  0.64477  1.0000
  S   S1087     1.0  0.96369  0.53313  0.56257  1.0000
  C   C8200     1.0  0.87331  0.52442  0.86729  1.0000
  C   C8201     1.0  0.85627  0.49581  0.96604  1.0000
  C   C8202     1.0  0.91033  0.51157  0.83085  1.0000
  C   C8203     1.0  0.97122  0.55707  0.48950  1.0000
  H   H6534     1.0  0.84022  0.49491  0.95842  1.0000
  S   S1088     1.0  0.98054  0.54563  0.80152  1.0000
  H   H6535     1.0  0.87656  0.57449  0.80750  1.0000
  C   C8204     1.0  0.97372  0.56178  0.57528  1.0000
  C   C8205     1.0  0.73828  0.50998  0.96049  1.0000
  C   C8206     1.0  0.97621  0.72648  0.55095  1.0000
  H   H6536     1.0  0.90926  0.52173  0.82520  1.0000
  C   C8207     1.0  0.82044  0.55315  0.84012  1.0000
  H   H6537     1.0  0.77687  0.56841  0.97008  1.0000
  H   H6538     1.0  0.79914  0.51867  0.97791  1.0000
  H   H6539     1.0  0.82362  0.48728  0.95025  1.0000
  H   H6540     1.0  0.96553  0.56177  0.62883  1.0000
  Fe  Fe546     1.0  0.94247  0.61459  0.49141  1.0000
  C   C8208     1.0  0.98611  0.52152  0.74304  1.0000
  S   S1089     1.0  0.95570  0.49879  0.69132  1.0000
  C   C8209     1.0  0.90150  0.64250  0.49291  1.0000
  H   H6541     1.0  0.79278  0.49452  0.93301  1.0000
  H   H6542     1.0  0.97604  0.48378  0.74447  1.0000
  P   P273      1.0  0.86032  0.54674  0.85141  1.0000
  H   H6543     1.0  0.96883  0.55267  0.53869  1.0000
  H   H6544     1.0  0.83800  0.57261  0.96104  1.0000
  C   C8210     1.0  0.89310  0.49085  0.95169  1.0000
  C   C8211     1.0  0.91540  0.65770  0.48998  1.0000
  C   C8212     1.0  0.80052  0.54301  0.91067  1.0000
  C   C8213     1.0  0.81322  0.54526  0.90770  1.0000
  C   C8214     1.0  0.81957  0.54333  0.91798  1.0000
  C   C8215     1.0  0.81336  0.53895  0.93123  1.0000
  C   C8216     1.0  0.80055  0.53669  0.93436  1.0000
  C   C8217     1.0  0.79425  0.53864  0.92390  1.0000
  P   P274      1.0  0.92782  0.55529  0.50873  1.0000
  H   H6545     1.0  0.98246  0.52799  0.73449  1.0000
  H   H6546     1.0  0.95518  0.56688  0.56935  1.0000
  C   C8218     1.0  0.88587  0.50084  0.95867  1.0000
  C   C8219     1.0  0.80774  0.54616  0.97931  1.0000
  S   S1090     1.0  0.96254  0.61759  0.49000  1.0000
  S   S1091     1.0  0.92453  0.49182  0.71921  1.0000
  C   C8220     1.0  0.89602  0.55089  0.82653  1.0000
  H   H6547     1.0  0.96321  0.48498  0.81868  1.0000
  C   C8221     1.0  0.86002  0.49821  0.97651  1.0000
  H   H6548     1.0  0.92291  0.49469  0.87967  1.0000
  H   H6549     1.0  0.98370  0.51708  0.53741  1.0000
  C   C8222     1.0  0.80993  0.50614  0.95059  1.0000
  C   C8223     1.0  0.77498  0.53614  0.95354  1.0000
  C   C8224     1.0  0.76800  0.53006  0.94859  1.0000
  C   C8225     1.0  0.81381  0.49235  0.95445  1.0000
  S   S1092     1.0  0.75086  0.51990  0.92226  1.0000
  C   C8226     1.0  0.95113  0.56808  0.53846  1.0000
  H   H6550     1.0  0.97706  0.55288  0.71739  1.0000
  H   H6551     1.0  0.79567  0.54426  0.90267  1.0000
  H   H6552     1.0  0.81824  0.54820  0.89741  1.0000
  H   H6553     1.0  0.82949  0.54491  0.91568  1.0000
  C   C8227     1.0  0.96907  0.57770  0.55522  1.0000
  H   H6554     1.0  0.78457  0.53670  0.92576  1.0000
  H   H6555     1.0  0.90345  0.51003  0.92127  1.0000
  S   S1093     1.0  0.96606  0.71013  0.49916  1.0000
  H   H6556     1.0  0.85339  0.54475  0.82751  1.0000
  C   C8228     1.0  0.91896  0.48807  0.83179  1.0000
  C   C8229     1.0  0.90725  0.49581  0.85201  1.0000
  C   C8230     1.0  0.92835  0.49134  0.68190  1.0000
  S   S1094     1.0  0.94573  0.72251  0.52419  1.0000
  C   C8231     1.0  0.85248  0.55122  0.87726  1.0000
  H   H6557     1.0  0.94877  0.55880  0.51865  1.0000
  H   H6558     1.0  0.81693  0.51164  0.94374  1.0000
  H   H6559     1.0  0.77301  0.52172  0.94391  1.0000
  C   C8232     1.0  0.91098  0.59165  0.48864  1.0000
  C   C8233     1.0  0.93497  0.48307  0.66162  1.0000
  H   H6560     1.0  0.90468  0.48652  0.93280  1.0000
  H   H6561     1.0  0.98492  0.60480  0.50511  1.0000
  H   H6562     1.0  0.85578  0.57450  0.89131  1.0000
  H   H6563     1.0  0.97693  0.52894  0.65494  1.0000
  H   H6564     1.0  0.84300  0.56655  0.93933  1.0000
  S   S1095     1.0  0.76152  0.49278  0.95337  1.0000
  C   C8234     1.0  0.88624  0.54651  0.83723  1.0000
  C   C8235     1.0  0.78830  0.50539  0.96488  1.0000
  C   C8236     1.0  0.92251  0.54887  0.74375  1.0000
  C   C8237     1.0  0.91935  0.54048  0.75618  1.0000
  C   C8238     1.0  0.92251  0.54223  0.76726  1.0000
  C   C8239     1.0  0.92908  0.55219  0.76588  1.0000
  C   C8240     1.0  0.93257  0.56051  0.75334  1.0000
  C   C8241     1.0  0.92897  0.55892  0.74235  1.0000
  P   P275      1.0  0.94159  0.57312  0.75121  1.0000
  C   C8242     1.0  0.93341  0.58842  0.74183  1.0000
  C   C8243     1.0  0.94161  0.57533  0.76733  1.0000
  C   C8244     1.0  0.93378  0.58662  0.77205  1.0000
  C   C8245     1.0  0.93410  0.58824  0.78447  1.0000
  C   C8246     1.0  0.94225  0.57865  0.79222  1.0000
  C   C8247     1.0  0.95004  0.56742  0.78759  1.0000
  C   C8248     1.0  0.94968  0.56570  0.77524  1.0000
  C   C8249     1.0  0.94070  0.59744  0.73283  1.0000
  C   C8250     1.0  0.93429  0.60926  0.72558  1.0000
  C   C8251     1.0  0.92058  0.61217  0.72730  1.0000
  C   C8252     1.0  0.91325  0.60329  0.73632  1.0000
  C   C8253     1.0  0.91963  0.59147  0.74359  1.0000
  C   C8254     1.0  0.95852  0.56872  0.74223  1.0000
  C   C8255     1.0  0.96169  0.56192  0.73193  1.0000
  C   C8256     1.0  0.98475  0.56216  0.72813  1.0000
  H   H6565     1.0  0.97033  0.55469  0.58407  1.0000
  H   H6566     1.0  0.97969  0.58337  0.77526  1.0000
  C   C8257     1.0  0.98169  0.56927  0.73810  1.0000
  H   H6567     1.0  0.92036  0.54728  0.73509  1.0000
  H   H6568     1.0  0.91479  0.53238  0.75714  1.0000
  H   H6569     1.0  0.92040  0.53545  0.77682  1.0000
  H   H6570     1.0  0.93170  0.55299  0.77459  1.0000
  H   H6571     1.0  0.93139  0.56524  0.73259  1.0000
  H   H6572     1.0  0.92743  0.59419  0.76622  1.0000
  H   H6573     1.0  0.92804  0.59694  0.78810  1.0000
  H   H6574     1.0  0.94252  0.57986  0.80186  1.0000
  C   C8258     1.0  0.96345  0.73169  0.54877  1.0000
  H   H6575     1.0  0.95568  0.55682  0.77189  1.0000
  H   H6576     1.0  0.95132  0.59537  0.73134  1.0000
  H   H6577     1.0  0.93997  0.61614  0.71858  1.0000
  H   H6578     1.0  0.91563  0.62130  0.72163  1.0000
  H   H6579     1.0  0.90262  0.60554  0.73763  1.0000
  H   H6580     1.0  0.91380  0.58470  0.75055  1.0000
  H   H6581     1.0  0.95420  0.55899  0.72927  1.0000
  C   C8259     1.0  0.89950  0.49418  0.93830  1.0000
  H   H6582     1.0  0.97075  0.50741  0.66373  1.0000
  C   C8260     1.0  0.83941  0.56234  0.96071  1.0000
  H   H6583     1.0  0.91315  0.49634  0.62336  1.0000
  C   C8261     1.0  0.86261  0.57401  0.87046  1.0000
  H   H6584     1.0  0.90203  0.55059  0.55536  1.0000
  H   H6585     1.0  0.80760  0.56408  0.96407  1.0000
  H   H6586     1.0  0.85608  0.52306  0.84569  1.0000
  C   C8262     1.0  0.95285  0.55742  0.50857  1.0000
  C   C8263     1.0  0.75445  0.53479  0.94953  1.0000
  H   H6587     1.0  0.92013  0.66256  0.49432  1.0000
  C   C8264     1.0  0.74763  0.54526  0.95580  1.0000
  H   H6588     1.0  0.77314  0.55131  0.96392  1.0000
  H   H6589     1.0  0.90061  0.51693  0.84968  1.0000
  H   H6590     1.0  0.90671  0.64676  0.50904  1.0000
  H   H6591     1.0  0.96837  0.57792  0.66007  1.0000
  H   H6592     1.0  0.81872  0.53714  0.93896  1.0000
  S   S1096     1.0  0.97680  0.48368  0.83870  1.0000
  C   C8265     1.0  0.84024  0.53936  0.97192  1.0000
  H   H6593     1.0  0.73704  0.54857  0.95686  1.0000
  Fe  Fe547     1.0  0.96715  0.72067  0.51392  1.0000
  H   H6594     1.0  0.74918  0.53025  0.94546  1.0000
  H   H6595     1.0  0.88288  0.50727  0.87996  1.0000
  C   C8266     1.0  0.98163  0.55143  0.63855  1.0000
  C   C8267     1.0  0.82068  0.55493  0.85246  1.0000
  H   H6596     1.0  0.89361  0.54292  0.49523  1.0000
  C   C8268     1.0  0.86368  0.56726  0.86063  1.0000
  C   C8269     1.0  0.89254  0.56083  0.81574  1.0000
  C   C8270     1.0  0.80502  0.48510  0.96365  1.0000
  C   C8271     1.0  0.87925  0.56658  0.81575  1.0000
  C   C8272     1.0  0.94496  0.55530  0.50132  1.0000
  H   H6597     1.0  0.91971  0.53329  0.56465  1.0000
  Fe  Fe548     1.0  0.75641  0.49885  0.93335  1.0000
  H   H6598     1.0  0.87882  0.52215  0.95664  1.0000
  C   C8273     1.0  0.80082  0.52864  0.97475  1.0000
  C   C8274     1.0  0.86557  0.52908  0.85769  1.0000
  C   C8275     1.0  0.91205  0.52857  0.49279  1.0000
  H   H6599     1.0  0.97020  0.49301  0.77131  1.0000
  H   H6600     1.0  0.76112  0.49513  0.97941  1.0000
  H   H6601     1.0  0.96214  0.64477  0.48894  1.0000
  C   C8276     1.0  0.95023  0.55440  0.48795  1.0000
  C   C8277     1.0  0.76530  0.58326  0.95732  1.0000
  S   S1097     1.0  0.98545  0.58233  0.49499  1.0000
  C   C8278     1.0  0.90771  0.64883  0.49835  1.0000
  H   H6602     1.0  0.98584  0.60229  0.59251  1.0000
  H   H6603     1.0  0.90634  0.54669  0.82671  1.0000
  S   S1098     1.0  0.94708  0.59286  0.50071  1.0000
  C   C8279     1.0  0.90548  0.50887  0.84463  1.0000
  C   C8280     1.0  0.74610  0.59728  0.96835  1.0000
  H   H6604     1.0  0.95579  0.72619  0.55375  1.0000
  H   H6605     1.0  0.97791  0.56164  0.77307  1.0000
  H   H6606     1.0  0.95635  0.56000  0.79363  1.0000
  C   C8281     1.0  0.86602  0.50623  0.85807  1.0000
  C   C8282     1.0  0.91766  0.58077  0.51342  1.0000
  C   C8283     1.0  0.96338  0.55516  0.48211  1.0000
  H   H6607     1.0  0.84675  0.55436  0.89732  1.0000
  S   S1099     1.0  0.96337  0.49780  0.57957  1.0000
  H   H6608     1.0  0.84861  0.54234  0.88008  1.0000
  H   H6609     1.0  0.96225  0.58301  0.54878  1.0000
  C   C8284     1.0  0.83227  0.54960  0.83112  1.0000
  C   C8285     1.0  0.93487  0.49239  0.66853  1.0000
  C   C8286     1.0  0.91320  0.55257  0.53503  1.0000
  C   C8287     1.0  0.95871  0.65409  0.48257  1.0000
  H   H6610     1.0  0.93958  0.48800  0.90040  1.0000
  C   C8288     1.0  0.75445  0.55129  0.96086  1.0000
  H   H6611     1.0  0.90018  0.56420  0.80749  1.0000
  H   H6612     1.0  0.94434  0.53473  0.52546  1.0000
  H   H6613     1.0  0.96775  0.53395  0.62181  1.0000
  H   H6614     1.0  0.86854  0.57102  0.85051  1.0000
  C   C8289     1.0  0.85648  0.56938  0.88366  1.0000
  C   C8290     1.0  0.85136  0.55803  0.88704  1.0000
  C   C8291     1.0  0.83272  0.55315  0.85586  1.0000
  H   H6615     1.0  0.90536  0.56007  0.53115  1.0000
  H   H6616     1.0  0.81652  0.49457  0.88588  1.0000
  H   H6617     1.0  0.84465  0.52562  0.95895  1.0000
  H   H6618     1.0  0.95536  0.57414  0.52921  1.0000
  Fe  Fe549     1.0  0.96645  0.49447  0.60015  1.0000
  C   C8292     1.0  0.92990  0.53314  0.49905  1.0000
  S   S1100     1.0  0.95992  0.60134  0.52103  1.0000
  C   C8293     1.0  0.97216  0.57058  0.65399  1.0000
  H   H6619     1.0  0.94080  0.52551  0.54971  1.0000
  C   C8294     1.0  0.98081  0.54385  0.60544  1.0000
  C   C8295     1.0  0.87349  0.50171  0.86781  1.0000
  C   C8296     1.0  0.84468  0.54965  0.84686  1.0000
  C   C8297     1.0  0.97058  0.56152  0.63634  1.0000
  H   H6620     1.0  0.92107  0.50325  0.81377  1.0000
  H   H6621     1.0  0.74913  0.55940  0.96573  1.0000
  C   C8298     1.0  0.89873  0.50748  0.93174  1.0000
  C   C8299     1.0  0.84226  0.55889  0.94838  1.0000
  C   C8300     1.0  0.74978  0.50182  0.96426  1.0000
  C   C8301     1.0  0.93307  0.53298  0.54554  1.0000
  C   C8302     1.0  0.96863  0.57260  0.74509  1.0000
  H   H6622     1.0  0.79889  0.55614  0.94941  1.0000
  H   H6623     1.0  0.85922  0.56714  0.82652  1.0000
  S   S1101     1.0  0.96018  0.51592  0.60107  1.0000
  C   C8303     1.0  0.85867  0.55575  0.86397  1.0000
  H   H6624     1.0  0.98522  0.50641  0.58589  1.0000
  C   C8304     1.0  0.91122  0.54714  0.54875  1.0000
  C   C8305     1.0  0.92172  0.54502  0.50221  1.0000
  P   P276      1.0  0.79267  0.53063  0.95151  1.0000
  C   C8306     1.0  0.92509  0.52500  0.49428  1.0000
  C   C8307     1.0  0.87718  0.51080  0.87235  1.0000
  H   H6625     1.0  0.83258  0.55424  0.86562  1.0000
  H   H6626     1.0  0.81151  0.55735  0.85958  1.0000
  H   H6627     1.0  0.81108  0.55433  0.83761  1.0000
  H   H6628     1.0  0.97373  0.66301  0.48371  1.0000
  C   C8308     1.0  0.75420  0.59366  0.95666  1.0000
  H   H6629     1.0  0.93991  0.50041  0.66354  1.0000
  H   H6630     1.0  0.93145  0.51586  0.49182  1.0000
  C   C8309     1.0  0.97475  0.55850  0.72505  1.0000
  C   C8310     1.0  0.79834  0.53680  0.96253  1.0000
  C   C8311     1.0  0.91626  0.57804  0.49223  1.0000
  C   C8312     1.0  0.98084  0.50803  0.66254  1.0000
  H   H6631     1.0  0.93995  0.53014  0.50040  1.0000
  H   H6632     1.0  0.94016  0.48404  0.65126  1.0000
  H   H6633     1.0  0.96646  0.57826  0.75265  1.0000
  C   C8313     1.0  0.90854  0.54838  0.50102  1.0000
  H   H6634     1.0  0.87630  0.49119  0.87197  1.0000
  P   P277      1.0  0.87721  0.49668  0.97590  1.0000
  H   H6635     1.0  0.90354  0.49410  0.86267  1.0000
  H   H6636     1.0  0.91817  0.57198  0.48506  1.0000
  C   C8314     1.0  0.76830  0.57650  0.96967  1.0000
  C   C8315     1.0  0.98186  0.57981  0.55185  1.0000
  S   S1102     1.0  0.98489  0.71412  0.52283  1.0000
  H   H6637     1.0  0.77154  0.58038  0.94827  1.0000
  H   H6638     1.0  0.75183  0.59887  0.94709  1.0000
  C   C8316     1.0  0.80060  0.54971  0.95883  1.0000
  Fe  Fe550     1.0  0.96179  0.73052  0.48658  1.0000
  H   H6639     1.0  0.90831  0.52225  0.48912  1.0000
  S   S1103     1.0  0.74056  0.49215  0.92904  1.0000
  C   C8317     1.0  0.91630  0.48570  0.62684  1.0000
  C   C8318     1.0  0.79225  0.49161  0.96881  1.0000
  H   H6640     1.0  0.92711  0.68830  0.48317  1.0000
  H   H6641     1.0  0.98575  0.63697  0.52063  1.0000
  H   H6642     1.0  0.94414  0.55340  0.48198  1.0000
  H   H6643     1.0  0.73743  0.60528  0.96784  1.0000
  C   C8319     1.0  0.75227  0.50145  0.97648  1.0000
  C   C8320     1.0  0.91392  0.48527  0.84564  1.0000
  C   C8321     1.0  0.98318  0.56044  0.65627  1.0000
  C   C8322     1.0  0.98443  0.52027  0.65746  1.0000
  H   H6644     1.0  0.98491  0.58682  0.54275  1.0000
  H   H6645     1.0  0.78776  0.57909  0.97867  1.0000
  H   H6646     1.0  0.91358  0.70969  0.48738  1.0000
  C   C8323     1.0  0.79827  0.48439  0.93312  1.0000
  H   H6647     1.0  0.86291  0.52366  0.97742  1.0000
  Fe  Fe551     1.0  0.73626  0.51261  0.91629  1.0000
  H   H6648     1.0  0.82313  0.50027  0.97828  1.0000
  H   H6649     1.0  0.98591  0.63377  0.49137  1.0000
  Fe  Fe552     1.0  0.84684  0.92281  0.40980  1.0000
  S   S1104     1.0  0.85056  0.93389  0.38849  1.0000
  S   S1105     1.0  0.83266  0.90916  0.41927  1.0000
  Fe  Fe553     1.0  0.86535  0.93492  0.41709  1.0000
  S   S1106     1.0  0.87081  0.94692  0.39645  1.0000
  S   S1107     1.0  0.87333  0.93634  0.43376  1.0000
  Fe  Fe554     1.0  0.87183  0.92837  0.39010  1.0000
  S   S1108     1.0  0.88809  0.92182  0.37332  1.0000
  S   S1109     1.0  0.84365  0.94075  0.41797  1.0000
  S   S1110     1.0  0.86822  0.91594  0.41077  1.0000
  C   C8324     1.0  0.93605  0.77470  0.39283  1.0000
  H   H6650     1.0  0.95475  0.76163  0.38727  1.0000
  H   H6651     1.0  0.92051  0.87195  0.44334  1.0000
  H   H6652     1.0  0.76930  0.98000  0.43444  1.0000
  H   H6653     1.0  0.98126  0.84240  0.40947  1.0000
  H   H6654     1.0  0.90007  0.97438  0.47078  1.0000
  Fe  Fe555     1.0  0.76929  0.92471  0.39533  1.0000
  S   S1111     1.0  0.76688  0.94445  0.39972  1.0000
  S   S1112     1.0  0.78995  0.91445  0.38692  1.0000
  H   H6655     1.0  0.98341  0.83656  0.46581  1.0000
  C   C8325     1.0  0.75841  0.97537  0.46797  1.0000
  H   H6656     1.0  0.88806  0.90600  0.44656  1.0000
  Fe  Fe556     1.0  0.74949  0.95081  0.39037  1.0000
  C   C8326     1.0  0.91278  0.80059  0.42567  1.0000
  Fe  Fe557     1.0  0.75291  0.93724  0.41845  1.0000
  C   C8327     1.0  0.96573  0.80648  0.35389  1.0000
  S   S1113     1.0  0.75294  0.93164  0.38409  1.0000
  S   S1114     1.0  0.75663  0.91679  0.41489  1.0000
  H   H6657     1.0  0.90140  0.83524  0.44086  1.0000
  C   C8328     1.0  0.86195  0.87982  0.46881  1.0000
  C   C8329     1.0  0.94981  0.77131  0.38930  1.0000
  H   H6658     1.0  0.90393  0.75823  0.46712  1.0000
  S   S1115     1.0  0.98078  0.85751  0.38228  1.0000
  C   C8330     1.0  0.91929  0.90613  0.47318  1.0000
  P   P278      1.0  0.79690  0.97283  0.43604  1.0000
  C   C8331     1.0  0.84287  0.96901  0.46638  1.0000
  C   C8332     1.0  0.89610  0.90005  0.44064  1.0000
  Fe  Fe558     1.0  0.73993  0.92543  0.40413  1.0000
  H   H6659     1.0  0.82717  0.92363  0.44229  1.0000
  C   C8333     1.0  0.83186  0.94709  0.45463  1.0000
  H   H6660     1.0  0.98085  0.78265  0.40325  1.0000
  H   H6661     1.0  0.97149  0.80405  0.32755  1.0000
  H   H6662     1.0  0.93669  0.82816  0.36278  1.0000
  C   C8334     1.0  0.98099  0.76196  0.40682  1.0000
  H   H6663     1.0  0.98104  0.79550  0.30699  1.0000
  H   H6664     1.0  0.78094  0.94208  0.42046  1.0000
  C   C8335     1.0  0.89172  0.82017  0.47354  1.0000
  H   H6665     1.0  0.92545  0.87967  0.41903  1.0000
  Fe  Fe559     1.0  0.84923  0.95140  0.39671  1.0000
  P   P279      1.0  0.89984  0.88293  0.46475  1.0000
  H   H6666     1.0  0.93894  0.85311  0.45448  1.0000
  H   H6667     1.0  0.87818  0.88374  0.45255  1.0000
  H   H6668     1.0  0.97808  0.84622  0.44360  1.0000
  C   C8336     1.0  0.78812  0.94809  0.41830  1.0000
  H   H6669     1.0  0.74940  0.97512  0.47552  1.0000
  C   C8337     1.0  0.79375  0.91303  0.45815  1.0000
  C   C8338     1.0  0.89911  0.90448  0.42678  1.0000
  C   C8339     1.0  0.75418  0.90792  0.46301  1.0000
  S   S1116     1.0  0.91899  0.86215  0.37432  1.0000
  C   C8340     1.0  0.90353  0.88814  0.44680  1.0000
  H   H6670     1.0  0.92872  0.77745  0.46369  1.0000
  H   H6671     1.0  0.92268  0.80543  0.46781  1.0000
  C   C8341     1.0  0.75696  0.93325  0.46206  1.0000
  C   C8342     1.0  0.75498  0.93051  0.45083  1.0000
  C   C8343     1.0  0.75363  0.91781  0.45129  1.0000
  H   H6672     1.0  0.87050  0.85056  0.47142  1.0000
  C   C8344     1.0  0.92291  0.74438  0.43541  1.0000
  H   H6673     1.0  0.75806  0.94305  0.46175  1.0000
  C   C8345     1.0  0.95691  0.81837  0.35635  1.0000
  H   H6674     1.0  0.79114  0.97166  0.46495  1.0000
  C   C8346     1.0  0.96590  0.76653  0.46403  1.0000
  C   C8347     1.0  0.85922  0.92270  0.47291  1.0000
  C   C8348     1.0  0.87478  0.88179  0.46325  1.0000
  C   C8349     1.0  0.80210  0.94536  0.36960  1.0000
  C   C8350     1.0  0.86311  0.96049  0.48028  1.0000
  H   H6675     1.0  0.84001  0.94112  0.45906  1.0000
  H   H6676     1.0  0.81364  0.96921  0.37501  1.0000
  C   C8351     1.0  0.91426  0.88092  0.43891  1.0000
  C   C8352     1.0  0.91720  0.88534  0.42505  1.0000
  C   C8353     1.0  0.90920  0.86649  0.47016  1.0000
  H   H6677     1.0  0.92788  0.80836  0.36553  1.0000
  C   C8354     1.0  0.73939  0.97801  0.40158  1.0000
  C   C8355     1.0  0.96008  0.82345  0.46192  1.0000
  C   C8356     1.0  0.90903  0.91518  0.47931  1.0000
  H   H6678     1.0  0.81786  0.93615  0.46832  1.0000
  C   C8357     1.0  0.85107  0.91475  0.47270  1.0000
  C   C8358     1.0  0.93910  0.77438  0.46375  1.0000
  Fe  Fe560     1.0  0.95188  0.82474  0.39378  1.0000
  H   H6679     1.0  0.85548  0.88065  0.46239  1.0000
  C   C8359     1.0  0.89604  0.90495  0.37452  1.0000
  C   C8360     1.0  0.89976  0.89684  0.38623  1.0000
  C   C8361     1.0  0.90725  0.88376  0.38626  1.0000
  C   C8362     1.0  0.91046  0.87866  0.37475  1.0000
  C   C8363     1.0  0.90620  0.88663  0.36333  1.0000
  C   C8364     1.0  0.89931  0.89978  0.36312  1.0000
  H   H6680     1.0  0.89718  0.90079  0.39507  1.0000
  H   H6681     1.0  0.91045  0.87763  0.39514  1.0000
  H   H6682     1.0  0.90852  0.88273  0.35446  1.0000
  H   H6683     1.0  0.89647  0.90598  0.35406  1.0000
  C   C8365     1.0  0.82058  0.91158  0.41024  1.0000
  C   C8366     1.0  0.82412  0.91289  0.39642  1.0000
  C   C8367     1.0  0.81474  0.91345  0.38941  1.0000
  C   C8368     1.0  0.80157  0.91348  0.39604  1.0000
  C   C8369     1.0  0.79793  0.91253  0.40984  1.0000
  C   C8370     1.0  0.80750  0.91125  0.41697  1.0000
  H   H6684     1.0  0.83424  0.91293  0.39123  1.0000
  H   H6685     1.0  0.81769  0.91394  0.37880  1.0000
  H   H6686     1.0  0.78781  0.91251  0.41505  1.0000
  H   H6687     1.0  0.80474  0.91015  0.42767  1.0000
  C   C8371     1.0  0.86547  0.92737  0.44873  1.0000
  C   C8372     1.0  0.86664  0.92880  0.46092  1.0000
  C   C8373     1.0  0.92341  0.80505  0.47776  1.0000
  S   S1117     1.0  0.75377  0.94329  0.43659  1.0000
  C   C8374     1.0  0.85042  0.91287  0.46053  1.0000
  C   C8375     1.0  0.85751  0.91924  0.44855  1.0000
  H   H6688     1.0  0.87296  0.93491  0.46106  1.0000
  C   C8376     1.0  0.94327  0.77384  0.47515  1.0000
  H   H6689     1.0  0.84431  0.90659  0.46037  1.0000
  H   H6690     1.0  0.85661  0.91802  0.43919  1.0000
  C   C8377     1.0  0.83397  0.95710  0.44326  1.0000
  C   C8378     1.0  0.80548  0.90436  0.46096  1.0000
  H   H6691     1.0  0.75296  0.89817  0.46343  1.0000
  C   C8379     1.0  0.94477  0.84328  0.45368  1.0000
  H   H6692     1.0  0.90260  0.85783  0.45794  1.0000
  C   C8380     1.0  0.89196  0.98013  0.45324  1.0000
  C   C8381     1.0  0.90821  0.85596  0.46544  1.0000
  H   H6693     1.0  0.98235  0.78020  0.47577  1.0000
  S   S1118     1.0  0.92656  0.76346  0.39369  1.0000
  C   C8382     1.0  0.90454  0.97701  0.41318  1.0000
  Fe  Fe561     1.0  0.93705  0.74182  0.39562  1.0000
  S   S1119     1.0  0.74639  0.97132  0.37730  1.0000
  C   C8383     1.0  0.94829  0.77056  0.45257  1.0000
  H   H6694     1.0  0.91963  0.74239  0.42765  1.0000
  H   H6695     1.0  0.90052  0.94108  0.43060  1.0000
  C   C8384     1.0  0.88540  0.84409  0.45504  1.0000
  C   C8385     1.0  0.93719  0.79648  0.39463  1.0000
  S   S1120     1.0  0.96084  0.83139  0.40666  1.0000
  C   C8386     1.0  0.81930  0.94450  0.46004  1.0000
  H   H6696     1.0  0.85815  0.96429  0.44939  1.0000
  C   C8387     1.0  0.89870  0.82187  0.46016  1.0000
  C   C8388     1.0  0.94367  0.83732  0.44410  1.0000
  C   C8389     1.0  0.80833  0.95446  0.40496  1.0000
  H   H6697     1.0  0.88291  0.90463  0.47762  1.0000
  H   H6698     1.0  0.80473  0.93487  0.36972  1.0000
  C   C8390     1.0  0.95288  0.83630  0.46269  1.0000
  C   C8391     1.0  0.86597  0.96036  0.46679  1.0000
  H   H6699     1.0  0.93230  0.80614  0.39673  1.0000
  S   S1121     1.0  0.93107  0.83417  0.40245  1.0000
  C   C8392     1.0  0.74085  0.98263  0.38782  1.0000
  H   H6700     1.0  0.81689  0.95341  0.39682  1.0000
  C   C8393     1.0  0.92960  0.75457  0.43240  1.0000
  Fe  Fe562     1.0  0.96220  0.84947  0.39025  1.0000
  H   H6701     1.0  0.98406  0.77758  0.36211  1.0000
  C   C8394     1.0  0.92084  0.78806  0.42900  1.0000
  C   C8395     1.0  0.89388  0.79083  0.46862  1.0000
  H   H6702     1.0  0.79914  0.94983  0.45853  1.0000
  H   H6703     1.0  0.79443  0.89214  0.44742  1.0000
  C   C8396     1.0  0.80708  0.96490  0.37233  1.0000
  C   C8397     1.0  0.93215  0.74902  0.45520  1.0000
  C   C8398     1.0  0.90337  0.89546  0.47064  1.0000
  H   H6704     1.0  0.77709  0.88381  0.44375  1.0000
  C   C8399     1.0  0.75736  0.92343  0.47378  1.0000
  H   H6705     1.0  0.90103  0.97563  0.44717  1.0000
  H   H6706     1.0  0.73983  0.95290  0.34684  1.0000
  H   H6707     1.0  0.84391  0.95843  0.43864  1.0000
  H   H6708     1.0  0.91206  0.90061  0.40825  1.0000
  H   H6709     1.0  0.79976  0.94051  0.40102  1.0000
  H   H6710     1.0  0.96558  0.80803  0.45090  1.0000
  C   C8400     1.0  0.92976  0.78734  0.39540  1.0000
  C   C8401     1.0  0.89915  0.79043  0.47935  1.0000
  C   C8402     1.0  0.81059  0.96292  0.44344  1.0000
  C   C8403     1.0  0.91647  0.89641  0.46870  1.0000
  C   C8404     1.0  0.77985  0.88045  0.45332  1.0000
  H   H6711     1.0  0.98061  0.82314  0.36604  1.0000
  S   S1122     1.0  0.94222  0.86133  0.39816  1.0000
  C   C8405     1.0  0.78994  0.95284  0.36701  1.0000
  H   H6712     1.0  0.94307  0.78752  0.36061  1.0000
  C   C8406     1.0  0.82096  0.87679  0.46529  1.0000
  H   H6713     1.0  0.75191  0.91568  0.44274  1.0000
  C   C8407     1.0  0.81739  0.90855  0.45574  1.0000
  C   C8408     1.0  0.95986  0.81792  0.45162  1.0000
  H   H6714     1.0  0.82303  0.88664  0.44436  1.0000
  C   C8409     1.0  0.95096  0.79311  0.39094  1.0000
  S   S1123     1.0  0.96078  0.80424  0.38959  1.0000
  H   H6715     1.0  0.89335  0.91372  0.42210  1.0000
  H   H6716     1.0  0.73974  0.88176  0.40380  1.0000
  C   C8410     1.0  0.81782  0.92072  0.44682  1.0000
  H   H6717     1.0  0.81471  0.96833  0.41135  1.0000
  C   C8411     1.0  0.84521  0.86006  0.45680  1.0000
  P   P280      1.0  0.94265  0.77049  0.43827  1.0000
  C   C8412     1.0  0.78702  0.95633  0.42679  1.0000
  C   C8413     1.0  0.82339  0.96494  0.43759  1.0000
  C   C8414     1.0  0.95158  0.82481  0.44277  1.0000
  H   H6718     1.0  0.76580  0.86794  0.46193  1.0000
  C   C8415     1.0  0.95693  0.76760  0.42498  1.0000
  C   C8416     1.0  0.96207  0.75483  0.42246  1.0000
  P   P281      1.0  0.98342  0.80546  0.34863  1.0000
  C   C8417     1.0  0.86374  0.97965  0.42276  1.0000
  H   H6719     1.0  0.74287  0.96771  0.40572  1.0000
  C   C8418     1.0  0.96386  0.77763  0.41810  1.0000
  H   H6720     1.0  0.91911  0.79002  0.39807  1.0000
  C   C8419     1.0  0.77672  0.98142  0.39532  1.0000
  C   C8420     1.0  0.83990  0.96913  0.47999  1.0000
  C   C8421     1.0  0.75591  0.91077  0.47430  1.0000
  C   C8422     1.0  0.78688  0.87202  0.47807  1.0000
  C   C8423     1.0  0.93207  0.78661  0.43384  1.0000
  H   H6721     1.0  0.95096  0.82021  0.43528  1.0000
  C   C8424     1.0  0.89311  0.90481  0.47648  1.0000
  C   C8425     1.0  0.91577  0.81177  0.42725  1.0000
  C   C8426     1.0  0.92681  0.81045  0.43222  1.0000
  C   C8427     1.0  0.93497  0.79795  0.43544  1.0000
  C   C8428     1.0  0.96054  0.79549  0.35511  1.0000
  C   C8429     1.0  0.80630  0.92886  0.44322  1.0000
  C   C8430     1.0  0.78958  0.88530  0.45551  1.0000
  H   H6722     1.0  0.80695  0.93792  0.43579  1.0000
  Fe  Fe563     1.0  0.94030  0.84260  0.41361  1.0000
  H   H6723     1.0  0.95697  0.74693  0.42763  1.0000
  H   H6724     1.0  0.93163  0.76017  0.42219  1.0000
  H   H6725     1.0  0.86331  0.97465  0.38418  1.0000
  C   C8431     1.0  0.97947  0.76308  0.34351  1.0000
  H   H6726     1.0  0.96005  0.78764  0.41967  1.0000
  H   H6727     1.0  0.96905  0.76313  0.44456  1.0000
  C   C8432     1.0  0.79419  0.92522  0.44916  1.0000
  H   H6728     1.0  0.78517  0.93163  0.44657  1.0000
  C   C8433     1.0  0.80871  0.95232  0.45444  1.0000
  H   H6729     1.0  0.77908  0.95619  0.43556  1.0000
  C   C8434     1.0  0.82734  0.87870  0.45174  1.0000
  H   H6730     1.0  0.84986  0.97327  0.41633  1.0000
  H   H6731     1.0  0.90973  0.82151  0.42430  1.0000
  H   H6732     1.0  0.92921  0.81916  0.43330  1.0000
  H   H6733     1.0  0.94362  0.79717  0.43906  1.0000
  C   C8435     1.0  0.90965  0.89712  0.41898  1.0000
  C   C8436     1.0  0.94695  0.79620  0.35918  1.0000
  H   H6734     1.0  0.87604  0.95688  0.46182  1.0000
  C   C8437     1.0  0.93583  0.80405  0.47988  1.0000
  C   C8438     1.0  0.89577  0.77926  0.46414  1.0000
  H   H6735     1.0  0.88312  0.85337  0.44797  1.0000
  C   C8439     1.0  0.79879  0.94712  0.40741  1.0000
  C   C8440     1.0  0.89291  0.96184  0.43063  1.0000
  H   H6736     1.0  0.81993  0.94543  0.37473  1.0000
  H   H6737     1.0  0.85458  0.85366  0.45348  1.0000
  H   H6738     1.0  0.82644  0.90217  0.45810  1.0000
  C   C8441     1.0  0.77710  0.86722  0.47586  1.0000
  C   C8442     1.0  0.88296  0.88144  0.47151  1.0000
  H   H6739     1.0  0.95321  0.84071  0.47049  1.0000
  C   C8443     1.0  0.97582  0.77480  0.40899  1.0000
  C   C8444     1.0  0.83953  0.87052  0.44758  1.0000
  S   S1124     1.0  0.93166  0.84500  0.43461  1.0000
  H   H6740     1.0  0.78434  0.91023  0.46255  1.0000
  C   C8445     1.0  0.92251  0.84052  0.47933  1.0000
  H   H6741     1.0  0.91469  0.83505  0.46582  1.0000
  C   C8446     1.0  0.92555  0.73874  0.45814  1.0000
  H   H6742     1.0  0.91883  0.94495  0.41098  1.0000
  H   H6743     1.0  0.84449  0.87233  0.43716  1.0000
  C   C8447     1.0  0.93396  0.75724  0.44236  1.0000
  H   H6744     1.0  0.78178  0.97143  0.39432  1.0000
  C   C8448     1.0  0.92089  0.73645  0.44826  1.0000
  H   H6745     1.0  0.88822  0.79998  0.46378  1.0000
  C   C8449     1.0  0.77351  0.87151  0.46354  1.0000
  H   H6746     1.0  0.82526  0.97230  0.42845  1.0000
  P   P282      1.0  0.80549  0.88777  0.47075  1.0000
  C   C8450     1.0  0.79655  0.96384  0.42428  1.0000
  H   H6747     1.0  0.97802  0.74206  0.41174  1.0000
  C   C8451     1.0  0.97591  0.75736  0.35705  1.0000
  C   C8452     1.0  0.93836  0.80795  0.36196  1.0000
  C   C8453     1.0  0.91208  0.95328  0.41479  1.0000
  C   C8454     1.0  0.91347  0.96623  0.40848  1.0000
  H   H6748     1.0  0.91829  0.77968  0.42750  1.0000
  C   C8455     1.0  0.78202  0.97326  0.46191  1.0000
  C   C8456     1.0  0.78645  0.96642  0.36676  1.0000
  H   H6749     1.0  0.96574  0.75960  0.36247  1.0000
  S   S1125     1.0  0.83640  0.97162  0.39066  1.0000
  C   C8457     1.0  0.90181  0.95110  0.42588  1.0000
  S   S1126     1.0  0.95417  0.73409  0.40554  1.0000
  H   H6750     1.0  0.96780  0.77794  0.38521  1.0000
  C   C8458     1.0  0.95719  0.78056  0.38816  1.0000
  H   H6751     1.0  0.92452  0.88953  0.46388  1.0000
  H   H6752     1.0  0.93615  0.75015  0.46290  1.0000
  H   H6753     1.0  0.90439  0.80163  0.42155  1.0000
  S   S1127     1.0  0.95465  0.84214  0.37675  1.0000
  C   C8459     1.0  0.88140  0.83062  0.47743  1.0000
  C   C8460     1.0  0.89563  0.83382  0.45102  1.0000
  C   C8461     1.0  0.96174  0.76658  0.45281  1.0000
  H   H6754     1.0  0.83514  0.97220  0.46087  1.0000
  C   C8462     1.0  0.85588  0.96459  0.45983  1.0000
  H   H6755     1.0  0.92135  0.96793  0.39979  1.0000
  C   C8463     1.0  0.91486  0.84302  0.47001  1.0000
  H   H6756     1.0  0.88478  0.95995  0.43894  1.0000
  Fe  Fe564     1.0  0.93447  0.85217  0.38640  1.0000
  C   C8464     1.0  0.80712  0.96290  0.41324  1.0000
  H   H6757     1.0  0.87126  0.97087  0.42113  1.0000
  H   H6758     1.0  0.74011  0.88068  0.46231  1.0000
  C   C8465     1.0  0.79514  0.97268  0.36907  1.0000
  H   H6759     1.0  0.78311  0.94804  0.36542  1.0000
  H   H6760     1.0  0.94436  0.80377  0.47168  1.0000
  C   C8466     1.0  0.97407  0.75201  0.41346  1.0000
  C   C8467     1.0  0.81064  0.95135  0.37233  1.0000
  C   C8468     1.0  0.94333  0.81905  0.36048  1.0000
  H   H6761     1.0  0.97322  0.73501  0.34613  1.0000
  C   C8469     1.0  0.83670  0.85054  0.42792  1.0000
  C   C8470     1.0  0.82494  0.86020  0.42892  1.0000
  C   C8471     1.0  0.82456  0.87287  0.42070  1.0000
  C   C8472     1.0  0.83587  0.87582  0.41137  1.0000
  C   C8473     1.0  0.84760  0.86606  0.40996  1.0000
  C   C8474     1.0  0.84805  0.85350  0.41859  1.0000
  P   P283      1.0  0.86243  0.87012  0.39845  1.0000
  C   C8475     1.0  0.85814  0.88495  0.38614  1.0000
  C   C8476     1.0  0.87227  0.87226  0.40851  1.0000
  C   C8477     1.0  0.86692  0.88170  0.41646  1.0000
  C   C8478     1.0  0.87406  0.88305  0.42487  1.0000
  C   C8479     1.0  0.88667  0.87515  0.42523  1.0000
  C   C8480     1.0  0.89204  0.86565  0.41745  1.0000
  C   C8481     1.0  0.88484  0.86410  0.40921  1.0000
  C   C8482     1.0  0.86468  0.89538  0.38284  1.0000
  C   C8483     1.0  0.86163  0.90647  0.37275  1.0000
  C   C8484     1.0  0.85205  0.90726  0.36596  1.0000
  C   C8485     1.0  0.84557  0.89688  0.36915  1.0000
  C   C8486     1.0  0.84869  0.88570  0.37911  1.0000
  C   C8487     1.0  0.87132  0.85791  0.38861  1.0000
  C   C8488     1.0  0.86594  0.84742  0.38867  1.0000
  C   C8489     1.0  0.87303  0.83820  0.38081  1.0000
  C   C8490     1.0  0.88541  0.83951  0.37269  1.0000
  C   C8491     1.0  0.89061  0.85018  0.37225  1.0000
  C   C8492     1.0  0.88351  0.85943  0.38003  1.0000
  H   H6762     1.0  0.83704  0.84079  0.43446  1.0000
  H   H6763     1.0  0.81617  0.85797  0.43621  1.0000
  H   H6764     1.0  0.81557  0.88052  0.42162  1.0000
  H   H6765     1.0  0.83543  0.88582  0.40542  1.0000
  H   H6766     1.0  0.85717  0.84604  0.41810  1.0000
  H   H6767     1.0  0.85725  0.88810  0.41607  1.0000
  H   H6768     1.0  0.86990  0.89049  0.43085  1.0000
  H   H6769     1.0  0.89236  0.87646  0.43142  1.0000
  H   H6770     1.0  0.90193  0.85965  0.41759  1.0000
  H   H6771     1.0  0.88925  0.85660  0.40337  1.0000
  H   H6772     1.0  0.87222  0.89496  0.38788  1.0000
  H   H6773     1.0  0.86674  0.91448  0.37012  1.0000
  H   H6774     1.0  0.84969  0.91594  0.35824  1.0000
  H   H6775     1.0  0.83811  0.89750  0.36391  1.0000
  H   H6776     1.0  0.84368  0.87766  0.38136  1.0000
  H   H6777     1.0  0.85624  0.84642  0.39458  1.0000
  H   H6778     1.0  0.86890  0.83007  0.38093  1.0000
  H   H6779     1.0  0.89093  0.83236  0.36663  1.0000
  H   H6780     1.0  0.90016  0.85134  0.36589  1.0000
  H   H6781     1.0  0.88763  0.86775  0.37941  1.0000
  H   H6782     1.0  0.74176  0.87617  0.44029  1.0000
  C   C8493     1.0  0.79280  0.88152  0.46809  1.0000
  C   C8494     1.0  0.87830  0.84250  0.46824  1.0000
  H   H6783     1.0  0.84307  0.84967  0.47739  1.0000
  H   H6784     1.0  0.74256  0.94650  0.32552  1.0000
  H   H6785     1.0  0.89181  0.77959  0.45578  1.0000
  C   C8495     1.0  0.91676  0.86385  0.47967  1.0000
  C   C8496     1.0  0.98552  0.74887  0.36370  1.0000
  H   H6786     1.0  0.74398  0.89874  0.38304  1.0000
  S   S1128     1.0  0.96858  0.81374  0.47427  1.0000
  C   C8497     1.0  0.90264  0.76720  0.47051  1.0000
  C   C8498     1.0  0.98195  0.79969  0.32521  1.0000
  H   H6787     1.0  0.97205  0.76984  0.33838  1.0000
  H   H6788     1.0  0.76522  0.97465  0.41481  1.0000
  C   C8499     1.0  0.83874  0.85784  0.47024  1.0000
  C   C8500     1.0  0.89411  0.97490  0.42426  1.0000
  H   H6789     1.0  0.90658  0.81404  0.45673  1.0000
  C   C8501     1.0  0.78184  0.97474  0.44850  1.0000
  H   H6790     1.0  0.96035  0.82717  0.35528  1.0000
  C   C8502     1.0  0.77034  0.97331  0.47164  1.0000
  C   C8503     1.0  0.82664  0.86616  0.47449  1.0000
  H   H6791     1.0  0.98372  0.80929  0.39390  1.0000
  C   C8504     1.0  0.89150  0.97946  0.46660  1.0000
  H   H6792     1.0  0.97626  0.76317  0.46419  1.0000
  C   C8505     1.0  0.85151  0.98091  0.42009  1.0000
  H   H6793     1.0  0.74891  0.97992  0.45161  1.0000
  H   H6794     1.0  0.92944  0.90658  0.47196  1.0000
  H   H6795     1.0  0.96693  0.78636  0.35294  1.0000
  H   H6796     1.0  0.98279  0.74466  0.37428  1.0000
  H   H6797     1.0  0.77685  0.97183  0.36500  1.0000
  C   C8506     1.0  0.75811  0.97798  0.45453  1.0000
  C   C8507     1.0  0.76974  0.97797  0.44480  1.0000
  C   C8508     1.0  0.95668  0.77009  0.47521  1.0000
  S   S1129     1.0  0.97256  0.73304  0.46521  1.0000
  C   C8509     1.0  0.98434  0.82806  0.35588  1.0000
  H   H6798     1.0  0.98475  0.84555  0.36159  1.0000
  Fe  Fe565     1.0  0.83623  0.91098  0.53431  1.0000
  S   S1130     1.0  0.85630  0.90964  0.53730  1.0000
  S   S1131     1.0  0.81940  0.91175  0.55216  1.0000
  H   H6799     1.0  0.84606  0.96037  0.55055  1.0000
  C   C8510     1.0  0.86596  0.96609  0.51405  1.0000
  H   H6800     1.0  0.79833  0.97039  0.50703  1.0000
  Fe  Fe566     1.0  0.86313  0.89362  0.52575  1.0000
  S   S1132     1.0  0.87633  0.87401  0.53276  1.0000
  Fe  Fe567     1.0  0.85877  0.92379  0.51746  1.0000
  S   S1133     1.0  0.86913  0.94072  0.51159  1.0000
  S   S1134     1.0  0.84281  0.89376  0.52440  1.0000
  S   S1135     1.0  0.83809  0.92656  0.51532  1.0000
  C   C8511     1.0  0.85163  0.96193  0.54037  1.0000
  H   H6801     1.0  0.84407  0.90553  0.56872  1.0000
  H   H6802     1.0  0.75879  0.97780  0.59260  1.0000
  Fe  Fe568     1.0  0.95652  0.81554  0.52178  1.0000
  S   S1136     1.0  0.95946  0.83456  0.52451  1.0000
  S   S1137     1.0  0.94902  0.79907  0.53778  1.0000
  C   C8512     1.0  0.79071  0.96121  0.54864  1.0000
  H   H6803     1.0  0.86740  0.90701  0.56293  1.0000
  H   H6804     1.0  0.84718  0.87640  0.48693  1.0000
  Fe  Fe569     1.0  0.94950  0.84427  0.50733  1.0000
  H   H6805     1.0  0.90617  0.80236  0.51004  1.0000
  Fe  Fe570     1.0  0.75534  0.91128  0.53155  1.0000
  S   S1138     1.0  0.76484  0.91853  0.51021  1.0000
  S   S1139     1.0  0.76567  0.90180  0.54851  1.0000
  H   H6806     1.0  0.81490  0.96056  0.56362  1.0000
  Fe  Fe571     1.0  0.94303  0.74220  0.50956  1.0000
  H   H6807     1.0  0.91750  0.89256  0.54656  1.0000
  S   S1140     1.0  0.93671  0.86493  0.50393  1.0000
  H   H6808     1.0  0.90508  0.90751  0.56176  1.0000
  C   C8513     1.0  0.88407  0.97146  0.54223  1.0000
  C   C8514     1.0  0.94459  0.78772  0.53163  1.0000
  C   C8515     1.0  0.95166  0.78409  0.51958  1.0000
  C   C8516     1.0  0.89739  0.92742  0.57719  1.0000
  C   C8517     1.0  0.85985  0.91536  0.56581  1.0000
  C   C8518     1.0  0.92932  0.77404  0.53379  1.0000
  C   C8519     1.0  0.93357  0.78245  0.53884  1.0000
  H   H6809     1.0  0.89385  0.78109  0.54261  1.0000
  H   H6810     1.0  0.74704  0.97349  0.54456  1.0000
  H   H6811     1.0  0.78961  0.86847  0.48763  1.0000
  H   H6812     1.0  0.92809  0.78514  0.54818  1.0000
  C   C8520     1.0  0.88978  0.91717  0.55058  1.0000
  H   H6813     1.0  0.78651  0.95203  0.51398  1.0000
  H   H6814     1.0  0.85314  0.94208  0.53830  1.0000
  C   C8521     1.0  0.89315  0.87172  0.52479  1.0000
  C   C8522     1.0  0.89784  0.88115  0.51385  1.0000
  C   C8523     1.0  0.88048  0.91475  0.58807  1.0000
  C   C8524     1.0  0.92003  0.86732  0.51215  1.0000
  C   C8525     1.0  0.91536  0.85785  0.52306  1.0000
  C   C8526     1.0  0.90198  0.86019  0.52948  1.0000
  H   H6815     1.0  0.86986  0.81978  0.52691  1.0000
  H   H6816     1.0  0.87872  0.78661  0.49951  1.0000
  H   H6817     1.0  0.92209  0.84885  0.52667  1.0000
  H   H6818     1.0  0.89845  0.85304  0.53809  1.0000
  C   C8527     1.0  0.80447  0.90960  0.55044  1.0000
  C   C8528     1.0  0.79616  0.90386  0.56182  1.0000
  C   C8529     1.0  0.78437  0.90157  0.56095  1.0000
  C   C8530     1.0  0.78047  0.90543  0.54879  1.0000
  C   C8531     1.0  0.78848  0.91171  0.53740  1.0000
  C   C8532     1.0  0.80064  0.91357  0.53817  1.0000
  H   H6819     1.0  0.79902  0.90085  0.57132  1.0000
  H   H6820     1.0  0.77821  0.89677  0.56978  1.0000
  H   H6821     1.0  0.78547  0.91479  0.52799  1.0000
  H   H6822     1.0  0.80699  0.91812  0.52935  1.0000
  C   C8533     1.0  0.90649  0.83307  0.51298  1.0000
  C   C8534     1.0  0.89574  0.84200  0.50839  1.0000
  C   C8535     1.0  0.88366  0.84465  0.51731  1.0000
  C   C8536     1.0  0.88241  0.83861  0.53085  1.0000
  C   C8537     1.0  0.89341  0.83020  0.53565  1.0000
  C   C8538     1.0  0.90536  0.82721  0.52651  1.0000
  P   P284      1.0  0.89262  0.82341  0.55328  1.0000
  C   C8539     1.0  0.90590  0.82758  0.55742  1.0000
  C   C8540     1.0  0.87678  0.83001  0.56322  1.0000
  C   C8541     1.0  0.87162  0.84377  0.56121  1.0000
  C   C8542     1.0  0.85928  0.84889  0.56859  1.0000
  C   C8543     1.0  0.85198  0.84033  0.57817  1.0000
  C   C8544     1.0  0.85703  0.82663  0.58034  1.0000
  C   C8545     1.0  0.86936  0.82146  0.57290  1.0000
  C   C8546     1.0  0.91886  0.82011  0.55439  1.0000
  C   C8547     1.0  0.92931  0.82364  0.55683  1.0000
  C   C8548     1.0  0.92698  0.83464  0.56231  1.0000
  C   C8549     1.0  0.91414  0.84202  0.56554  1.0000
  C   C8550     1.0  0.90364  0.83849  0.56319  1.0000
  C   C8551     1.0  0.89542  0.80558  0.55626  1.0000
  C   C8552     1.0  0.89316  0.79955  0.54729  1.0000
  C   C8553     1.0  0.96068  0.74380  0.53984  1.0000
  H   H6823     1.0  0.88082  0.90426  0.60836  1.0000
  H   H6824     1.0  0.87535  0.85172  0.51383  1.0000
  H   H6825     1.0  0.87292  0.84090  0.53745  1.0000
  H   H6826     1.0  0.91396  0.82059  0.52980  1.0000
  H   H6827     1.0  0.87706  0.85060  0.55378  1.0000
  H   H6828     1.0  0.85538  0.85953  0.56678  1.0000
  H   H6829     1.0  0.84240  0.84432  0.58387  1.0000
  H   H6830     1.0  0.87298  0.81082  0.57473  1.0000
  H   H6831     1.0  0.92100  0.81157  0.55004  1.0000
  H   H6832     1.0  0.93928  0.81791  0.55432  1.0000
  H   H6833     1.0  0.93514  0.83745  0.56398  1.0000
  H   H6834     1.0  0.91233  0.85060  0.56974  1.0000
  H   H6835     1.0  0.89390  0.84450  0.56572  1.0000
  H   H6836     1.0  0.88984  0.80545  0.53838  1.0000
  H   H6837     1.0  0.80053  0.89103  0.52421  1.0000
  H   H6838     1.0  0.79718  0.93099  0.50653  1.0000
  C   C8554     1.0  0.82263  0.98013  0.50297  1.0000
  C   C8555     1.0  0.83668  0.92495  0.57306  1.0000
  H   H6839     1.0  0.85136  0.81999  0.58777  1.0000
  C   C8556     1.0  0.90853  0.89957  0.54456  1.0000
  C   C8557     1.0  0.83992  0.93646  0.57356  1.0000
  C   C8558     1.0  0.86292  0.95366  0.52028  1.0000
  H   H6840     1.0  0.90169  0.76712  0.56277  1.0000
  H   H6841     1.0  0.85752  0.80181  0.53432  1.0000
  H   H6842     1.0  0.90223  0.93374  0.56850  1.0000
  H   H6843     1.0  0.83221  0.94465  0.57657  1.0000
  C   C8559     1.0  0.89631  0.91510  0.60004  1.0000
  C   C8560     1.0  0.74659  0.94080  0.55667  1.0000
  H   H6844     1.0  0.97488  0.77257  0.53942  1.0000
  C   C8561     1.0  0.85554  0.95164  0.53341  1.0000
  H   H6845     1.0  0.83084  0.94700  0.48370  1.0000
  C   C8562     1.0  0.89985  0.79759  0.56767  1.0000
  H   H6846     1.0  0.91080  0.92670  0.58905  1.0000
  H   H6847     1.0  0.82645  0.92422  0.57547  1.0000
  H   H6848     1.0  0.95307  0.77254  0.50546  1.0000
  C   C8563     1.0  0.80365  0.88902  0.48769  1.0000
  C   C8564     1.0  0.88414  0.80401  0.50109  1.0000
  S   S1141     1.0  0.75580  0.89873  0.48920  1.0000
  S   S1142     1.0  0.94487  0.82563  0.50604  1.0000
  C   C8565     1.0  0.92650  0.80279  0.50336  1.0000
  C   C8566     1.0  0.90231  0.92340  0.58879  1.0000
  H   H6849     1.0  0.90169  0.80204  0.57469  1.0000
  C   C8567     1.0  0.85476  0.97433  0.53415  1.0000
  S   S1143     1.0  0.75107  0.95665  0.50054  1.0000
  C   C8568     1.0  0.76803  0.94454  0.55518  1.0000
  C   C8569     1.0  0.75951  0.93592  0.55839  1.0000
  H   H6850     1.0  0.87211  0.91118  0.58796  1.0000
  S   S1144     1.0  0.92967  0.76111  0.51506  1.0000
  C   C8570     1.0  0.76372  0.95815  0.54996  1.0000
  C   C8571     1.0  0.84664  0.91439  0.56925  1.0000
  P   P285      1.0  0.89658  0.80510  0.48563  1.0000
  C   C8572     1.0  0.81673  0.94811  0.55026  1.0000
  C   C8573     1.0  0.81063  0.94518  0.54189  1.0000
  C   C8574     1.0  0.79768  0.95163  0.54113  1.0000
  C   C8575     1.0  0.90777  0.76668  0.48130  1.0000
  H   H6851     1.0  0.82700  0.96033  0.51523  1.0000
  Fe  Fe572     1.0  0.75066  0.90949  0.50577  1.0000
  H   H6852     1.0  0.92961  0.84907  0.49115  1.0000
  H   H6853     1.0  0.82750  0.96813  0.53458  1.0000
  H   H6854     1.0  0.92064  0.77025  0.53924  1.0000
  C   C8576     1.0  0.94763  0.77527  0.51475  1.0000
  C   C8577     1.0  0.87699  0.79394  0.50533  1.0000
  P   P286      1.0  0.82303  0.97435  0.48852  1.0000
  C   C8578     1.0  0.88633  0.92326  0.57681  1.0000
  C   C8579     1.0  0.91236  0.80489  0.48846  1.0000
  H   H6855     1.0  0.77784  0.94047  0.55704  1.0000
  H   H6856     1.0  0.76290  0.92541  0.56225  1.0000
  Fe  Fe573     1.0  0.84649  0.90914  0.50558  1.0000
  C   C8580     1.0  0.75068  0.96299  0.54831  1.0000
  C   C8581     1.0  0.86319  0.92704  0.56593  1.0000
  H   H6857     1.0  0.85531  0.94658  0.57041  1.0000
  H   H6858     1.0  0.76553  0.97055  0.52261  1.0000
  H   H6859     1.0  0.82679  0.94301  0.55078  1.0000
  H   H6860     1.0  0.81589  0.93777  0.53609  1.0000
  H   H6861     1.0  0.79303  0.94898  0.53483  1.0000
  C   C8582     1.0  0.81514  0.96036  0.49436  1.0000
  C   C8583     1.0  0.89978  0.77784  0.56105  1.0000
  H   H6862     1.0  0.91587  0.83090  0.50618  1.0000
  H   H6863     1.0  0.86168  0.87538  0.50162  1.0000
  C   C8584     1.0  0.86748  0.79314  0.51729  1.0000
  Fe  Fe574     1.0  0.97805  0.83108  0.50874  1.0000
  C   C8585     1.0  0.79623  0.95101  0.50743  1.0000
  C   C8586     1.0  0.88537  0.91754  0.53931  1.0000
  H   H6864     1.0  0.94707  0.80211  0.49423  1.0000
  C   C8587     1.0  0.90143  0.90810  0.55315  1.0000
  H   H6865     1.0  0.89104  0.96514  0.52363  1.0000
  C   C8588     1.0  0.93737  0.80300  0.49264  1.0000
  H   H6866     1.0  0.96025  0.78804  0.51398  1.0000
  C   C8589     1.0  0.74217  0.95432  0.55165  1.0000
  C   C8590     1.0  0.88657  0.94901  0.54011  1.0000
  C   C8591     1.0  0.89251  0.90904  0.53072  1.0000
  S   S1145     1.0  0.73959  0.92977  0.53298  1.0000
  C   C8592     1.0  0.85311  0.93751  0.57004  1.0000
  H   H6867     1.0  0.88447  0.87832  0.49197  1.0000
  C   C8593     1.0  0.90204  0.78377  0.57003  1.0000
  C   C8594     1.0  0.86491  0.80244  0.52507  1.0000
  H   H6868     1.0  0.90565  0.77763  0.57874  1.0000
  H   H6869     1.0  0.82183  0.89172  0.50781  1.0000
  C   C8595     1.0  0.93628  0.77043  0.52174  1.0000
  S   S1146     1.0  0.86738  0.90758  0.50603  1.0000
  C   C8596     1.0  0.89534  0.78573  0.54969  1.0000
  H   H6870     1.0  0.96840  0.75992  0.52605  1.0000
  H   H6871     1.0  0.95987  0.76970  0.48403  1.0000
  H   H6872     1.0  0.89121  0.89013  0.51020  1.0000
  C   C8597     1.0  0.91128  0.87905  0.50768  1.0000
  C   C8598     1.0  0.87942  0.96767  0.55597  1.0000
  C   C8599     1.0  0.88776  0.96211  0.53433  1.0000
  H   H6873     1.0  0.88797  0.92174  0.48543  1.0000
  C   C8600     1.0  0.85729  0.87736  0.48264  1.0000
  S   S1147     1.0  0.96448  0.74091  0.50067  1.0000
  C   C8601     1.0  0.88543  0.91076  0.59966  1.0000
  H   H6874     1.0  0.97452  0.79106  0.54882  1.0000
  H   H6875     1.0  0.87169  0.96769  0.50393  1.0000
  H   H6876     1.0  0.88693  0.82107  0.50599  1.0000
  C   C8602     1.0  0.81000  0.95792  0.55751  1.0000
  H   H6877     1.0  0.89677  0.84694  0.49796  1.0000
  H   H6878     1.0  0.92775  0.80174  0.51331  1.0000
  C   C8603     1.0  0.97069  0.75065  0.53303  1.0000
  H   H6879     1.0  0.90012  0.91199  0.60903  1.0000
  C   C8604     1.0  0.79140  0.88959  0.49678  1.0000
  S   S1148     1.0  0.96822  0.84200  0.49175  1.0000
  H   H6880     1.0  0.95084  0.74775  0.53797  1.0000
  C   C8605     1.0  0.91411  0.80343  0.50137  1.0000
  S   S1149     1.0  0.97599  0.81125  0.50767  1.0000
  C   C8606     1.0  0.81454  0.89008  0.49169  1.0000
  H   H6881     1.0  0.86209  0.78527  0.52054  1.0000
  C   C8607     1.0  0.80138  0.89060  0.51400  1.0000
  H   H6882     1.0  0.91119  0.92267  0.48285  1.0000
  C   C8608     1.0  0.80283  0.96143  0.50332  1.0000
  S   S1150     1.0  0.74242  0.90062  0.52710  1.0000
  H   H6883     1.0  0.76988  0.96393  0.57597  1.0000
  C   C8609     1.0  0.80220  0.93916  0.50320  1.0000
  H   H6884     1.0  0.87476  0.95181  0.57249  1.0000
  C   C8610     1.0  0.88181  0.94510  0.55392  1.0000
  Fe  Fe575     1.0  0.74802  0.93627  0.51124  1.0000
  C   C8611     1.0  0.82495  0.97089  0.51472  1.0000
  P   P287      1.0  0.88033  0.92814  0.56164  1.0000
  C   C8612     1.0  0.81341  0.89082  0.50481  1.0000
  C   C8613     1.0  0.90408  0.90005  0.53336  1.0000
  H   H6885     1.0  0.74007  0.93403  0.55917  1.0000
  H   H6886     1.0  0.90961  0.89343  0.52674  1.0000
  H   H6887     1.0  0.84823  0.96462  0.49741  1.0000
  H   H6888     1.0  0.91490  0.88648  0.49934  1.0000
  H   H6889     1.0  0.87644  0.92450  0.53711  1.0000
  C   C8614     1.0  0.86173  0.97646  0.52088  1.0000
  H   H6890     1.0  0.88917  0.94213  0.53364  1.0000
  C   C8615     1.0  0.88150  0.81328  0.50902  1.0000
  Fe  Fe576     1.0  0.96458  0.82256  0.49203  1.0000
  C   C8616     1.0  0.81471  0.93778  0.49477  1.0000
  C   C8617     1.0  0.87841  0.95453  0.56182  1.0000
  C   C8618     1.0  0.76548  0.97431  0.57267  1.0000
  C   C8619     1.0  0.79036  0.89010  0.50997  1.0000
  C   C8620     1.0  0.92351  0.85094  0.48409  1.0000
  H   H6891     1.0  0.78095  0.89030  0.51705  1.0000
  H   H6892     1.0  0.88903  0.90944  0.52203  1.0000
  C   C8621     1.0  0.74128  0.96937  0.50853  1.0000
  P   P288      1.0  0.77412  0.96965  0.54703  1.0000
  H   H6893     1.0  0.87098  0.95716  0.48564  1.0000
  C   C8622     1.0  0.87188  0.81255  0.52089  1.0000
  C   C8623     1.0  0.79707  0.96459  0.55658  1.0000
  H   H6894     1.0  0.87564  0.82977  0.48751  1.0000
  C   C8624     1.0  0.77111  0.97810  0.52052  1.0000
  H   H6895     1.0  0.87625  0.97504  0.56200  1.0000
  C   C8625     1.0  0.86543  0.87684  0.49093  1.0000
  C   C8626     1.0  0.76616  0.97990  0.55904  1.0000
  H   H6896     1.0  0.78261  0.88979  0.49374  1.0000
  H   H6897     1.0  0.93615  0.77617  0.48404  1.0000
  C   C8627     1.0  0.82115  0.94836  0.49024  1.0000
  C   C8628     1.0  0.90606  0.77824  0.48570  1.0000
  H   H6898     1.0  0.82171  0.86431  0.48492  1.0000
  C   C8629     1.0  0.85014  0.96480  0.48690  1.0000
  H   H6899     1.0  0.81943  0.92846  0.49177  1.0000
  S   S1151     1.0  0.84122  0.90749  0.48742  1.0000
  H   H6900     1.0  0.79219  0.97243  0.56193  1.0000
  H   H6901     1.0  0.91314  0.75732  0.48625  1.0000
  H   H6902     1.0  0.91009  0.77762  0.49413  1.0000
  C   C8630     1.0  0.77623  0.97991  0.53041  1.0000
  H   H6903     1.0  0.91756  0.87165  0.48371  1.0000
  H   H6904     1.0  0.98399  0.75581  0.48428  1.0000
  C   C8631     1.0  0.87826  0.87875  0.48540  1.0000
  C   C8632     1.0  0.74303  0.98232  0.50296  1.0000
  C   C8633     1.0  0.82516  0.97522  0.52578  1.0000
  H   H6905     1.0  0.88441  0.98175  0.53766  1.0000
  H   H6906     1.0  0.82389  0.89049  0.48465  1.0000
  C   C8634     1.0  0.75916  0.98211  0.58211  1.0000
  H   H6907     1.0  0.77216  0.86033  0.48381  1.0000
  C   C8635     1.0  0.98391  0.78515  0.54467  1.0000
  C   C8636     1.0  0.98416  0.77456  0.53937  1.0000
  C   C8637     1.0  0.98359  0.74544  0.53501  1.0000
  S   S1152     1.0  0.93984  0.73380  0.49401  1.0000
  H   H6908     1.0  0.77054  0.97140  0.48208  1.0000
  H   H6909     1.0  0.92812  0.83062  0.48248  1.0000
  H   H6910     1.0  0.75887  0.92567  0.48240  1.0000
  H   H6911     1.0  0.79666  0.98012  0.48230  1.0000
  H   H6912     1.0  0.85962  0.92442  0.48224  1.0000
  C   C8638     1.0  0.98530  0.77520  0.48512  1.0000
  C   C8639     1.0  0.98609  0.76157  0.48995  1.0000
  C   C8640     1.0  0.89594  0.91460  0.48084  1.0000
