data_image0
_chemical_formula_structural       CHSC2H4PCHFeCH2C3PCHC4SHC3SHC3H2C3SH4SH3CHCHFeH2C2HC4H5C3H2FeH3FeSFeS2C2HS2C2H3CHSH5C5HC7HC2HCSHPCHC2HC3HC2H2C3H2C2HCHCHCH2C2HC3HC2HC2H2C2FeHC2SHC2FeSCFeS2CSH2C4H2C6H5C8FeHCHCHCHCHC2SHC2HCH4CHCFeSC2H2SH2C4H4C2FeH3C2HFeH2SC2HSC6HCHCHC2H3CHPH3CHCHCH2CFeSPSFeS2FeS2HC2HC8H6CFeC2HCSHCHCHCHC2H2C6H2C2H2C2FeHC3H2C2HCHSC3SCSHC3H6CH2C2HCHCH2CH2CH4CFeS4C6H4CHCHC4H4C4PC9HC4HC2SH9CH5C3HCHC2HCHCH2C5SC3H2C2HFeHFeC2HC3H2FePC2H2CHCH5C4H2CS2FeSCSCFeHSCH3C6H5CH4PC4HC3HSC2H4CH2CH3C2H2C3SH3C4PC7HC3FeH5C4HC2H2CHCHCH2FeSC2HSCHCHC2HC6H5CHC2SC2HSCH2CH2C6H2SCHCFeSH3PFeH3CHC5H2C3PFeH4C2HC2HCSC2HC2HC2FeSCHSC3H4C6H4CHC2HCPC4HC5HC7H3CH3C2HC2H5CH4CHCHSC4HC2HCH2SHC2HC2H3CHCH2SC3HC3HC4HCPH3SH2FeSH2CH2CH2S2HCSCHC4FeH3CH2C2HC2HC2H2C3HPC15H4C4H4CFeC3H2CSCH2FeSCSCHCS2HC2SC4HCH3CH3C3FeC4H3CHC2HC5H3FeH11CHCSCSC5PC10HC3HSHC2H2CH6C2HCHC2H3C3PC3H2CH2PFeC3SHCSC2FeS2H3C2H2CHC2HPHCFeHSCSC2H3CHC3H4C7HC2H4CHPC2HC2H3CHCFeC6HC5H2CHCHCHCH4C2H3C7HC2H3C6HSH2SCH4CHCHCH3CH2CHFeC2PCHC2SC2HC
_chemical_formula_sum              "C600 H480 S80 P20 Fe40"
_cell_length_a       41.2185
_cell_length_b       41.3722
_cell_length_c       28.586
_cell_angle_alpha    86.0643
_cell_angle_beta     85.3572
_cell_angle_gamma    121.129

_space_group_name_H-M_alt    "P 1"
_space_group_IT_number       1

loop_
  _space_group_symop_operation_xyz
  'x, y, z'

loop_
  _atom_site_type_symbol
  _atom_site_label
  _atom_site_symmetry_multiplicity
  _atom_site_fract_x
  _atom_site_fract_y
  _atom_site_fract_z
  _atom_site_occupancy
  C   C1        1.0  0.15755  0.44486  0.23477  1.0000
  H   H1        1.0  0.13348  0.39914  0.29262  1.0000
  S   S1        1.0  0.16647  0.44510  0.39526  1.0000
  C   C2        1.0  0.20794  0.48300  0.36019  1.0000
  C   C3        1.0  0.19395  0.42346  0.27485  1.0000
  H   H2        1.0  0.06052  0.41775  0.06672  1.0000
  H   H3        1.0  0.24396  0.46076  0.37273  1.0000
  H   H4        1.0  0.07436  0.48038  0.08802  1.0000
  H   H5        1.0  0.28247  0.09994  0.34371  1.0000
  P   P1        1.0  0.18831  0.50590  0.16281  1.0000
  C   C4        1.0  0.05641  0.40011  0.44982  1.0000
  H   H6        1.0  0.31659  0.17046  0.32819  1.0000
  Fe  Fe1       1.0  0.16998  0.40131  0.44334  1.0000
  C   C5        1.0  0.25176  0.15511  0.42201  1.0000
  H   H7        1.0  0.19529  0.40505  0.30251  1.0000
  H   H8        1.0  0.28122  0.29622  0.40298  1.0000
  C   C6        1.0  0.14746  0.47806  0.13286  1.0000
  C   C7        1.0  0.24293  0.09540  0.40176  1.0000
  C   C8        1.0  0.22727  0.45127  0.24580  1.0000
  P   P2        1.0  0.19075  0.08938  0.47611  1.0000
  C   C9        1.0  0.22596  0.47632  0.21168  1.0000
  H   H9        1.0  0.18292  0.01487  0.47766  1.0000
  C   C10       1.0  0.16496  0.13786  0.45107  1.0000
  C   C11       1.0  0.15910  0.42022  0.26929  1.0000
  C   C12       1.0  0.12378  0.49156  0.12095  1.0000
  C   C13       1.0  0.28178  0.17486  0.38472  1.0000
  S   S2        1.0  0.22762  0.31795  0.43360  1.0000
  H   H10       1.0  0.29722  0.20570  0.37872  1.0000
  C   C14       1.0  0.24214  0.48336  0.35431  1.0000
  C   C15       1.0  0.31881  0.38943  0.47031  1.0000
  C   C16       1.0  0.08475  0.43455  0.08513  1.0000
  S   S3        1.0  0.33868  0.17435  0.45875  1.0000
  H   H11       1.0  0.13028  0.44204  0.23120  1.0000
  C   C17       1.0  0.29276  0.15499  0.35640  1.0000
  C   C18       1.0  0.26871  0.28234  0.43877  1.0000
  C   C19       1.0  0.13965  0.44274  0.12030  1.0000
  H   H12       1.0  0.28171  0.06733  0.46126  1.0000
  H   H13       1.0  0.30115  0.25458  0.44153  1.0000
  C   C20       1.0  0.27356  0.11531  0.36519  1.0000
  C   C21       1.0  0.12433  0.04217  0.43583  1.0000
  C   C22       1.0  0.19108  0.47355  0.20609  1.0000
  S   S4        1.0  0.14181  0.33885  0.43556  1.0000
  H   H14       1.0  0.34084  0.11308  0.41099  1.0000
  H   H15       1.0  0.32377  0.40182  0.43385  1.0000
  H   H16       1.0  0.15787  0.43205  0.12869  1.0000
  H   H17       1.0  0.25445  0.45430  0.25081  1.0000
  S   S5        1.0  0.22282  0.40571  0.46578  1.0000
  H   H18       1.0  0.08367  0.40993  0.42860  1.0000
  H   H19       1.0  0.24478  0.17131  0.44453  1.0000
  H   H20       1.0  0.02318  0.37112  0.39547  1.0000
  C   C23       1.0  0.09252  0.46981  0.09720  1.0000
  H   H21       1.0  0.22847  0.06471  0.40778  1.0000
  C   C24       1.0  0.23149  0.11510  0.43020  1.0000
  H   H22       1.0  0.15779  0.50597  0.26033  1.0000
  Fe  Fe2       1.0  0.19270  0.34208  0.46531  1.0000
  H   H23       1.0  0.16889  0.13270  0.41501  1.0000
  H   H24       1.0  0.21195  0.49522  0.46018  1.0000
  C   C25       1.0  0.10833  0.42104  0.09665  1.0000
  C   C26       1.0  0.28017  0.25882  0.46061  1.0000
  H   H25       1.0  0.34054  0.35354  0.45412  1.0000
  C   C27       1.0  0.24133  0.28820  0.46286  1.0000
  C   C28       1.0  0.15400  0.16400  0.45957  1.0000
  C   C29       1.0  0.15541  0.04527  0.45657  1.0000
  C   C30       1.0  0.27934  0.04094  0.47409  1.0000
  H   H26       1.0  0.12002  0.06578  0.43210  1.0000
  H   H27       1.0  0.35100  0.06056  0.40049  1.0000
  H   H28       1.0  0.14921  0.17855  0.43044  1.0000
  H   H29       1.0  0.10239  0.39376  0.08716  1.0000
  H   H30       1.0  0.25244  0.49790  0.19059  1.0000
  C   C31       1.0  0.32824  0.36221  0.48178  1.0000
  C   C32       1.0  0.15945  0.01349  0.46139  1.0000
  C   C33       1.0  0.02233  0.37834  0.43111  1.0000
  H   H31       1.0  0.04218  0.31465  0.45526  1.0000
  H   H32       1.0  0.20369  0.27348  0.52743  1.0000
  Fe  Fe3       1.0  0.32670  0.20183  0.51781  1.0000
  H   H33       1.0  0.03845  0.34838  0.58113  1.0000
  H   H34       1.0  0.04898  0.47085  0.50505  1.0000
  H   H35       1.0  0.31229  0.46219  0.57543  1.0000
  Fe  Fe4       1.0  0.11602  0.32933  0.51144  1.0000
  S   S6        1.0  0.05439  0.28459  0.54356  1.0000
  Fe  Fe5       1.0  0.19237  0.39161  0.53973  1.0000
  S   S7        1.0  0.33751  0.16832  0.57355  1.0000
  S   S8        1.0  0.22873  0.42225  0.59617  1.0000
  C   C34       1.0  0.33521  0.43548  0.67810  1.0000
  C   C35       1.0  0.20428  0.07560  0.52894  1.0000
  H   H36       1.0  0.15442  0.26764  0.61315  1.0000
  S   S9        1.0  0.14134  0.39155  0.51764  1.0000
  S   S10       1.0  0.16497  0.32831  0.54066  1.0000
  C   C36       1.0  0.22703  0.46095  0.61593  1.0000
  C   C37       1.0  0.19786  0.46708  0.60626  1.0000
  H   H37       1.0  0.22319  0.23151  0.56602  1.0000
  H   H38       1.0  0.17647  0.44857  0.58546  1.0000
  H   H39       1.0  0.15692  0.16273  0.57809  1.0000
  C   C38       1.0  0.25476  0.48539  0.64287  1.0000
  H   H40       1.0  0.22135  0.32123  0.59499  1.0000
  S   S11       1.0  0.27485  0.20787  0.53478  1.0000
  H   H41       1.0  0.08512  0.33844  0.61758  1.0000
  H   H42       1.0  0.13807  0.20979  0.66592  1.0000
  H   H43       1.0  0.25587  0.25945  0.68511  1.0000
  H   H44       1.0  0.27895  0.38979  0.57868  1.0000
  H   H45       1.0  0.08220  0.42528  0.51016  1.0000
  C   C39       1.0  0.34266  0.26982  0.62703  1.0000
  C   C40       1.0  0.08299  0.36283  0.62434  1.0000
  C   C41       1.0  0.26369  0.24009  0.50657  1.0000
  C   C42       1.0  0.30660  0.42756  0.71480  1.0000
  C   C43       1.0  0.19577  0.49672  0.62446  1.0000
  H   H46       1.0  0.12376  0.44057  0.68274  1.0000
  C   C44       1.0  0.17676  0.26589  0.62847  1.0000
  C   C45       1.0  0.16752  0.23327  0.65826  1.0000
  C   C46       1.0  0.19624  0.23114  0.67840  1.0000
  C   C47       1.0  0.23424  0.26148  0.66838  1.0000
  C   C48       1.0  0.24397  0.29386  0.63708  1.0000
  C   C49       1.0  0.21480  0.29619  0.61812  1.0000
  C   C50       1.0  0.23627  0.24589  0.53057  1.0000
  H   H47       1.0  0.18909  0.20600  0.70184  1.0000
  C   C51       1.0  0.32021  0.34487  0.52847  1.0000
  C   C52       1.0  0.25240  0.07604  0.57302  1.0000
  H   H48       1.0  0.17705  0.11746  0.56367  1.0000
  C   C53       1.0  0.10721  0.38876  0.65275  1.0000
  S   S12       1.0  0.34332  0.08434  0.51901  1.0000
  H   H49       1.0  0.14576  0.03755  0.56192  1.0000
  P   P3        1.0  0.29286  0.33366  0.62516  1.0000
  C   C54       1.0  0.07854  0.42655  0.63988  1.0000
  H   H50       1.0  0.12834  0.38467  0.66786  1.0000
  C   C55       1.0  0.24277  0.08954  0.53356  1.0000
  C   C56       1.0  0.29330  0.38220  0.55221  1.0000
  H   H51       1.0  0.28209  0.08602  0.57590  1.0000
  C   C57       1.0  0.05542  0.40854  0.49622  1.0000
  C   C58       1.0  0.30276  0.35484  0.56420  1.0000
  C   C59       1.0  0.16948  0.12908  0.53445  1.0000
  H   H52       1.0  0.07763  0.45150  0.64628  1.0000
  C   C60       1.0  0.22524  0.26982  0.50895  1.0000
  C   C61       1.0  0.10475  0.42041  0.66082  1.0000
  H   H53       1.0  0.29599  0.26841  0.59716  1.0000
  H   H54       1.0  0.24494  0.33389  0.70776  1.0000
  C   C62       1.0  0.05429  0.40075  0.61095  1.0000
  C   C63       1.0  0.29894  0.36971  0.66208  1.0000
  C   C64       1.0  0.31906  0.28380  0.61783  1.0000
  H   H55       1.0  0.23155  0.03863  0.63871  1.0000
  H   H56       1.0  0.27718  0.48048  0.65074  1.0000
  C   C65       1.0  0.27048  0.36195  0.69930  1.0000
  C   C66       1.0  0.15824  0.15504  0.54284  1.0000
  H   H57       1.0  0.33788  0.24410  0.61328  1.0000
  C   C67       1.0  0.22382  0.04913  0.60844  1.0000
  H   H58       1.0  0.30924  0.44992  0.73481  1.0000
  C   C68       1.0  0.30166  0.39964  0.50561  1.0000
  H   H59       1.0  0.14316  0.19365  0.51173  1.0000
  C   C69       1.0  0.05665  0.36874  0.60348  1.0000
  H   H60       1.0  0.26536  0.11028  0.50655  1.0000
  H   H61       1.0  0.25192  0.38484  0.75351  1.0000
  C   C70       1.0  0.18543  0.03562  0.60454  1.0000
  C   C71       1.0  0.30527  0.04137  0.50314  1.0000
  H   H62       1.0  0.32696  0.32324  0.53587  1.0000
  C   C72       1.0  0.32482  0.31695  0.63566  1.0000
  C   C73       1.0  0.17565  0.04872  0.56490  1.0000
  C   C74       1.0  0.27433  0.39083  0.72544  1.0000
  H   H63       1.0  0.29407  0.42054  0.49671  1.0000
  C   C75       1.0  0.03152  0.45643  0.58110  1.0000
  C   C76       1.0  0.04486  0.48059  0.53789  1.0000
  H   H64       1.0  0.16329  0.01463  0.63197  1.0000
  C   C77       1.0  0.33140  0.40669  0.65175  1.0000
  C   C78       1.0  0.33535  0.48986  0.55836  1.0000
  H   H65       1.0  0.17267  0.50070  0.61744  1.0000
  H   H66       1.0  0.29700  0.50538  0.53393  1.0000
  C   C79       1.0  0.02631  0.47032  0.62276  1.0000
  C   C80       1.0  0.03497  0.50787  0.62137  1.0000
  Fe  Fe6       1.0  0.35409  0.14475  0.51358  1.0000
  H   H67       1.0  0.35342  0.41326  0.62283  1.0000
  C   C81       1.0  0.15058  0.17255  0.50544  1.0000
  C   C82       1.0  0.17264  0.11999  0.48848  1.0000
  S   S13       1.0  0.18988  0.84201  0.39911  1.0000
  H   H68       1.0  0.29938  0.51136  0.31664  1.0000
  C   C83       1.0  0.16641  0.53259  0.23950  1.0000
  C   C84       1.0  0.08859  0.64373  0.46500  1.0000
  Fe  Fe7       1.0  0.22473  0.81792  0.42211  1.0000
  S   S14       1.0  0.27341  0.81897  0.37759  1.0000
  C   C85       1.0  0.29750  0.57771  0.05459  1.0000
  Fe  Fe8       1.0  0.29335  0.68762  0.21774  1.0000
  S   S15       1.0  0.28557  0.64105  0.17467  1.0000
  S   S16       1.0  0.24406  0.69543  0.23902  1.0000
  C   C86       1.0  0.32903  0.75527  0.41171  1.0000
  S   S17       1.0  0.30866  0.57268  0.25235  1.0000
  H   H69       1.0  0.32403  0.80199  0.32548  1.0000
  H   H70       1.0  0.27938  0.64553  0.04655  1.0000
  C   C87       1.0  0.03135  0.89938  0.34249  1.0000
  C   C88       1.0  0.23749  0.54141  0.30459  1.0000
  C   C89       1.0  0.27095  0.54063  0.29684  1.0000
  C   C90       1.0  0.33419  0.95242  0.45178  1.0000
  H   H71       1.0  0.23541  0.56327  0.28466  1.0000
  H   H72       1.0  0.18368  0.66766  0.39877  1.0000
  C   C91       1.0  0.26438  0.78343  0.34069  1.0000
  C   C92       1.0  0.22732  0.75737  0.33183  1.0000
  C   C93       1.0  0.22140  0.73057  0.30049  1.0000
  C   C94       1.0  0.25233  0.72908  0.27869  1.0000
  C   C95       1.0  0.28923  0.75447  0.28860  1.0000
  C   C96       1.0  0.29526  0.78186  0.31899  1.0000
  H   H73       1.0  0.20337  0.75848  0.34819  1.0000
  H   H74       1.0  0.19280  0.71110  0.29292  1.0000
  H   H75       1.0  0.08922  0.81353  0.32130  1.0000
  H   H76       1.0  0.31781  0.87042  0.44194  1.0000
  H   H77       1.0  0.20549  0.58232  0.12915  1.0000
  C   C97       1.0  0.16225  0.55971  0.26139  1.0000
  C   C98       1.0  0.10311  0.97707  0.42347  1.0000
  C   C99       1.0  0.09831  0.00818  0.41937  1.0000
  C   C100      1.0  0.03804  0.93423  0.32153  1.0000
  C   C101      1.0  0.31855  0.69429  0.39457  1.0000
  C   C102      1.0  0.18259  0.54052  0.19184  1.0000
  C   C103      1.0  0.26312  0.55172  0.03905  1.0000
  C   C104      1.0  0.20602  0.51259  0.33612  1.0000
  Fe  Fe9       1.0  0.19977  0.86841  0.46706  1.0000
  H   H78       1.0  0.04769  0.88805  0.32722  1.0000
  C   C105      1.0  0.29575  0.73273  0.00936  1.0000
  H   H79       1.0  0.31634  0.92845  0.47889  1.0000
  C   C106      1.0  0.27063  0.53525  0.46774  1.0000
  H   H80       1.0  0.02839  0.89785  0.46948  1.0000
  C   C107      1.0  0.29890  0.58104  0.10273  1.0000
  H   H81       1.0  0.32289  0.59608  0.02931  1.0000
  C   C108      1.0  0.23011  0.52889  0.07175  1.0000
  H   H82       1.0  0.06853  0.63252  0.43960  1.0000
  C   C109      1.0  0.33605  0.86335  0.45962  1.0000
  C   C110      1.0  0.13357  0.97967  0.44471  1.0000
  S   S18       1.0  0.17380  0.76389  0.45899  1.0000
  H   H83       1.0  0.17978  0.51266  0.34103  1.0000
  C   C111      1.0  0.33550  0.67482  0.00628  1.0000
  C   C112      1.0  0.29549  0.65313  0.01163  1.0000
  H   H84       1.0  0.13750  0.95561  0.44797  1.0000
  C   C113      1.0  0.23131  0.53209  0.12033  1.0000
  H   H85       1.0  0.07456  0.00606  0.40310  1.0000
  H   H86       1.0  0.08336  0.95100  0.41005  1.0000
  H   H87       1.0  0.23120  0.00622  0.43779  1.0000
  H   H88       1.0  0.06968  0.84430  0.37816  1.0000
  C   C114      1.0  0.27347  0.51200  0.32247  1.0000
  H   H89       1.0  0.11925  0.61757  0.44149  1.0000
  C   C115      1.0  0.17365  0.59471  0.23571  1.0000
  Fe  Fe10      1.0  0.34296  0.68454  0.13440  1.0000
  S   S19       1.0  0.34830  0.73232  0.17356  1.0000
  C   C116      1.0  0.03691  0.73294  0.43741  1.0000
  C   C117      1.0  0.19620  0.63145  0.44235  1.0000
  H   H90       1.0  0.31326  0.75353  0.27213  1.0000
  H   H91       1.0  0.31792  0.77375  0.41489  1.0000
  S   S20       1.0  0.32091  0.67303  0.27313  1.0000
  H   H92       1.0  0.19831  0.62998  0.16849  1.0000
  H   H93       1.0  0.34967  0.84275  0.39887  1.0000
  C   C118      1.0  0.21876  0.61559  0.35588  1.0000
  C   C119      1.0  0.20385  0.63916  0.35650  1.0000
  C   C120      1.0  0.19336  0.64776  0.39940  1.0000
  C   C121      1.0  0.21222  0.60864  0.44145  1.0000
  H   H94       1.0  0.28732  0.94135  0.41343  1.0000
  H   H95       1.0  0.32538  0.60184  0.11468  1.0000
  H   H96       1.0  0.15075  0.55383  0.29850  1.0000
  H   H97       1.0  0.23521  0.58252  0.39790  1.0000
  C   C122      1.0  0.22301  0.60031  0.39841  1.0000
  C   C123      1.0  0.30472  0.71841  0.40103  1.0000
  Fe  Fe11      1.0  0.31816  0.63035  0.22652  1.0000
  H   H98       1.0  0.17124  0.61615  0.25273  1.0000
  H   H99       1.0  0.22779  0.60997  0.32232  1.0000
  H   H100      1.0  0.20105  0.65140  0.32360  1.0000
  C   C124      1.0  0.35400  0.84735  0.43532  1.0000
  C   C125      1.0  0.03379  0.81826  0.47440  1.0000
  H   H101      1.0  0.29999  0.66619  0.38495  1.0000
  Fe  Fe12      1.0  0.13919  0.78978  0.44195  1.0000
  H   H102      1.0  0.26726  0.56209  0.17251  1.0000
  H   H103      1.0  0.05916  0.94923  0.29039  1.0000
  S   S21       1.0  0.20948  0.92856  0.46061  1.0000
  C   C126      1.0  0.04837  0.82331  0.35918  1.0000
  C   C127      1.0  0.31776  0.95974  0.41484  1.0000
  H   H104      1.0  0.27545  0.70906  0.39633  1.0000
  S   S22       1.0  0.08460  0.75632  0.40834  1.0000
  C   C128      1.0  0.19314  0.57547  0.16603  1.0000
  C   C129      1.0  0.05973  0.80630  0.32640  1.0000
  C   C130      1.0  0.18883  0.60247  0.18801  1.0000
  C   C131      1.0  0.26592  0.55851  0.13540  1.0000
  C   C132      1.0  0.03638  0.87763  0.48003  1.0000
  C   C133      1.0  0.31831  0.74782  0.04523  1.0000
  H   H105      1.0  0.26609  0.70996  0.01835  1.0000
  C   C134      1.0  0.25057  0.00622  0.46108  1.0000
  H   H106      1.0  0.30623  0.73667  0.08199  1.0000
  C   C135      1.0  0.11779  0.63588  0.46569  1.0000
  H   H107      1.0  0.32689  0.99671  0.35236  1.0000
  C   C136      1.0  0.24686  0.97146  0.47753  1.0000
  C   C137      1.0  0.34025  0.99120  0.38043  1.0000
  H   H108      1.0  0.26192  0.54996  0.00151  1.0000
  H   H109      1.0  0.04169  0.76508  0.27720  1.0000
  H   H110      1.0  0.33103  0.61806  0.40110  1.0000
  C   C138      1.0  0.34814  0.60706  0.38727  1.0000
  H   H111      1.0  0.21607  0.72491  0.47247  1.0000
  P   P4        1.0  0.34641  0.58318  0.48073  1.0000
  H   H112      1.0  0.12935  0.51885  0.12972  1.0000
  H   H113      1.0  0.28146  0.52367  0.44225  1.0000
  H   H114      1.0  0.21695  0.59787  0.47395  1.0000
  C   C139      1.0  0.23114  0.51903  0.47771  1.0000
  H   H115      1.0  0.35209  0.62907  0.31521  1.0000
  C   C140      1.0  0.02345  0.84415  0.45879  1.0000
  H   H116      1.0  0.02381  0.79214  0.45884  1.0000
  C   C141      1.0  0.03287  0.77880  0.30176  1.0000
  H   H117      1.0  0.20371  0.50954  0.05873  1.0000
  H   H118      1.0  0.02240  0.97645  0.32392  1.0000
  C   C142      1.0  0.17152  0.61477  0.59280  1.0000
  Fe  Fe13      1.0  0.18496  0.79490  0.52283  1.0000
  S   S23       1.0  0.17690  0.75918  0.59160  1.0000
  P   P5        1.0  0.18340  0.64304  0.49788  1.0000
  S   S24       1.0  0.14651  0.81733  0.50849  1.0000
  Fe  Fe14      1.0  0.30383  0.69291  0.70260  1.0000
  S   S25       1.0  0.25124  0.64361  0.74587  1.0000
  S   S26       1.0  0.31231  0.74780  0.66627  1.0000
  Fe  Fe15      1.0  0.26565  0.60657  0.70586  1.0000
  S   S27       1.0  0.21899  0.55797  0.67318  1.0000
  S   S28       1.0  0.27101  0.63458  0.87664  1.0000
  H   H119      1.0  0.06593  0.80623  0.52075  1.0000
  C   C143      1.0  0.07121  0.85996  0.52958  1.0000
  C   C144      1.0  0.29455  0.74887  0.52632  1.0000
  H   H120      1.0  0.26647  0.69955  0.80916  1.0000
  C   C145      1.0  0.14507  0.65219  0.49689  1.0000
  C   C146      1.0  0.15876  0.58606  0.63077  1.0000
  C   C147      1.0  0.21500  0.75558  0.60991  1.0000
  C   C148      1.0  0.20701  0.72177  0.63641  1.0000
  C   C149      1.0  0.23659  0.71867  0.65328  1.0000
  C   C150      1.0  0.27423  0.74983  0.64496  1.0000
  C   C151      1.0  0.28207  0.78380  0.61919  1.0000
  C   C152      1.0  0.25273  0.78650  0.60099  1.0000
  H   H121      1.0  0.17780  0.69793  0.64400  1.0000
  H   H122      1.0  0.23019  0.69243  0.67330  1.0000
  H   H123      1.0  0.31103  0.80803  0.61309  1.0000
  H   H124      1.0  0.25908  0.81279  0.58117  1.0000
  H   H125      1.0  0.06355  0.53660  0.50329  1.0000
  H   H126      1.0  0.24827  0.65249  0.54431  1.0000
  C   C153      1.0  0.34073  0.86919  0.50673  1.0000
  Fe  Fe16      1.0  0.29096  0.64433  0.79671  1.0000
  C   C154      1.0  0.14113  0.67425  0.52943  1.0000
  C   C155      1.0  0.28500  0.72943  0.81236  1.0000
  H   H127      1.0  0.13230  0.52608  0.65238  1.0000
  C   C156      1.0  0.35046  0.77469  0.94976  1.0000
  S   S29       1.0  0.23862  0.84799  0.48720  1.0000
  H   H128      1.0  0.35066  0.83642  0.82460  1.0000
  C   C157      1.0  0.22353  0.52143  0.65100  1.0000
  H   H129      1.0  0.29892  0.60284  0.54292  1.0000
  C   C158      1.0  0.21637  0.53277  0.51113  1.0000
  H   H130      1.0  0.29344  0.73319  0.93518  1.0000
  C   C159      1.0  0.30179  0.00664  0.51920  1.0000
  H   H131      1.0  0.18574  0.51943  0.51960  1.0000
  C   C160      1.0  0.13605  0.53862  0.57685  1.0000
  C   C161      1.0  0.11149  0.68142  0.52924  1.0000
  H   H132      1.0  0.27483  0.53489  0.68025  1.0000
  H   H133      1.0  0.03133  0.51856  0.65373  1.0000
  C   C162      1.0  0.28704  0.71257  0.54148  1.0000
  C   C163      1.0  0.14117  0.54804  0.62282  1.0000
  C   C164      1.0  0.31168  0.74593  0.96185  1.0000
  C   C165      1.0  0.02854  0.73011  0.48645  1.0000
  C   C166      1.0  0.33249  0.80644  0.82184  1.0000
  C   C167      1.0  0.29574  0.56528  0.49149  1.0000
  H   H134      1.0  0.10937  0.69944  0.55360  1.0000
  H   H135      1.0  0.22959  0.57340  0.56089  1.0000
  C   C168      1.0  0.33673  0.67280  0.92051  1.0000
  C   C169      1.0  0.30573  0.79534  0.78984  1.0000
  H   H136      1.0  0.26162  0.74827  0.75985  1.0000
  H   H137      1.0  0.30669  0.70941  0.56154  1.0000
  C   C170      1.0  0.28198  0.75684  0.78513  1.0000
  C   C171      1.0  0.23545  0.72107  0.49212  1.0000
  Fe  Fe17      1.0  0.34976  0.65569  0.71532  1.0000
  H   H138      1.0  0.24538  0.62416  0.97620  1.0000
  C   C172      1.0  0.06034  0.88555  0.51512  1.0000
  C   C173      1.0  0.26890  0.75317  0.50144  1.0000
  C   C174      1.0  0.31234  0.74045  0.84337  1.0000
  H   H139      1.0  0.16132  0.68656  0.55452  1.0000
  H   H140      1.0  0.31982  0.77356  0.53491  1.0000
  C   C175      1.0  0.28067  0.57955  0.52431  1.0000
  C   C176      1.0  0.05307  0.51799  0.53659  1.0000
  H   H141      1.0  0.16338  0.59338  0.66636  1.0000
  C   C177      1.0  0.24111  0.56314  0.53427  1.0000
  H   H142      1.0  0.07079  0.91166  0.53091  1.0000
  S   S30       1.0  0.31533  0.65600  0.65882  1.0000
  C   C178      1.0  0.29675  0.65091  0.92577  1.0000
  C   C179      1.0  0.16758  0.60567  0.54633  1.0000
  C   C180      1.0  0.25338  0.51597  0.65976  1.0000
  S   S31       1.0  0.34271  0.69655  0.75597  1.0000
  C   C181      1.0  0.25361  0.68041  0.53221  1.0000
  S   S32       1.0  0.30084  0.60309  0.75965  1.0000
  H   H143      1.0  0.14403  0.55951  0.50341  1.0000
  C   C182      1.0  0.22709  0.68449  0.50856  1.0000
  C   C183      1.0  0.33593  0.77896  0.84897  1.0000
  C   C184      1.0  0.14876  0.56730  0.53871  1.0000
  H   H144      1.0  0.18494  0.64410  0.59979  1.0000
  H   H145      1.0  0.30357  0.81653  0.76822  1.0000
  H   H146      1.0  0.06367  0.67373  0.49517  1.0000
  H   H147      1.0  0.26967  0.94531  0.52046  1.0000
  H   H148      1.0  0.05153  0.74127  0.50795  1.0000
  H   H149      1.0  0.31511  0.71886  0.86296  1.0000
  C   C185      1.0  0.04838  0.53172  0.57833  1.0000
  H   H150      1.0  0.31435  0.51618  0.72209  1.0000
  H   H151      1.0  0.27464  0.78134  0.48975  1.0000
  C   C186      1.0  0.27249  0.97184  0.50700  1.0000
  C   C187      1.0  0.32678  0.51464  0.53458  1.0000
  H   H152      1.0  0.09023  0.86623  0.55623  1.0000
  C   C188      1.0  0.08565  0.66678  0.49648  1.0000
  H   H153      1.0  0.34234  0.53702  0.63739  1.0000
  C   C189      1.0  0.05763  0.82617  0.50951  1.0000
  H   H154      1.0  0.32564  0.88025  0.52605  1.0000
  H   H155      1.0  0.32164  0.00659  0.54169  1.0000
  C   C190      1.0  0.27631  0.64109  0.97161  1.0000
  H   H156      1.0  0.35208  0.60911  0.57405  1.0000
  H   H157      1.0  0.05536  0.56092  0.57738  1.0000
  C   C191      1.0  0.34484  0.53592  0.71252  1.0000
  H   H158      1.0  0.33707  0.61938  0.85510  1.0000
  H   H159      1.0  0.35302  0.68082  0.88567  1.0000
  H   H160      1.0  0.34876  0.60993  0.93711  1.0000
  H   H161      1.0  0.12242  0.50909  0.57085  1.0000
  C   C192      1.0  0.64558  0.21188  0.46108  1.0000
  Fe  Fe18      1.0  0.62007  0.29231  0.25444  1.0000
  S   S33       1.0  0.56694  0.23854  0.29163  1.0000
  S   S34       1.0  0.65992  0.32799  0.30359  1.0000
  S   S35       1.0  0.66961  0.42589  0.29110  1.0000
  S   S36       1.0  0.43355  0.25702  0.38490  1.0000
  C   C193      1.0  0.47030  0.25111  0.35962  1.0000
  C   C194      1.0  0.47658  0.22331  0.37965  1.0000
  C   C195      1.0  0.50618  0.21944  0.35839  1.0000
  C   C196      1.0  0.53040  0.24418  0.31803  1.0000
  C   C197      1.0  0.52448  0.27232  0.29852  1.0000
  C   C198      1.0  0.49404  0.27524  0.31871  1.0000
  H   H162      1.0  0.45816  0.20426  0.41080  1.0000
  H   H163      1.0  0.51043  0.19739  0.37331  1.0000
  H   H164      1.0  0.54280  0.29121  0.26716  1.0000
  H   H165      1.0  0.48918  0.29664  0.30294  1.0000
  C   C199      1.0  0.59058  0.21020  0.43416  1.0000
  H   H166      1.0  0.40362  0.08837  0.24377  1.0000
  C   C200      1.0  0.47957  0.06313  0.31299  1.0000
  H   H167      1.0  0.57988  0.03560  0.39868  1.0000
  C   C201      1.0  0.59607  0.33652  0.41710  1.0000
  C   C202      1.0  0.67314  0.06789  0.33973  1.0000
  C   C203      1.0  0.39858  0.09271  0.34376  1.0000
  C   C204      1.0  0.65435  0.49271  0.44630  1.0000
  H   H168      1.0  0.53515  0.07143  0.29240  1.0000
  H   H169      1.0  0.60878  0.32031  0.42730  1.0000
  H   H170      1.0  0.65826  0.20024  0.48300  1.0000
  H   H171      1.0  0.52711  0.42756  0.45090  1.0000
  C   C205      1.0  0.43119  0.34368  0.42300  1.0000
  C   C206      1.0  0.46476  0.35705  0.39184  1.0000
  C   C207      1.0  0.49945  0.38859  0.40028  1.0000
  C   C208      1.0  0.36903  0.08731  0.37778  1.0000
  P   P6        1.0  0.54332  0.40397  0.36183  1.0000
  C   C209      1.0  0.56383  0.37838  0.38677  1.0000
  C   C210      1.0  0.53341  0.39109  0.30331  1.0000
  C   C211      1.0  0.55355  0.37749  0.27783  1.0000
  C   C212      1.0  0.54619  0.36830  0.23214  1.0000
  C   C213      1.0  0.51912  0.37299  0.21137  1.0000
  C   C214      1.0  0.49962  0.38731  0.23607  1.0000
  C   C215      1.0  0.50695  0.39664  0.28175  1.0000
  C   C216      1.0  0.60144  0.39716  0.39757  1.0000
  C   C217      1.0  0.61749  0.37625  0.41259  1.0000
  H   H172      1.0  0.64678  0.39099  0.41984  1.0000
  C   C218      1.0  0.55809  0.31762  0.40852  1.0000
  C   C219      1.0  0.54198  0.33848  0.39373  1.0000
  C   C220      1.0  0.57605  0.45505  0.35147  1.0000
  C   C221      1.0  0.56523  0.48040  0.36563  1.0000
  H   H173      1.0  0.42604  0.02600  0.42170  1.0000
  C   C222      1.0  0.61214  0.46987  0.32515  1.0000
  C   C223      1.0  0.47745  0.10341  0.36934  1.0000
  S   S37       1.0  0.62509  0.34249  0.21084  1.0000
  H   H174      1.0  0.40474  0.31890  0.41649  1.0000
  H   H175      1.0  0.46359  0.34196  0.36186  1.0000
  H   H176      1.0  0.56821  0.12264  0.34267  1.0000
  H   H177      1.0  0.57500  0.37396  0.29294  1.0000
  H   H178      1.0  0.56144  0.35740  0.21285  1.0000
  H   H179      1.0  0.51341  0.36564  0.17602  1.0000
  H   H180      1.0  0.47883  0.39120  0.21979  1.0000
  H   H181      1.0  0.49190  0.40805  0.30030  1.0000
  H   H182      1.0  0.61875  0.42777  0.39380  1.0000
  C   C224      1.0  0.39726  0.03728  0.28044  1.0000
  H   H183      1.0  0.54126  0.28680  0.41245  1.0000
  H   H184      1.0  0.51261  0.32353  0.38686  1.0000
  H   H185      1.0  0.53667  0.47016  0.38268  1.0000
  H   H186      1.0  0.68385  0.47540  0.36095  1.0000
  H   H187      1.0  0.62019  0.45095  0.31134  1.0000
  C   C225      1.0  0.51889  0.07996  0.31436  1.0000
  C   C226      1.0  0.41569  0.15809  0.32241  1.0000
  C   C227      1.0  0.64740  0.30505  0.03798  1.0000
  H   H188      1.0  0.66965  0.42326  0.16360  1.0000
  C   C228      1.0  0.67443  0.34402  0.03541  1.0000
  H   H189      1.0  0.63514  0.28785  0.07217  1.0000
  C   C229      1.0  0.67604  0.47514  0.18457  1.0000
  C   C230      1.0  0.63614  0.28825  0.99614  1.0000
  H   H190      1.0  0.60317  0.25254  0.37564  1.0000
  C   C231      1.0  0.50032  0.40503  0.44189  1.0000
  H   H191      1.0  0.61786  0.02081  0.33131  1.0000
  C   C232      1.0  0.39718  0.05977  0.24137  1.0000
  H   H192      1.0  0.44634  0.13410  0.29172  1.0000
  H   H193      1.0  0.61602  0.13986  0.42979  1.0000
  C   C233      1.0  0.62741  0.09841  0.45953  1.0000
  C   C234      1.0  0.63310  0.01397  0.40048  1.0000
  C   C235      1.0  0.38848  0.04530  0.19823  1.0000
  C   C236      1.0  0.66971  0.24268  0.42654  1.0000
  C   C237      1.0  0.45862  0.07507  0.34007  1.0000
  S   S38       1.0  0.66550  0.29074  0.20650  1.0000
  C   C238      1.0  0.61637  0.47789  0.46549  1.0000
  C   C239      1.0  0.51675  0.12023  0.37043  1.0000
  C   C240      1.0  0.55275  0.01143  0.41529  1.0000
  H   H194      1.0  0.46590  0.04147  0.29003  1.0000
  H   H195      1.0  0.64468  0.10050  0.42737  1.0000
  C   C241      1.0  0.46657  0.39204  0.47263  1.0000
  C   C242      1.0  0.43197  0.36140  0.46313  1.0000
  H   H196      1.0  0.67329  0.28057  0.36830  1.0000
  Fe  Fe19      1.0  0.39965  0.22251  0.45489  1.0000
  H   H197      1.0  0.43425  0.18577  0.30161  1.0000
  Fe  Fe20      1.0  0.67356  0.34385  0.16579  1.0000
  C   C243      1.0  0.67327  0.47440  0.45977  1.0000
  C   C244      1.0  0.42232  0.12861  0.31678  1.0000
  H   H198      1.0  0.60204  0.49263  0.45587  1.0000
  C   C245      1.0  0.61140  0.12106  0.46126  1.0000
  C   C246      1.0  0.66180  0.02976  0.42984  1.0000
  C   C247      1.0  0.53753  0.10872  0.34277  1.0000
  H   H199      1.0  0.46202  0.11322  0.39055  1.0000
  H   H200      1.0  0.61519  0.25812  0.99861  1.0000
  Fe  Fe21      1.0  0.66942  0.37823  0.25628  1.0000
  P   P7        1.0  0.40826  0.05523  0.33674  1.0000
  C   C248      1.0  0.65445  0.25743  0.39600  1.0000
  C   C249      1.0  0.38621  0.15247  0.35616  1.0000
  H   H201      1.0  0.64633  0.46153  0.19984  1.0000
  H   H202      1.0  0.38850  0.06283  0.16822  1.0000
  C   C250      1.0  0.63927  0.03296  0.35496  1.0000
  H   H203      1.0  0.65870  0.01518  0.46437  1.0000
  C   C251      1.0  0.61496  0.24142  0.40004  1.0000
  H   H204      1.0  0.56026  0.19787  0.43480  1.0000
  H   H205      1.0  0.38200  0.17583  0.36150  1.0000
  H   H206      1.0  0.67782  0.08274  0.30479  1.0000
  H   H207      1.0  0.53130  0.14298  0.39172  1.0000
  H   H208      1.0  0.52485  0.04339  0.41304  1.0000
  C   C252      1.0  0.37954  0.01533  0.38237  1.0000
  C   C253      1.0  0.37964  0.00828  0.19377  1.0000
  C   C254      1.0  0.36304  0.11717  0.38393  1.0000
  C   C255      1.0  0.60566  0.19502  0.46513  1.0000
  H   H209      1.0  0.68094  0.18995  0.33003  1.0000
  H   H210      1.0  0.67809  0.34355  0.41578  1.0000
  C   C256      1.0  0.52154  0.01606  0.42363  1.0000
  S   S39       1.0  0.62842  0.33862  0.78022  1.0000
  S   S40       1.0  0.65344  0.27579  0.76607  1.0000
  Fe  Fe22      1.0  0.63003  0.30471  0.72247  1.0000
  S   S41       1.0  0.59082  0.27413  0.66769  1.0000
  C   C257      1.0  0.60435  0.29802  0.52692  1.0000
  S   S42       1.0  0.63627  0.28728  0.89953  1.0000
  C   C258      1.0  0.63981  0.30771  0.54031  1.0000
  Fe  Fe23      1.0  0.39870  0.21700  0.56160  1.0000
  H   H211      1.0  0.36006  0.46407  0.66976  1.0000
  S   S43       1.0  0.42770  0.24227  0.62554  1.0000
  C   C259      1.0  0.37814  0.32168  0.67222  1.0000
  H   H212      1.0  0.66321  0.39033  0.58331  1.0000
  H   H213      1.0  0.58883  0.35461  0.65620  1.0000
  H   H214      1.0  0.43578  0.47913  0.80779  1.0000
  C   C260      1.0  0.54589  0.26676  0.65634  1.0000
  C   C261      1.0  0.52549  0.27812  0.68512  1.0000
  C   C262      1.0  0.48947  0.27068  0.67500  1.0000
  C   C263      1.0  0.47363  0.25207  0.63594  1.0000
  C   C264      1.0  0.49428  0.24118  0.60683  1.0000
  C   C265      1.0  0.53002  0.24824  0.61727  1.0000
  H   H215      1.0  0.53717  0.29211  0.71552  1.0000
  H   H216      1.0  0.47364  0.27908  0.69784  1.0000
  H   H217      1.0  0.48241  0.22676  0.57680  1.0000
  H   H218      1.0  0.54542  0.23909  0.59505  1.0000
  H   H219      1.0  0.60470  0.20675  0.68886  1.0000
  C   C266      1.0  0.62290  0.07462  0.49985  1.0000
  H   H220      1.0  0.54226  0.18691  0.66224  1.0000
  H   H221      1.0  0.58739  0.27148  0.51272  1.0000
  H   H222      1.0  0.65031  0.28871  0.53655  1.0000
  H   H223      1.0  0.59881  0.05481  0.57311  1.0000
  P   P8        1.0  0.57530  0.15366  0.50880  1.0000
  C   C267      1.0  0.59153  0.12071  0.50387  1.0000
  C   C268      1.0  0.58363  0.16956  0.56658  1.0000
  C   C269      1.0  0.55579  0.17149  0.59603  1.0000
  C   C270      1.0  0.56337  0.18449  0.64008  1.0000
  H   H224      1.0  0.43306  0.31259  0.56443  1.0000
  C   C271      1.0  0.62608  0.19303  0.62679  1.0000
  C   C272      1.0  0.61861  0.17985  0.58287  1.0000
  C   C273      1.0  0.58611  0.09578  0.54379  1.0000
  H   H225      1.0  0.46743  0.40491  0.50462  1.0000
  S   S44       1.0  0.38672  0.25194  0.51003  1.0000
  C   C274      1.0  0.37204  0.28863  0.65444  1.0000
  C   C275      1.0  0.52480  0.12988  0.50248  1.0000
  H   H226      1.0  0.63660  0.05828  0.49905  1.0000
  H   H227      1.0  0.56200  0.31292  0.52422  1.0000
  H   H228      1.0  0.60541  0.38220  0.73092  1.0000
  H   H229      1.0  0.44763  0.04109  0.49849  1.0000
  C   C276      1.0  0.64679  0.36503  0.56679  1.0000
  H   H230      1.0  0.56881  0.43512  0.51503  1.0000
  H   H231      1.0  0.35955  0.36108  0.67775  1.0000
  C   C277      1.0  0.60182  0.07289  0.54173  1.0000
  H   H232      1.0  0.41504  0.07753  0.49646  1.0000
  H   H233      1.0  0.52822  0.16322  0.58572  1.0000
  H   H234      1.0  0.51686  0.07381  0.50129  1.0000
  C   C278      1.0  0.59862  0.19567  0.65523  1.0000
  C   C279      1.0  0.48708  0.33253  0.52179  1.0000
  H   H235      1.0  0.64014  0.17732  0.56209  1.0000
  H   H236      1.0  0.57078  0.09491  0.57697  1.0000
  C   C280      1.0  0.61654  0.42663  0.51235  1.0000
  C   C281      1.0  0.61140  0.35584  0.55303  1.0000
  C   C282      1.0  0.46409  0.07163  0.49836  1.0000
  S   S45       1.0  0.41641  0.19169  0.50557  1.0000
  H   H237      1.0  0.63729  0.45164  0.73190  1.0000
  H   H238      1.0  0.67019  0.42858  0.50333  1.0000
  H   H239      1.0  0.40085  0.33601  0.69369  1.0000
  C   C283      1.0  0.48002  0.34032  0.60436  1.0000
  C   C284      1.0  0.51953  0.35818  0.60399  1.0000
  C   C285      1.0  0.54321  0.36391  0.56216  1.0000
  C   C286      1.0  0.46381  0.32753  0.56335  1.0000
  P   P9        1.0  0.59447  0.38805  0.56033  1.0000
  C   C287      1.0  0.59002  0.32180  0.53353  1.0000
  C   C288      1.0  0.60825  0.40863  0.61447  1.0000
  C   C289      1.0  0.62541  0.44807  0.61554  1.0000
  C   C290      1.0  0.63559  0.46344  0.65783  1.0000
  C   C291      1.0  0.62829  0.43963  0.69940  1.0000
  C   C292      1.0  0.61092  0.40045  0.69867  1.0000
  C   C293      1.0  0.60147  0.38499  0.65631  1.0000
  H   H240      1.0  0.37996  0.48121  0.57777  1.0000
  C   C294      1.0  0.52670  0.35135  0.52096  1.0000
  C   C295      1.0  0.66098  0.34125  0.56025  1.0000
  C   C296      1.0  0.65171  0.31004  0.95116  1.0000
  Fe  Fe24      1.0  0.65653  0.31358  0.82164  1.0000
  H   H241      1.0  0.46178  0.33491  0.63703  1.0000
  H   H242      1.0  0.53113  0.36698  0.63656  1.0000
  H   H243      1.0  0.65323  0.20133  0.63878  1.0000
  H   H244      1.0  0.63220  0.46744  0.58382  1.0000
  H   H245      1.0  0.38986  0.27733  0.66224  1.0000
  C   C297      1.0  0.50585  0.15004  0.50219  1.0000
  C   C298      1.0  0.50348  0.09042  0.50035  1.0000
  C   C299      1.0  0.59755  0.44510  0.49867  1.0000
  C   C300      1.0  0.37341  0.50067  0.56001  1.0000
  H   H246      1.0  0.47440  0.32163  0.49029  1.0000
  C   C301      1.0  0.44569  0.09204  0.49753  1.0000
  C   C302      1.0  0.46663  0.13123  0.49922  1.0000
  H   H247      1.0  0.52108  0.18018  0.50553  1.0000
  H   H248      1.0  0.45211  0.14682  0.49944  1.0000
  C   C303      1.0  0.35463  0.33583  0.66295  1.0000
  H   H249      1.0  0.65042  0.49400  0.65799  1.0000
  C   C304      1.0  0.65449  0.44145  0.49244  1.0000
  H   H250      1.0  0.54452  0.35568  0.48842  1.0000
  C   C305      1.0  0.67878  0.34900  0.94861  1.0000
  H   H251      1.0  0.40597  0.35063  0.48750  1.0000
  H   H252      1.0  0.53400  0.85975  0.44464  1.0000
  Fe  Fe25      1.0  0.57072  0.76908  0.42916  1.0000
  S   S46       1.0  0.52164  0.72624  0.39311  1.0000
  C   C306      1.0  0.50441  0.84251  0.46062  1.0000
  C   C307      1.0  0.37687  0.83699  0.45793  1.0000
  H   H253      1.0  0.58300  0.53928  0.36811  1.0000
  S   S47       1.0  0.42568  0.76156  0.25773  1.0000
  C   C308      1.0  0.47565  0.84001  0.43564  1.0000
  H   H254      1.0  0.48342  0.85511  0.40043  1.0000
  C   C309      1.0  0.43843  0.88504  0.36421  1.0000
  H   H255      1.0  0.40525  0.79755  0.32821  1.0000
  C   C310      1.0  0.38066  0.57287  0.39880  1.0000
  C   C311      1.0  0.39212  0.57895  0.34997  1.0000
  H   H256      1.0  0.38835  0.98208  0.30496  1.0000
  C   C312      1.0  0.49388  0.73657  0.35803  1.0000
  C   C313      1.0  0.46434  0.70683  0.33820  1.0000
  C   C314      1.0  0.44270  0.71398  0.30822  1.0000
  C   C315      1.0  0.45040  0.75098  0.29787  1.0000
  C   C316      1.0  0.47909  0.78056  0.31891  1.0000
  C   C317      1.0  0.50078  0.77343  0.34895  1.0000
  H   H257      1.0  0.45875  0.67823  0.34518  1.0000
  H   H258      1.0  0.42081  0.69110  0.29204  1.0000
  H   H259      1.0  0.48500  0.80917  0.31119  1.0000
  H   H260      1.0  0.52329  0.79648  0.36426  1.0000
  H   H261      1.0  0.38912  0.55723  0.42127  1.0000
  C   C318      1.0  0.41880  0.82813  0.32670  1.0000
  H   H262      1.0  0.41085  0.75333  0.41114  1.0000
  C   C319      1.0  0.48216  0.95059  0.46025  1.0000
  C   C320      1.0  0.48623  0.98562  0.44590  1.0000
  S   S48       1.0  0.67577  0.90943  0.40248  1.0000
  C   C321      1.0  0.38199  0.59942  0.31997  1.0000
  C   C322      1.0  0.51327  0.94584  0.45191  1.0000
  H   H263      1.0  0.66946  0.51882  0.42183  1.0000
  S   S49       1.0  0.63406  0.79653  0.40522  1.0000
  C   C323      1.0  0.40550  0.66010  0.46843  1.0000
  H   H264      1.0  0.46804  0.93798  0.31734  1.0000
  H   H265      1.0  0.43321  0.83680  0.25103  1.0000
  C   C324      1.0  0.42025  0.84523  0.36785  1.0000
  H   H266      1.0  0.52447  0.92424  0.36603  1.0000
  H   H267      1.0  0.63979  0.94997  0.37039  1.0000
  C   C325      1.0  0.45436  0.90732  0.32000  1.0000
  C   C326      1.0  0.37321  0.97640  0.45422  1.0000
  C   C327      1.0  0.59129  0.51979  0.35672  1.0000
  C   C328      1.0  0.58232  0.93930  0.37420  1.0000
  C   C329      1.0  0.35870  0.58710  0.41776  1.0000
  C   C330      1.0  0.54876  0.97612  0.42900  1.0000
  H   H268      1.0  0.46461  0.90707  0.24480  1.0000
  H   H269      1.0  0.45362  0.71789  0.46038  1.0000
  S   S50       1.0  0.57662  0.82152  0.45487  1.0000
  C   C331      1.0  0.54281  0.89561  0.32150  1.0000
  H   H270      1.0  0.66603  0.51990  0.29655  1.0000
  C   C332      1.0  0.62788  0.53414  0.33250  1.0000
  Fe  Fe26      1.0  0.64008  0.84773  0.43752  1.0000
  S   S51       1.0  0.37561  0.67126  0.18399  1.0000
  H   H271      1.0  0.51588  0.88041  0.30742  1.0000
  H   H272      1.0  0.43998  0.89877  0.39550  1.0000
  H   H273      1.0  0.37248  0.95685  0.22906  1.0000
  P   P10       1.0  0.40027  0.81687  0.42528  1.0000
  Fe  Fe27      1.0  0.37587  0.71491  0.22664  1.0000
  H   H274      1.0  0.60714  0.91028  0.44682  1.0000
  H   H275      1.0  0.37430  0.78785  0.06162  1.0000
  H   H276      1.0  0.56811  0.86980  0.28164  1.0000
  C   C333      1.0  0.45243  0.88999  0.27916  1.0000
  H   H277      1.0  0.64803  0.56464  0.32556  1.0000
  C   C334      1.0  0.43473  0.85045  0.28258  1.0000
  C   C335      1.0  0.61246  0.93480  0.35718  1.0000
  C   C336      1.0  0.35674  0.70700  0.39877  1.0000
  C   C337      1.0  0.60726  0.90965  0.32422  1.0000
  C   C338      1.0  0.43724  0.81774  0.45587  1.0000
  H   H278      1.0  0.63028  0.90518  0.31298  1.0000
  H   H279      1.0  0.41013  0.65789  0.43130  1.0000
  C   C339      1.0  0.38102  0.74369  0.40981  1.0000
  C   C340      1.0  0.57232  0.88977  0.30667  1.0000
  C   C341      1.0  0.54778  0.92039  0.35502  1.0000
  P   P11       1.0  0.58881  0.96945  0.41993  1.0000
  Fe  Fe28      1.0  0.63699  0.77546  0.47874  1.0000
  H   H280      1.0  0.40900  0.56798  0.33527  1.0000
  H   H281      1.0  0.39063  0.60406  0.28206  1.0000
  H   H282      1.0  0.50977  0.91859  0.46358  1.0000
  H   H283      1.0  0.46210  0.98924  0.45234  1.0000
  C   C342      1.0  0.36731  0.76813  0.41656  1.0000
  C   C343      1.0  0.60018  0.91961  0.47836  1.0000
  H   H284      1.0  0.37270  0.99706  0.16039  1.0000
  C   C344      1.0  0.59076  0.94776  0.47603  1.0000
  C   C345      1.0  0.37962  0.98569  0.23241  1.0000
  H   H285      1.0  0.36805  0.68901  0.39195  1.0000
  C   C346      1.0  0.38850  0.00011  0.27550  1.0000
  S   S52       1.0  0.36190  0.69108  0.05481  1.0000
  C   C347      1.0  0.37266  0.79034  0.98624  1.0000
  C   C348      1.0  0.36010  0.61350  0.33869  1.0000
  H   H286      1.0  0.45490  0.92707  0.47802  1.0000
  C   C349      1.0  0.39591  0.00777  0.41953  1.0000
  C   C350      1.0  0.63811  0.50912  0.31629  1.0000
  H   H287      1.0  0.38562  0.97073  0.48324  1.0000
  C   C351      1.0  0.35672  0.77669  0.03368  1.0000
  C   C352      1.0  0.43048  0.69447  0.48478  1.0000
  Fe  Fe29      1.0  0.58362  0.79928  0.52464  1.0000
  S   S53       1.0  0.55477  0.80608  0.59086  1.0000
  C   C353      1.0  0.35582  0.68395  0.96064  1.0000
  H   H288      1.0  0.41187  0.58317  0.61564  1.0000
  S   S54       1.0  0.40483  0.65782  0.69551  1.0000
  C   C354      1.0  0.42848  0.75220  0.81107  1.0000
  C   C355      1.0  0.44940  0.74688  0.84351  1.0000
  C   C356      1.0  0.68601  0.80040  0.59755  1.0000
  H   H289      1.0  0.44591  0.84937  0.83237  1.0000
  H   H290      1.0  0.46342  0.75173  0.91469  1.0000
  H   H291      1.0  0.43004  0.74513  0.77546  1.0000
  H   H292      1.0  0.42243  0.77600  0.93904  1.0000
  C   C357      1.0  0.51176  0.76483  0.61713  1.0000
  C   C358      1.0  0.50560  0.72875  0.61263  1.0000
  C   C359      1.0  0.47242  0.69618  0.63640  1.0000
  C   C360      1.0  0.44475  0.69937  0.66397  1.0000
  C   C361      1.0  0.45011  0.73536  0.66712  1.0000
  C   C362      1.0  0.48393  0.76811  0.64437  1.0000
  H   H293      1.0  0.52698  0.72590  0.59217  1.0000
  H   H294      1.0  0.46832  0.66846  0.63349  1.0000
  H   H295      1.0  0.42869  0.73800  0.68795  1.0000
  H   H296      1.0  0.48853  0.79601  0.64784  1.0000
  C   C363      1.0  0.48496  0.52569  0.83137  1.0000
  H   H297      1.0  0.39808  0.77739  0.51580  1.0000
  C   C364      1.0  0.38113  0.61123  0.82327  1.0000
  C   C365      1.0  0.50440  0.56443  0.83634  1.0000
  H   H298      1.0  0.37601  0.61607  0.78768  1.0000
  C   C366      1.0  0.60055  0.90267  0.52218  1.0000
  P   P12       1.0  0.43721  0.59945  0.78139  1.0000
  C   C367      1.0  0.40940  0.60288  0.83104  1.0000
  C   C368      1.0  0.45586  0.57049  0.80074  1.0000
  C   C369      1.0  0.48990  0.58676  0.82121  1.0000
  C   C370      1.0  0.37635  0.62904  0.50019  1.0000
  H   H299      1.0  0.51733  0.82460  0.52537  1.0000
  C   C371      1.0  0.42319  0.58831  0.68781  1.0000
  C   C372      1.0  0.38282  0.84461  0.50475  1.0000
  C   C373      1.0  0.41594  0.59767  0.87769  1.0000
  C   C374      1.0  0.45091  0.50921  0.81142  1.0000
  C   C375      1.0  0.39976  0.57343  0.65254  1.0000
  H   H300      1.0  0.49625  0.50841  0.84310  1.0000
  C   C376      1.0  0.36451  0.86028  0.52908  1.0000
  C   C377      1.0  0.47661  0.64677  0.75768  1.0000
  C   C378      1.0  0.47482  0.67908  0.76496  1.0000
  C   C379      1.0  0.50476  0.71537  0.74489  1.0000
  C   C380      1.0  0.53669  0.71972  0.71739  1.0000
  C   C381      1.0  0.53888  0.68781  0.71016  1.0000
  C   C382      1.0  0.50903  0.65149  0.73027  1.0000
  H   H301      1.0  0.39993  0.91907  0.92394  1.0000
  H   H302      1.0  0.53074  0.57716  0.85197  1.0000
  H   H303      1.0  0.35533  0.54205  0.78459  1.0000
  C   C383      1.0  0.45664  0.79900  0.52562  1.0000
  H   H304      1.0  0.45322  0.60902  0.67729  1.0000
  H   H305      1.0  0.50516  0.61670  0.82567  1.0000
  H   H306      1.0  0.44939  0.78318  0.56059  1.0000
  C   C384      1.0  0.40740  0.57819  0.73576  1.0000
  C   C385      1.0  0.44740  0.75605  0.88934  1.0000
  H   H307      1.0  0.43776  0.59167  0.88490  1.0000
  C   C386      1.0  0.45758  0.90394  0.84853  1.0000
  C   C387      1.0  0.59207  0.91394  0.56398  1.0000
  H   H308      1.0  0.44969  0.67633  0.78435  1.0000
  H   H309      1.0  0.50245  0.73998  0.74882  1.0000
  H   H310      1.0  0.55911  0.74771  0.70042  1.0000
  H   H311      1.0  0.56330  0.69118  0.68798  1.0000
  H   H312      1.0  0.51085  0.62701  0.72343  1.0000
  C   C388      1.0  0.37308  0.63296  0.54841  1.0000
  H   H313      1.0  0.62726  0.75957  0.62566  1.0000
  H   H314      1.0  0.46707  0.73557  0.83322  1.0000
  H   H315      1.0  0.61365  0.80842  0.64962  1.0000
  H   H316      1.0  0.44640  0.72445  0.54564  1.0000
  C   C389      1.0  0.42644  0.69823  0.53270  1.0000
  H   H317      1.0  0.40099  0.83818  0.52323  1.0000
  C   C390      1.0  0.64981  0.78937  0.62037  1.0000
  H   H318      1.0  0.48440  0.91946  0.82498  1.0000
  S   S55       1.0  0.64750  0.82867  0.50893  1.0000
  C   C391      1.0  0.44478  0.92372  0.87424  1.0000
  C   C392      1.0  0.39733  0.66771  0.56424  1.0000
  C   C393      1.0  0.39417  0.60029  0.91579  1.0000
  C   C394      1.0  0.42397  0.76991  0.90308  1.0000
  H   H319      1.0  0.38665  0.69964  0.95650  1.0000
  C   C395      1.0  0.42775  0.79598  0.50029  1.0000
  C   C396      1.0  0.43573  0.86414  0.85299  1.0000
  H   H320      1.0  0.40984  0.51813  0.78105  1.0000
  C   C397      1.0  0.40300  0.53662  0.53863  1.0000
  H   H321      1.0  0.59211  0.90033  0.59776  1.0000
  H   H322      1.0  0.60755  0.88074  0.52378  1.0000
  S   S56       1.0  0.66412  0.74245  0.50515  1.0000
  H   H323      1.0  0.66426  0.87678  0.63315  1.0000
  C   C398      1.0  0.67068  0.85546  0.62429  1.0000
  C   C399      1.0  0.58373  0.94268  0.56206  1.0000
  H   H324      1.0  0.39391  0.67066  0.60125  1.0000
  C   C400      1.0  0.64213  0.81687  0.63371  1.0000
  C   C401      1.0  0.39456  0.56165  0.51525  1.0000
  H   H325      1.0  0.36822  0.86486  0.56565  1.0000
  H   H326      1.0  0.43255  0.54518  0.54005  1.0000
  H   H327      1.0  0.38955  0.77052  0.79868  1.0000
  C   C402      1.0  0.58328  0.95970  0.51828  1.0000
  H   H328      1.0  0.57762  0.95172  0.59454  1.0000
  C   C403      1.0  0.41000  0.90373  0.90427  1.0000
  H   H329      1.0  0.46173  0.95456  0.87073  1.0000
  H   H330      1.0  0.39935  0.59639  0.95172  1.0000
  S   S57       1.0  0.57334  0.74489  0.50058  1.0000
  C   C404      1.0  0.40520  0.76628  0.82461  1.0000
  C   C405      1.0  0.36057  0.54751  0.66485  1.0000
  C   C406      1.0  0.40212  0.77455  0.87109  1.0000
  H   H331      1.0  0.41784  0.58948  0.49880  1.0000
  C   C407      1.0  0.49497  0.82244  0.50588  1.0000
  C   C408      1.0  0.43633  0.53147  0.79621  1.0000
  C   C409      1.0  0.40107  0.84386  0.88371  1.0000
  H   H332      1.0  0.57689  0.98202  0.51744  1.0000
  C   C410      1.0  0.36817  0.55092  0.74789  1.0000
  C   C411      1.0  0.36570  0.60797  0.90765  1.0000
  C   C412      1.0  0.35918  0.61340  0.86141  1.0000
  C   C413      1.0  0.35640  0.55065  0.51237  1.0000
  H   H333      1.0  0.68185  0.91617  0.50335  1.0000
  C   C414      1.0  0.38809  0.86395  0.90882  1.0000
  P   P13       1.0  0.37181  0.79263  0.88844  1.0000
  H   H334      1.0  0.40246  0.81284  0.97814  1.0000
  H   H335      1.0  0.36095  0.84885  0.93182  1.0000
  H   H336      1.0  0.70024  0.25425  0.42222  1.0000
  S   S58       1.0  0.80575  0.15645  0.42948  1.0000
  H   H337      1.0  0.72253  0.32186  0.43094  1.0000
  H   H338      1.0  0.75393  0.04648  0.41453  1.0000
  Fe  Fe30      1.0  0.76239  0.17360  0.44353  1.0000
  S   S59       1.0  0.72296  0.17404  0.39300  1.0000
  H   H339      1.0  0.70230  0.40543  0.36671  1.0000
  H   H340      1.0  0.89121  0.33574  0.33649  1.0000
  C   C415      1.0  0.86092  0.47433  0.37472  1.0000
  H   H341      1.0  0.79024  0.36090  0.39736  1.0000
  H   H342      1.0  0.89010  0.36504  0.40887  1.0000
  C   C416      1.0  0.92450  0.42418  0.48484  1.0000
  H   H343      1.0  0.91546  0.47889  0.35769  1.0000
  H   H344      1.0  0.96079  0.34610  0.44506  1.0000
  S   S60       1.0  0.75364  0.32886  0.28602  1.0000
  S   S61       1.0  0.71795  0.38289  0.20945  1.0000
  H   H345      1.0  0.84551  0.39478  0.26530  1.0000
  C   C417      1.0  0.86859  0.49685  0.26531  1.0000
  S   S62       1.0  0.90313  0.24693  0.45438  1.0000
  C   C418      1.0  0.73190  0.21739  0.36383  1.0000
  H   H346      1.0  0.69207  0.25012  0.28802  1.0000
  C   C419      1.0  0.71214  0.25086  0.31076  1.0000
  C   C420      1.0  0.74450  0.28569  0.31606  1.0000
  C   C421      1.0  0.77032  0.28629  0.34568  1.0000
  C   C422      1.0  0.76405  0.25227  0.36959  1.0000
  Fe  Fe31      1.0  0.70561  0.32977  0.25367  1.0000
  H   H347      1.0  0.81294  0.48113  0.39373  1.0000
  H   H348      1.0  0.79530  0.31311  0.35000  1.0000
  H   H349      1.0  0.78427  0.25298  0.39198  1.0000
  C   C423      1.0  0.90035  0.49041  0.37581  1.0000
  H   H350      1.0  0.86673  0.40936  0.41002  1.0000
  H   H351      1.0  0.74936  0.46500  0.24530  1.0000
  C   C424      1.0  0.70593  0.21682  0.33451  1.0000
  C   C425      1.0  0.74782  0.47943  0.27476  1.0000
  H   H352      1.0  0.73249  0.43368  0.45543  1.0000
  C   C426      1.0  0.71101  0.48527  0.34008  1.0000
  C   C427      1.0  0.71258  0.46607  0.30230  1.0000
  H   H353      1.0  0.84773  0.50642  0.15430  1.0000
  C   C428      1.0  0.72757  0.47048  0.14578  1.0000
  C   C429      1.0  0.75449  0.44364  0.47839  1.0000
  H   H354      1.0  0.77068  0.44603  0.33518  1.0000
  H   H355      1.0  0.86889  0.35093  0.26490  1.0000
  C   C430      1.0  0.81679  0.45530  0.20411  1.0000
  C   C431      1.0  0.81351  0.43820  0.24965  1.0000
  C   C432      1.0  0.83937  0.45883  0.28072  1.0000
  H   H356      1.0  0.72748  0.11096  0.35791  1.0000
  P   P14       1.0  0.83570  0.43644  0.33928  1.0000
  C   C433      1.0  0.70816  0.36144  0.40203  1.0000
  C   C434      1.0  0.78590  0.40711  0.36455  1.0000
  C   C435      1.0  0.76050  0.41913  0.35625  1.0000
  C   C436      1.0  0.72179  0.39630  0.37457  1.0000
  C   C437      1.0  0.84555  0.49321  0.18941  1.0000
  C   C438      1.0  0.73320  0.34918  0.41052  1.0000
  C   C439      1.0  0.77185  0.37175  0.39168  1.0000
  C   C440      1.0  0.68999  0.36581  0.99044  1.0000
  C   C441      1.0  0.69547  0.06481  0.41456  1.0000
  C   C442      1.0  0.85593  0.40676  0.33709  1.0000
  C   C443      1.0  0.85648  0.38982  0.29637  1.0000
  C   C444      1.0  0.86961  0.36469  0.29607  1.0000
  C   C445      1.0  0.88198  0.35601  0.33650  1.0000
  C   C446      1.0  0.88132  0.37254  0.37730  1.0000
  C   C447      1.0  0.86829  0.39777  0.37769  1.0000
  H   H357      1.0  0.98267  0.29781  0.42079  1.0000
  H   H358      1.0  0.71755  0.07696  0.43735  1.0000
  H   H359      1.0  0.79705  0.43911  0.18008  1.0000
  H   H360      1.0  0.79084  0.40886  0.26055  1.0000
  C   C448      1.0  0.98092  0.28234  0.45388  1.0000
  C   C449      1.0  0.73526  0.01375  0.48354  1.0000
  C   C450      1.0  0.68917  0.45341  0.16455  1.0000
  C   C451      1.0  0.84273  0.49147  0.39595  1.0000
  H   H361      1.0  0.93847  0.48153  0.46507  1.0000
  H   H362      1.0  0.70308  0.48661  0.44644  1.0000
  H   H363      1.0  0.95193  0.42956  0.46898  1.0000
  H   H364      1.0  0.73741  0.45335  0.13010  1.0000
  C   C452      1.0  0.73750  0.01825  0.43419  1.0000
  Fe  Fe32      1.0  0.83995  0.20066  0.47684  1.0000
  C   C453      1.0  0.94483  0.25344  0.47716  1.0000
  C   C454      1.0  0.98719  0.36449  0.45902  1.0000
  C   C455      1.0  0.70120  0.08383  0.36959  1.0000
  H   H365      1.0  0.76075  0.49878  0.47812  1.0000
  H   H366      1.0  0.71089  0.39596  0.98789  1.0000
  C   C456      1.0  0.01473  0.29180  0.47321  1.0000
  S   S63       1.0  0.68971  0.36708  0.08688  1.0000
  C   C457      1.0  0.91680  0.45340  0.48237  1.0000
  H   H367      1.0  0.79638  0.35030  0.48111  1.0000
  H   H368      1.0  0.74981  0.28211  0.47911  1.0000
  Fe  Fe33      1.0  0.76954  0.17546  0.54846  1.0000
  S   S64       1.0  0.73694  0.17594  0.61568  1.0000
  C   C458      1.0  0.71427  0.29237  0.58484  1.0000
  S   S65       1.0  0.81364  0.15880  0.54336  1.0000
  C   C459      1.0  0.77154  0.35192  0.55001  1.0000
  H   H369      1.0  0.69103  0.36620  0.91442  1.0000
  C   C460      1.0  0.79818  0.49312  0.52147  1.0000
  S   S66       1.0  0.76292  0.32286  0.70266  1.0000
  S   S67       1.0  0.71654  0.36036  0.79263  1.0000
  H   H370      1.0  0.98778  0.34514  0.66324  1.0000
  C   C461      1.0  0.77451  0.17288  0.78381  1.0000
  C   C462      1.0  0.74428  0.21771  0.63732  1.0000
  S   S68       1.0  0.71297  0.44688  0.73776  1.0000
  C   C463      1.0  0.72233  0.24670  0.69298  1.0000
  C   C464      1.0  0.75454  0.28248  0.67640  1.0000
  C   C465      1.0  0.78166  0.28588  0.64012  1.0000
  C   C466      1.0  0.77610  0.25365  0.61978  1.0000
  H   H371      1.0  0.70171  0.24378  0.72151  1.0000
  C   C467      1.0  0.75387  0.18519  0.81044  1.0000
  H   H372      1.0  0.80665  0.31355  0.62742  1.0000
  H   H373      1.0  0.79660  0.25649  0.59120  1.0000
  H   H374      1.0  0.84105  0.35335  0.54792  1.0000
  C   C468      1.0  0.94307  0.23252  0.51892  1.0000
  H   H375      1.0  0.91558  0.20988  0.53702  1.0000
  H   H376      1.0  0.91208  0.21492  0.83676  1.0000
  H   H377      1.0  0.80497  0.07949  0.61205  1.0000
  C   C469      1.0  0.71198  0.45173  0.64112  1.0000
  C   C470      1.0  0.72282  0.47141  0.68035  1.0000
  C   C471      1.0  0.71745  0.27482  0.54619  1.0000
  Fe  Fe34      1.0  0.71158  0.32461  0.73459  1.0000
  C   C472      1.0  0.79205  0.09125  0.63417  1.0000
  C   C473      1.0  0.81748  0.42540  0.70869  1.0000
  C   C474      1.0  0.97691  0.24196  0.53834  1.0000
  C   C475      1.0  0.74141  0.33064  0.58695  1.0000
  H   H378      1.0  0.73909  0.34317  0.61798  1.0000
  H   H379      1.0  0.73539  0.05292  0.61786  1.0000
  H   H380      1.0  0.73336  0.16686  0.84087  1.0000
  C   C476      1.0  0.97285  0.37822  0.61755  1.0000
  H   H381      1.0  0.83195  0.47999  0.56261  1.0000
  C   C477      1.0  0.98609  0.37276  0.50553  1.0000
  C   C478      1.0  0.89684  0.38807  0.50798  1.0000
  H   H382      1.0  0.81922  0.43072  0.74528  1.0000
  C   C479      1.0  0.96561  0.35028  0.65467  1.0000
  C   C480      1.0  0.92935  0.32862  0.68150  1.0000
  C   C481      1.0  0.90001  0.33436  0.67116  1.0000
  C   C482      1.0  0.90693  0.36191  0.63421  1.0000
  C   C483      1.0  0.94331  0.38419  0.60793  1.0000
  H   H383      1.0  0.90259  0.36526  0.51000  1.0000
  H   H384      1.0  0.77000  0.14503  0.79423  1.0000
  H   H385      1.0  0.69869  0.42123  0.64552  1.0000
  Fe  Fe35      1.0  0.77642  0.11566  0.49690  1.0000
  H   H386      1.0  0.76772  0.42929  0.70523  1.0000
  H   H387      1.0  0.70590  0.08197  0.66442  1.0000
  H   H388      1.0  0.79057  0.27291  0.74923  1.0000
  H   H389      1.0  0.95861  0.36089  0.52669  1.0000
  H   H390      1.0  0.74361  0.23083  0.81826  1.0000
  H   H391      1.0  0.74528  0.13661  0.70553  1.0000
  H   H392      1.0  0.69344  0.18653  0.68844  1.0000
  H   H393      1.0  0.92391  0.30717  0.71016  1.0000
  H   H394      1.0  0.87193  0.31770  0.69193  1.0000
  H   H395      1.0  0.88397  0.36598  0.62634  1.0000
  H   H396      1.0  0.94847  0.40607  0.58010  1.0000
  C   C484      1.0  0.86684  0.12787  0.79846  1.0000
  H   H397      1.0  0.86199  0.40691  0.61898  1.0000
  C   C485      1.0  0.84400  0.41904  0.68423  1.0000
  S   S69       1.0  0.73094  0.12979  0.50719  1.0000
  C   C486      1.0  0.85334  0.41022  0.52563  1.0000
  S   S70       1.0  0.68837  0.35108  0.68749  1.0000
  C   C487      1.0  0.71775  0.21434  0.67424  1.0000
  C   C488      1.0  0.89441  0.19260  0.81625  1.0000
  C   C489      1.0  0.87573  0.19957  0.78184  1.0000
  C   C490      1.0  0.85280  0.17084  0.75507  1.0000
  C   C491      1.0  0.84809  0.13473  0.76404  1.0000
  P   P15       1.0  0.82847  0.18062  0.71163  1.0000
  C   C492      1.0  0.80060  0.19629  0.74382  1.0000
  C   C493      1.0  0.86210  0.21632  0.66389  1.0000
  C   C494      1.0  0.84823  0.22649  0.62591  1.0000
  C   C495      1.0  0.87356  0.25368  0.58821  1.0000
  C   C496      1.0  0.91295  0.27069  0.58797  1.0000
  C   C497      1.0  0.92705  0.26000  0.62497  1.0000
  C   C498      1.0  0.90178  0.23287  0.66283  1.0000
  C   C499      1.0  0.80622  0.23243  0.73143  1.0000
  C   C500      1.0  0.78615  0.24495  0.75874  1.0000
  C   C501      1.0  0.78494  0.41632  0.63953  1.0000
  H   H398      1.0  0.86317  0.09999  0.80518  1.0000
  C   C502      1.0  0.75969  0.22123  0.79788  1.0000
  C   C503      1.0  0.79825  0.13881  0.68434  1.0000
  C   C504      1.0  0.01288  0.27201  0.51599  1.0000
  H   H399      1.0  0.90446  0.15138  0.85123  1.0000
  S   S71       1.0  0.75823  0.05321  0.51603  1.0000
  H   H400      1.0  0.76177  0.41538  0.62302  1.0000
  C   C505      1.0  0.81484  0.12268  0.65714  1.0000
  C   C506      1.0  0.75869  0.12359  0.68720  1.0000
  H   H401      1.0  0.70557  0.45567  0.56729  1.0000
  H   H402      1.0  0.87903  0.22735  0.77615  1.0000
  C   C507      1.0  0.75272  0.07627  0.63729  1.0000
  H   H403      1.0  0.81772  0.21287  0.62523  1.0000
  H   H404      1.0  0.86262  0.26063  0.55840  1.0000
  H   H405      1.0  0.93252  0.29082  0.55799  1.0000
  H   H406      1.0  0.95762  0.27212  0.62355  1.0000
  H   H407      1.0  0.91340  0.22447  0.69039  1.0000
  H   H408      1.0  0.82583  0.25101  0.70078  1.0000
  C   C508      1.0  0.84106  0.41138  0.63731  1.0000
  C   C509      1.0  0.78822  0.42435  0.68619  1.0000
  H   H409      1.0  0.97514  0.22614  0.57117  1.0000
  C   C510      1.0  0.79459  0.43247  0.52651  1.0000
  H   H410      1.0  0.82972  0.11164  0.74512  1.0000
  C   C511      1.0  0.86170  0.38127  0.52896  1.0000
  C   C512      1.0  0.73609  0.09249  0.66369  1.0000
  H   H411      1.0  0.86644  0.41953  0.70195  1.0000
  H   H412      1.0  0.84551  0.13494  0.65277  1.0000
  H   H413      1.0  0.68791  0.34846  0.57202  1.0000
  C   C513      1.0  0.89006  0.15680  0.82446  1.0000
  C   C514      1.0  0.81071  0.46960  0.53853  1.0000
  C   C515      1.0  0.71580  0.47125  0.59686  1.0000
  P   P16       1.0  0.80785  0.40094  0.55357  1.0000
  C   C516      1.0  0.88123  0.44643  0.50228  1.0000
  C   C517      1.0  0.81125  0.40954  0.61472  1.0000
  C   C518      1.0  0.77367  0.33443  0.51037  1.0000
  H   H414      1.0  0.69149  0.27614  0.61415  1.0000
  H   H415      1.0  0.69736  0.24480  0.54558  1.0000
  C   C519      1.0  0.74710  0.29586  0.50887  1.0000
  H   H416      1.0  0.01565  0.45213  0.65642  1.0000
  H   H417      1.0  0.87575  0.46938  0.49973  1.0000
  P   P17       1.0  0.01987  0.40766  0.58369  1.0000
  Fe  Fe36      1.0  0.68869  0.38312  0.74745  1.0000
  C   C520      1.0  0.76648  0.41969  0.49608  1.0000
  C   C521      1.0  0.77036  0.48033  0.49107  1.0000
  C   C522      1.0  0.02024  0.39526  0.52431  1.0000
  S   S72       1.0  0.79807  0.22054  0.48559  1.0000
  H   H418      1.0  0.75312  0.39107  0.48693  1.0000
  C   C523      1.0  0.00382  0.87958  0.38261  1.0000
  S   S73       1.0  0.85085  0.66570  0.39913  1.0000
  C   C524      1.0  0.74691  0.71160  0.43222  1.0000
  C   C525      1.0  0.84276  0.59563  0.12507  1.0000
  Fe  Fe37      1.0  0.81578  0.60228  0.39666  1.0000
  S   S74       1.0  0.82131  0.57165  0.33611  1.0000
  S   S75       1.0  0.76078  0.59718  0.42449  1.0000
  H   H419      1.0  0.71515  0.55919  0.09764  1.0000
  H   H420      1.0  0.97349  0.74596  0.29203  1.0000
  H   H421      1.0  0.72747  0.57645  0.33234  1.0000
  C   C526      1.0  0.73761  0.86174  0.41767  1.0000
  C   C527      1.0  0.88020  0.60416  0.12657  1.0000
  H   H422      1.0  0.97410  0.94208  0.39527  1.0000
  H   H423      1.0  0.92454  0.61716  0.17049  1.0000
  C   C528      1.0  0.96836  0.70076  0.43127  1.0000
  H   H424      1.0  0.94540  0.68958  0.40973  1.0000
  C   C529      1.0  0.77956  0.53048  0.32393  1.0000
  C   C530      1.0  0.86344  0.52372  0.41841  1.0000
  H   H425      1.0  0.73989  0.55016  0.26295  1.0000
  P   P18       1.0  0.77198  0.58247  0.16444  1.0000
  H   H426      1.0  0.92600  0.82235  0.37335  1.0000
  C   C531      1.0  0.87150  0.51391  0.21997  1.0000
  Fe  Fe38      1.0  0.79588  0.65917  0.43319  1.0000
  H   H427      1.0  0.77645  0.95490  0.43254  1.0000
  S   S76       1.0  0.78032  0.70164  0.40410  1.0000
  C   C532      1.0  0.78121  0.51167  0.28549  1.0000
  S   S77       1.0  0.82782  0.58800  0.46765  1.0000
  C   C533      1.0  0.80045  0.66041  0.04826  1.0000
  C   C534      1.0  0.75829  0.65232  0.24872  1.0000
  H   H428      1.0  0.72824  0.81746  0.47067  1.0000
  H   H429      1.0  0.89388  0.54326  0.20865  1.0000
  H   H430      1.0  0.84935  0.53735  0.43337  1.0000
  C   C535      1.0  0.89551  0.61044  0.16928  1.0000
  H   H431      1.0  0.80831  0.52200  0.26397  1.0000
  C   C536      1.0  0.83590  0.59947  0.20909  1.0000
  C   C537      1.0  0.82043  0.59363  0.16630  1.0000
  C   C538      1.0  0.77055  0.60581  0.10951  1.0000
  H   H432      1.0  0.82419  0.68867  0.03421  1.0000
  H   H433      1.0  0.96236  0.88078  0.43294  1.0000
  H   H434      1.0  0.82565  0.65722  0.10992  1.0000
  H   H435      1.0  0.76406  0.68115  0.24527  1.0000
  C   C539      1.0  0.69551  0.73064  0.47544  1.0000
  C   C540      1.0  0.71367  0.74658  0.42912  1.0000
  C   C541      1.0  0.76919  0.64189  0.02344  1.0000
  C   C542      1.0  0.73939  0.73726  0.40780  1.0000
  C   C543      1.0  0.98293  0.78471  0.34332  1.0000
  C   C544      1.0  0.94501  0.80361  0.43216  1.0000
  C   C545      1.0  0.80119  0.64247  0.09111  1.0000
  H   H436      1.0  0.95294  0.77531  0.34987  1.0000
  C   C546      1.0  0.75875  0.60049  0.21380  1.0000
  C   C547      1.0  0.74464  0.63033  0.29311  1.0000
  H   H437      1.0  0.74273  0.53127  0.38060  1.0000
  H   H438      1.0  0.88461  0.61201  0.24407  1.0000
  H   H439      1.0  0.72395  0.84237  0.39209  1.0000
  H   H440      1.0  0.81936  0.59770  0.24156  1.0000
  C   C548      1.0  0.73915  0.58746  0.08445  1.0000
  H   H441      1.0  0.91848  0.56499  0.43630  1.0000
  P   P19       1.0  0.99534  0.83481  0.41042  1.0000
  C   C549      1.0  0.96004  0.69887  0.48013  1.0000
  C   C550      1.0  0.73752  0.59332  0.29784  1.0000
  H   H442      1.0  0.83645  0.73241  0.47397  1.0000
  C   C551      1.0  0.87322  0.60778  0.21058  1.0000
  C   C552      1.0  0.73856  0.60545  0.04154  1.0000
  H   H443      1.0  0.77674  0.65551  0.17553  1.0000
  H   H444      1.0  0.70807  0.76621  0.40985  1.0000
  H   H445      1.0  0.69033  0.53057  0.20016  1.0000
  C   C553      1.0  0.74452  0.57847  0.25842  1.0000
  H   H446      1.0  0.83123  0.59060  0.09175  1.0000
  C   C554      1.0  0.69844  0.94904  0.43467  1.0000
  Fe  Fe39      1.0  0.85834  0.65068  0.47292  1.0000
  C   C555      1.0  0.74004  0.53154  0.16679  1.0000
  C   C556      1.0  0.87843  0.77806  0.42142  1.0000
  C   C557      1.0  0.00658  0.71746  0.41018  1.0000
  C   C558      1.0  0.92100  0.52285  0.39821  1.0000
  C   C559      1.0  0.86666  0.75255  0.46268  1.0000
  C   C560      1.0  0.71892  0.98610  0.41000  1.0000
  H   H447      1.0  0.78250  0.52182  0.13204  1.0000
  C   C561      1.0  0.91743  0.80346  0.40609  1.0000
  C   C562      1.0  0.76743  0.92519  0.44043  1.0000
  C   C563      1.0  0.76540  0.63757  0.20919  1.0000
  C   C564      1.0  0.98343  0.89539  0.40169  1.0000
  C   C565      1.0  0.90249  0.53940  0.41970  1.0000
  H   H448      1.0  0.74021  0.64222  0.32400  1.0000
  H   H449      1.0  0.74831  0.91113  0.37268  1.0000
  C   C566      1.0  0.75146  0.90049  0.40667  1.0000
  H   H450      1.0  0.75347  0.74995  0.37210  1.0000
  C   C567      1.0  0.74021  0.84773  0.46219  1.0000
  H   H451      1.0  0.95156  0.53578  0.39790  1.0000
  C   C568      1.0  0.99017  0.93022  0.38061  1.0000
  H   H452      1.0  0.72071  0.99002  0.37187  1.0000
  C   C569      1.0  0.74433  0.51691  0.35126  1.0000
  H   H453      1.0  0.89736  0.60590  0.09460  1.0000
  H   H454      1.0  0.85714  0.77735  0.40080  1.0000
  H   H455      1.0  0.71438  0.59101  0.02220  1.0000
  H   H456      1.0  0.80812  0.78076  0.47521  1.0000
  C   C570      1.0  0.93291  0.77726  0.47306  1.0000
  C   C571      1.0  0.72846  0.69539  0.47835  1.0000
  H   H457      1.0  0.79540  0.83255  0.47739  1.0000
  H   H458      1.0  0.88903  0.51372  0.28815  1.0000
  H   H459      1.0  0.01272  0.71869  0.37243  1.0000
  C   C572      1.0  0.99448  0.76798  0.31025  1.0000
  C   C573      1.0  0.70125  0.51411  0.18539  1.0000
  C   C574      1.0  0.77023  0.91129  0.48493  1.0000
  C   C575      1.0  0.00982  0.81261  0.36800  1.0000
  C   C576      1.0  0.69694  0.94447  0.48391  1.0000
  C   C577      1.0  0.01739  0.94959  0.34047  1.0000
  C   C578      1.0  0.75300  0.50934  0.14702  1.0000
  H   H460      1.0  0.76870  0.65571  0.99011  1.0000
  C   C579      1.0  0.79909  0.89066  0.57955  1.0000
  C   C580      1.0  0.79502  0.89335  0.62813  1.0000
  H   H461      1.0  0.82218  0.92366  0.68551  1.0000
  H   H462      1.0  0.74811  0.52655  0.70452  1.0000
  H   H463      1.0  0.95332  0.77530  0.49273  1.0000
  C   C581      1.0  0.74387  0.53075  0.62976  1.0000
  C   C582      1.0  0.82554  0.92152  0.64808  1.0000
  C   C583      1.0  0.77052  0.76293  0.59103  1.0000
  C   C584      1.0  0.99029  0.71337  0.50762  1.0000
  C   C585      1.0  0.71522  0.97663  0.50813  1.0000
  C   C586      1.0  0.73096  0.51060  0.59119  1.0000
  H   H464      1.0  0.72813  0.89664  0.59243  1.0000
  S   S78       1.0  0.72607  0.53182  0.53869  1.0000
  H   H465      1.0  0.75508  0.56103  0.62598  1.0000
  H   H466      1.0  0.73397  0.67569  0.49764  1.0000
  S   S79       1.0  0.80531  0.64784  0.50759  1.0000
  C   C587      1.0  0.70315  0.70510  0.49988  1.0000
  H   H467      1.0  0.78157  0.93070  0.51104  1.0000
  H   H468      1.0  0.76839  0.87366  0.65067  1.0000
  H   H469      1.0  0.69069  0.77873  0.58558  1.0000
  H   H470      1.0  0.79249  0.73607  0.54749  1.0000
  C   C588      1.0  0.70686  0.86657  0.60134  1.0000
  H   H471      1.0  0.89192  0.96335  0.54971  1.0000
  C   C589      1.0  0.86487  0.94383  0.57160  1.0000
  H   H472      1.0  0.74985  0.79463  0.62538  1.0000
  C   C590      1.0  0.71495  0.83908  0.58825  1.0000
  H   H473      1.0  0.83838  0.91336  0.51427  1.0000
  H   H474      1.0  0.68941  0.69275  0.53578  1.0000
  H   H475      1.0  0.98409  0.71181  0.54550  1.0000
  C   C591      1.0  0.78700  0.75898  0.54883  1.0000
  H   H476      1.0  0.76365  0.74329  0.62256  1.0000
  H   H477      1.0  0.88397  0.96875  0.63524  1.0000
  C   C592      1.0  0.79585  0.78421  0.50808  1.0000
  H   H478      1.0  0.71376  0.97270  0.54620  1.0000
  Fe  Fe40      1.0  0.77461  0.58607  0.49612  1.0000
  C   C593      1.0  0.86039  0.94686  0.61979  1.0000
  C   C594      1.0  0.76243  0.79182  0.59236  1.0000
  P   P20       1.0  0.76016  0.85425  0.55347  1.0000
  C   C595      1.0  0.83443  0.91563  0.55159  1.0000
  H   H479      1.0  0.80941  0.52105  0.53275  1.0000
  C   C596      1.0  0.77010  0.81656  0.55118  1.0000
  C   C597      1.0  0.78787  0.81316  0.50931  1.0000
  S   S80       1.0  0.91256  0.67923  0.50829  1.0000
  C   C598      1.0  0.75753  0.87256  0.49568  1.0000
  C   C599      1.0  0.89386  0.75215  0.48845  1.0000
  H   H480      1.0  0.88473  0.73149  0.51966  1.0000
  C   C600      1.0  0.73962  0.51112  0.67430  1.0000
